data_str_m1_o10_o18_pcu_sym.145
_audit_creation_date              2020-01-03
_audit_creation_method            'Materials Studio'
_symmetry_space_group_name_H-M    'P1'
_symmetry_Int_Tables_number       1
_symmetry_cell_setting            triclinic
loop_
_symmetry_equiv_pos_as_xyz
  x,y,z
_cell_length_a                    32.7381
_cell_length_b                    32.5334
_cell_length_c                    35.5163
_cell_angle_alpha                 97.9276
_cell_angle_beta                  72.9911
_cell_angle_gamma                 98.6644
loop_
_atom_site_label
_atom_site_type_symbol
_atom_site_fract_x
_atom_site_fract_y
_atom_site_fract_z
_atom_site_U_iso_or_equiv
_atom_site_adp_type
_atom_site_occupancy
C1     C     0.05284   0.16001   0.25854   0.00000  Uiso   1.00
C2     C     0.19941   0.12783   0.45826   0.00000  Uiso   1.00
C3     C     0.22443   0.11206   0.47746   0.00000  Uiso   1.00
C4     C     0.28107   0.17333   0.24121   0.00000  Uiso   1.00
C5     C     0.21437   0.11770   0.01897   0.00000  Uiso   1.00
C6     C     0.17752   0.13734   0.04098   0.00000  Uiso   1.00
C7     C     0.24073   0.10453   0.03896   0.00000  Uiso   1.00
C8     C     0.23300   0.11350   0.07993   0.00000  Uiso   1.00
C9     C     0.17185   0.14815   0.08178   0.00000  Uiso   1.00
C10    C     0.32697   0.17595   0.23825   0.00000  Uiso   1.00
C11    C     0.00740   0.15653   0.26289   0.00000  Uiso   1.00
C12    C     0.09126   0.20583   0.42298   0.00000  Uiso   1.00
C13    C     0.18158   0.32257   0.23745   0.00000  Uiso   1.00
C14    C     0.15210   0.01208   0.26197   0.00000  Uiso   1.00
C15    C     0.15543   0.05622   0.25941   0.00000  Uiso   1.00
C16    C     0.17701   0.27775   0.24112   0.00000  Uiso   1.00
C17    C     0.18851   0.14514   0.14396   0.00000  Uiso   1.00
C18    C     0.14466   0.18708   0.35647   0.00000  Uiso   1.00
C19    C     0.13017   0.19014   0.40036   0.00000  Uiso   1.00
C20    C     0.19847   0.13572   0.10116   0.00000  Uiso   1.00
C21    C     0.07683   0.20265   0.46394   0.00000  Uiso   1.00
C22    C     0.32275   0.12812   0.32728   0.00000  Uiso   1.00
C23    C     0.15435   0.17305   0.41962   0.00000  Uiso   1.00
C24    C     0.29710   0.12968   0.10174   0.00000  Uiso   1.00
C25    C     0.30054   0.11961   0.44502   0.00000  Uiso   1.00
C26    C     0.07283   0.10074   0.08143   0.00000  Uiso   1.00
C27    C     0.13942   0.16752   0.46021   0.00000  Uiso   1.00
C28    C     0.10015   0.18270   0.48236   0.00000  Uiso   1.00
C29    C     0.16294   0.14806   0.47948   0.00000  Uiso   1.00
C30    C     0.14897   0.14800   0.02131   0.00000  Uiso   1.00
C31    C     0.10662   0.15779   0.04168   0.00000  Uiso   1.00
C32    C     0.08381   0.17643   0.02243   0.00000  Uiso   1.00
H33    H     0.05221   0.18476   0.03895   0.00000  Uiso   1.00
H34    H     0.29562   0.11025   0.34761   0.00000  Uiso   1.00
H35    H     0.32781   0.16019   0.34190   0.00000  Uiso   1.00
H36    H     0.01874   0.11228   0.32163   0.00000  Uiso   1.00
H37    H     0.23398   0.31944   0.18830   0.00000  Uiso   1.00
H38    H     0.23818   0.02621   0.22262   0.00000  Uiso   1.00
H39    H     0.26837   0.07048   0.08910   0.00000  Uiso   1.00
H40    H     0.31939   0.13262   0.07163   0.00000  Uiso   1.00
H41    H     0.31419   0.11864   0.12052   0.00000  Uiso   1.00
H42    H     0.28736   0.16086   0.11508   0.00000  Uiso   1.00
H43    H     0.25565   0.07377   0.42965   0.00000  Uiso   1.00
H44    H     0.26791   0.08790   0.02293   0.00000  Uiso   1.00
H45    H     0.29831   0.14361   0.42648   0.00000  Uiso   1.00
H46    H     0.32738   0.10131   0.42836   0.00000  Uiso   1.00
H47    H     0.30788   0.13526   0.47250   0.00000  Uiso   1.00
H48    H     0.01277   0.20531   0.47547   0.00000  Uiso   1.00
H49    H     0.04184   0.25146   0.48408   0.00000  Uiso   1.00
H50    H     0.05483   0.20210   0.38474   0.00000  Uiso   1.00
H51    H     0.08290   0.25023   0.39169   0.00000  Uiso   1.00
H52    H     0.05988   0.16234   0.09586   0.00000  Uiso   1.00
H53    H     0.05754   0.09391   0.11256   0.00000  Uiso   1.00
H54    H     0.10161   0.08369   0.06967   0.00000  Uiso   1.00
H55    H     0.12499   0.33174   0.28428   0.00000  Uiso   1.00
H56    H     0.04965   0.08932   0.06380   0.00000  Uiso   1.00
H57    H     0.14797   0.16801   0.09899   0.00000  Uiso   1.00
H58    H     0.18516   0.16435   0.40197   0.00000  Uiso   1.00
H59    H     0.20899   0.12278   0.42643   0.00000  Uiso   1.00
H60    H     0.02078   0.18772   0.18124   0.00000  Uiso   1.00
H61    H     0.01608   0.23070   0.21425   0.00000  Uiso   1.00
H62    H     0.30323   0.10079   0.27763   0.00000  Uiso   1.00
N63    N     0.02411   0.20012   0.20910   0.00000  Uiso   1.00
N64    N     0.31238   0.12972   0.29061   0.00000  Uiso   1.00
N65    N     0.21689   0.00861   0.20798   0.00000  Uiso   1.00
N66    N     0.25995   0.10008   0.09967   0.00000  Uiso   1.00
N67    N     0.26076   0.09191   0.45444   0.00000  Uiso   1.00
N68    N     0.03799   0.21946   0.48700   0.00000  Uiso   1.00
N69    N     0.06502   0.22423   0.40539   0.00000  Uiso   1.00
N70    N     0.08472   0.14532   0.08012   0.00000  Uiso   1.00
O71    O     0.16667   0.16667   0.25000   0.00000  Uiso   1.00
O72    O     0.15693   0.12393   0.16625   0.00000  Uiso   1.00
O73    O     0.12687   0.20646   0.33749   0.00000  Uiso   1.00
O74    O     0.21088   0.17493   0.15877   0.00000  Uiso   1.00
O75    O     0.17198   0.16135   0.33749   0.00000  Uiso   1.00
O76    O     0.17849   0.08101   0.27820   0.00000  Uiso   1.00
O77    O     0.14581   0.26136   0.26767   0.00000  Uiso   1.00
O78    O     0.07452   0.13251   0.23607   0.00000  Uiso   1.00
O79    O     0.26785   0.19179   0.21805   0.00000  Uiso   1.00
O80    O     0.06990   0.18960   0.27820   0.00000  Uiso   1.00
O81    O     0.25440   0.15277   0.26767   0.00000  Uiso   1.00
O82    O     0.13800   0.06903   0.23607   0.00000  Uiso   1.00
O83    O     0.20437   0.25527   0.21805   0.00000  Uiso   1.00
Zn84   Zn    0.19244   0.14090   0.28277   0.00000  Uiso   1.00
Zn85   Zn    0.13459   0.12378   0.22257   0.00000  Uiso   1.00
Zn86   Zn    0.21166   0.19664   0.21188   0.00000  Uiso   1.00
Zn87   Zn    0.12798   0.20535   0.28277   0.00000  Uiso   1.00
C88    C     0.38617   0.16001   0.25854   0.00000  Uiso   1.00
C89    C     0.53275   0.12783   0.45826   0.00000  Uiso   1.00
C90    C     0.55776   0.11206   0.47746   0.00000  Uiso   1.00
C91    C     0.61440   0.17333   0.24121   0.00000  Uiso   1.00
C92    C     0.54771   0.11770   0.01897   0.00000  Uiso   1.00
C93    C     0.51086   0.13734   0.04098   0.00000  Uiso   1.00
C94    C     0.57406   0.10453   0.03896   0.00000  Uiso   1.00
C95    C     0.56633   0.11350   0.07993   0.00000  Uiso   1.00
C96    C     0.50518   0.14815   0.08178   0.00000  Uiso   1.00
C97    C     0.66030   0.17595   0.23825   0.00000  Uiso   1.00
C98    C     0.34074   0.15653   0.26289   0.00000  Uiso   1.00
C99    C     0.42459   0.20583   0.42298   0.00000  Uiso   1.00
C100   C     0.51492   0.32257   0.23745   0.00000  Uiso   1.00
C101   C     0.48543   0.01208   0.26197   0.00000  Uiso   1.00
C102   C     0.48876   0.05622   0.25941   0.00000  Uiso   1.00
C103   C     0.51035   0.27775   0.24112   0.00000  Uiso   1.00
C104   C     0.52185   0.14514   0.14396   0.00000  Uiso   1.00
C105   C     0.47799   0.18708   0.35647   0.00000  Uiso   1.00
C106   C     0.46351   0.19014   0.40036   0.00000  Uiso   1.00
C107   C     0.53180   0.13572   0.10116   0.00000  Uiso   1.00
C108   C     0.41017   0.20265   0.46394   0.00000  Uiso   1.00
C109   C     0.65608   0.12812   0.32728   0.00000  Uiso   1.00
C110   C     0.48768   0.17305   0.41962   0.00000  Uiso   1.00
C111   C     0.63043   0.12968   0.10174   0.00000  Uiso   1.00
C112   C     0.63387   0.11961   0.44502   0.00000  Uiso   1.00
C113   C     0.40617   0.10074   0.08143   0.00000  Uiso   1.00
C114   C     0.47275   0.16752   0.46021   0.00000  Uiso   1.00
C115   C     0.43349   0.18270   0.48236   0.00000  Uiso   1.00
C116   C     0.49627   0.14806   0.47948   0.00000  Uiso   1.00
C117   C     0.48230   0.14800   0.02131   0.00000  Uiso   1.00
C118   C     0.43996   0.15779   0.04168   0.00000  Uiso   1.00
C119   C     0.41714   0.17643   0.02243   0.00000  Uiso   1.00
H120   H     0.38554   0.18476   0.03895   0.00000  Uiso   1.00
H121   H     0.62895   0.11025   0.34761   0.00000  Uiso   1.00
H122   H     0.66114   0.16019   0.34190   0.00000  Uiso   1.00
H123   H     0.35207   0.11228   0.32163   0.00000  Uiso   1.00
H124   H     0.56731   0.31944   0.18830   0.00000  Uiso   1.00
H125   H     0.57152   0.02621   0.22262   0.00000  Uiso   1.00
H126   H     0.60171   0.07048   0.08910   0.00000  Uiso   1.00
H127   H     0.65272   0.13262   0.07163   0.00000  Uiso   1.00
H128   H     0.64752   0.11864   0.12052   0.00000  Uiso   1.00
H129   H     0.62069   0.16086   0.11508   0.00000  Uiso   1.00
H130   H     0.58899   0.07377   0.42965   0.00000  Uiso   1.00
H131   H     0.60125   0.08790   0.02293   0.00000  Uiso   1.00
H132   H     0.63164   0.14361   0.42648   0.00000  Uiso   1.00
H133   H     0.66071   0.10131   0.42836   0.00000  Uiso   1.00
H134   H     0.64121   0.13526   0.47250   0.00000  Uiso   1.00
H135   H     0.34611   0.20531   0.47547   0.00000  Uiso   1.00
H136   H     0.37518   0.25146   0.48408   0.00000  Uiso   1.00
H137   H     0.38816   0.20210   0.38474   0.00000  Uiso   1.00
H138   H     0.41623   0.25023   0.39169   0.00000  Uiso   1.00
H139   H     0.39321   0.16234   0.09586   0.00000  Uiso   1.00
H140   H     0.39088   0.09391   0.11256   0.00000  Uiso   1.00
H141   H     0.43495   0.08369   0.06967   0.00000  Uiso   1.00
H142   H     0.45833   0.33174   0.28428   0.00000  Uiso   1.00
H143   H     0.38298   0.08932   0.06380   0.00000  Uiso   1.00
H144   H     0.48131   0.16801   0.09899   0.00000  Uiso   1.00
H145   H     0.51850   0.16435   0.40197   0.00000  Uiso   1.00
H146   H     0.54233   0.12278   0.42643   0.00000  Uiso   1.00
H147   H     0.35411   0.18772   0.18124   0.00000  Uiso   1.00
H148   H     0.34941   0.23070   0.21425   0.00000  Uiso   1.00
H149   H     0.63657   0.10079   0.27763   0.00000  Uiso   1.00
N150   N     0.35744   0.20012   0.20910   0.00000  Uiso   1.00
N151   N     0.64571   0.12972   0.29061   0.00000  Uiso   1.00
N152   N     0.55023   0.00861   0.20798   0.00000  Uiso   1.00
N153   N     0.59328   0.10008   0.09967   0.00000  Uiso   1.00
N154   N     0.59410   0.09191   0.45444   0.00000  Uiso   1.00
N155   N     0.37132   0.21946   0.48700   0.00000  Uiso   1.00
N156   N     0.39835   0.22423   0.40539   0.00000  Uiso   1.00
N157   N     0.41805   0.14532   0.08012   0.00000  Uiso   1.00
O158   O     0.50000   0.16667   0.25000   0.00000  Uiso   1.00
O159   O     0.49027   0.12393   0.16625   0.00000  Uiso   1.00
O160   O     0.46020   0.20646   0.33749   0.00000  Uiso   1.00
O161   O     0.54421   0.17493   0.15877   0.00000  Uiso   1.00
O162   O     0.50532   0.16135   0.33749   0.00000  Uiso   1.00
O163   O     0.51182   0.08101   0.27820   0.00000  Uiso   1.00
O164   O     0.47914   0.26136   0.26767   0.00000  Uiso   1.00
O165   O     0.40785   0.13251   0.23607   0.00000  Uiso   1.00
O166   O     0.60119   0.19179   0.21805   0.00000  Uiso   1.00
O167   O     0.40323   0.18960   0.27820   0.00000  Uiso   1.00
O168   O     0.58773   0.15277   0.26767   0.00000  Uiso   1.00
O169   O     0.47133   0.06903   0.23607   0.00000  Uiso   1.00
O170   O     0.53771   0.25527   0.21805   0.00000  Uiso   1.00
Zn171  Zn    0.52577   0.14090   0.28277   0.00000  Uiso   1.00
Zn172  Zn    0.46792   0.12378   0.22257   0.00000  Uiso   1.00
Zn173  Zn    0.54500   0.19664   0.21188   0.00000  Uiso   1.00
Zn174  Zn    0.46131   0.20535   0.28277   0.00000  Uiso   1.00
C175   C     0.71951   0.16001   0.25854   0.00000  Uiso   1.00
C176   C     0.86608   0.12783   0.45826   0.00000  Uiso   1.00
C177   C     0.89109   0.11206   0.47746   0.00000  Uiso   1.00
C178   C     0.94774   0.17333   0.24121   0.00000  Uiso   1.00
C179   C     0.88104   0.11770   0.01897   0.00000  Uiso   1.00
C180   C     0.84419   0.13734   0.04098   0.00000  Uiso   1.00
C181   C     0.90739   0.10453   0.03896   0.00000  Uiso   1.00
C182   C     0.89967   0.11350   0.07993   0.00000  Uiso   1.00
C183   C     0.83851   0.14815   0.08178   0.00000  Uiso   1.00
C184   C     0.99363   0.17595   0.23825   0.00000  Uiso   1.00
C185   C     0.67407   0.15653   0.26289   0.00000  Uiso   1.00
C186   C     0.75792   0.20583   0.42298   0.00000  Uiso   1.00
C187   C     0.84825   0.32257   0.23745   0.00000  Uiso   1.00
C188   C     0.81877   0.01208   0.26197   0.00000  Uiso   1.00
C189   C     0.82210   0.05622   0.25941   0.00000  Uiso   1.00
C190   C     0.84368   0.27775   0.24112   0.00000  Uiso   1.00
C191   C     0.85518   0.14514   0.14396   0.00000  Uiso   1.00
C192   C     0.81133   0.18708   0.35647   0.00000  Uiso   1.00
C193   C     0.79684   0.19014   0.40036   0.00000  Uiso   1.00
C194   C     0.86513   0.13572   0.10116   0.00000  Uiso   1.00
C195   C     0.74350   0.20265   0.46394   0.00000  Uiso   1.00
C196   C     0.98942   0.12812   0.32728   0.00000  Uiso   1.00
C197   C     0.82101   0.17305   0.41962   0.00000  Uiso   1.00
C198   C     0.96376   0.12968   0.10174   0.00000  Uiso   1.00
C199   C     0.96721   0.11961   0.44502   0.00000  Uiso   1.00
C200   C     0.73950   0.10074   0.08143   0.00000  Uiso   1.00
C201   C     0.80608   0.16752   0.46021   0.00000  Uiso   1.00
C202   C     0.76682   0.18270   0.48236   0.00000  Uiso   1.00
C203   C     0.82960   0.14806   0.47948   0.00000  Uiso   1.00
C204   C     0.81563   0.14800   0.02131   0.00000  Uiso   1.00
C205   C     0.77329   0.15779   0.04168   0.00000  Uiso   1.00
C206   C     0.75048   0.17643   0.02243   0.00000  Uiso   1.00
H207   H     0.71887   0.18476   0.03895   0.00000  Uiso   1.00
H208   H     0.96228   0.11025   0.34761   0.00000  Uiso   1.00
H209   H     0.99448   0.16019   0.34190   0.00000  Uiso   1.00
H210   H     0.68540   0.11228   0.32163   0.00000  Uiso   1.00
H211   H     0.90064   0.31944   0.18830   0.00000  Uiso   1.00
H212   H     0.90485   0.02621   0.22262   0.00000  Uiso   1.00
H213   H     0.93504   0.07048   0.08910   0.00000  Uiso   1.00
H214   H     0.98606   0.13262   0.07163   0.00000  Uiso   1.00
H215   H     0.98085   0.11864   0.12052   0.00000  Uiso   1.00
H216   H     0.95403   0.16086   0.11508   0.00000  Uiso   1.00
H217   H     0.92232   0.07377   0.42965   0.00000  Uiso   1.00
H218   H     0.93458   0.08790   0.02293   0.00000  Uiso   1.00
H219   H     0.96498   0.14361   0.42648   0.00000  Uiso   1.00
H220   H     0.99404   0.10131   0.42836   0.00000  Uiso   1.00
H221   H     0.97454   0.13526   0.47250   0.00000  Uiso   1.00
H222   H     0.67944   0.20531   0.47547   0.00000  Uiso   1.00
H223   H     0.70851   0.25146   0.48408   0.00000  Uiso   1.00
H224   H     0.72150   0.20210   0.38474   0.00000  Uiso   1.00
H225   H     0.74956   0.25023   0.39169   0.00000  Uiso   1.00
H226   H     0.72655   0.16234   0.09586   0.00000  Uiso   1.00
H227   H     0.72421   0.09391   0.11256   0.00000  Uiso   1.00
H228   H     0.76828   0.08369   0.06967   0.00000  Uiso   1.00
H229   H     0.79166   0.33174   0.28428   0.00000  Uiso   1.00
H230   H     0.71632   0.08932   0.06380   0.00000  Uiso   1.00
H231   H     0.81464   0.16801   0.09899   0.00000  Uiso   1.00
H232   H     0.85183   0.16435   0.40197   0.00000  Uiso   1.00
H233   H     0.87566   0.12278   0.42643   0.00000  Uiso   1.00
H234   H     0.68744   0.18772   0.18124   0.00000  Uiso   1.00
H235   H     0.68274   0.23070   0.21425   0.00000  Uiso   1.00
H236   H     0.96990   0.10079   0.27763   0.00000  Uiso   1.00
N237   N     0.69077   0.20012   0.20910   0.00000  Uiso   1.00
N238   N     0.97905   0.12972   0.29061   0.00000  Uiso   1.00
N239   N     0.88356   0.00861   0.20798   0.00000  Uiso   1.00
N240   N     0.92661   0.10008   0.09967   0.00000  Uiso   1.00
N241   N     0.92743   0.09191   0.45444   0.00000  Uiso   1.00
N242   N     0.70465   0.21946   0.48700   0.00000  Uiso   1.00
N243   N     0.73169   0.22423   0.40539   0.00000  Uiso   1.00
N244   N     0.75138   0.14532   0.08012   0.00000  Uiso   1.00
O245   O     0.83333   0.16667   0.25000   0.00000  Uiso   1.00
O246   O     0.82360   0.12393   0.16625   0.00000  Uiso   1.00
O247   O     0.79354   0.20646   0.33749   0.00000  Uiso   1.00
O248   O     0.87755   0.17493   0.15877   0.00000  Uiso   1.00
O249   O     0.83865   0.16135   0.33749   0.00000  Uiso   1.00
O250   O     0.84515   0.08101   0.27820   0.00000  Uiso   1.00
O251   O     0.81247   0.26136   0.26767   0.00000  Uiso   1.00
O252   O     0.74119   0.13251   0.23607   0.00000  Uiso   1.00
O253   O     0.93452   0.19179   0.21805   0.00000  Uiso   1.00
O254   O     0.73656   0.18960   0.27820   0.00000  Uiso   1.00
O255   O     0.92106   0.15277   0.26767   0.00000  Uiso   1.00
O256   O     0.80467   0.06903   0.23607   0.00000  Uiso   1.00
O257   O     0.87104   0.25527   0.21805   0.00000  Uiso   1.00
Zn258  Zn    0.85910   0.14090   0.28277   0.00000  Uiso   1.00
Zn259  Zn    0.80125   0.12378   0.22257   0.00000  Uiso   1.00
Zn260  Zn    0.87833   0.19664   0.21188   0.00000  Uiso   1.00
Zn261  Zn    0.79465   0.20535   0.28277   0.00000  Uiso   1.00
C262   C     0.05284   0.49334   0.25854   0.00000  Uiso   1.00
C263   C     0.19941   0.46117   0.45826   0.00000  Uiso   1.00
C264   C     0.22443   0.44539   0.47746   0.00000  Uiso   1.00
C265   C     0.28107   0.50666   0.24121   0.00000  Uiso   1.00
C266   C     0.21437   0.45103   0.01897   0.00000  Uiso   1.00
C267   C     0.17752   0.47067   0.04098   0.00000  Uiso   1.00
C268   C     0.24073   0.43786   0.03896   0.00000  Uiso   1.00
C269   C     0.23300   0.44683   0.07993   0.00000  Uiso   1.00
C270   C     0.17185   0.48148   0.08178   0.00000  Uiso   1.00
C271   C     0.32697   0.50929   0.23825   0.00000  Uiso   1.00
C272   C     0.00740   0.48986   0.26289   0.00000  Uiso   1.00
C273   C     0.09126   0.53916   0.42298   0.00000  Uiso   1.00
C274   C     0.18158   0.65590   0.23745   0.00000  Uiso   1.00
C275   C     0.15210   0.34541   0.26197   0.00000  Uiso   1.00
C276   C     0.15543   0.38955   0.25941   0.00000  Uiso   1.00
C277   C     0.17701   0.61109   0.24112   0.00000  Uiso   1.00
C278   C     0.18851   0.47847   0.14396   0.00000  Uiso   1.00
C279   C     0.14466   0.52042   0.35647   0.00000  Uiso   1.00
C280   C     0.13017   0.52348   0.40036   0.00000  Uiso   1.00
C281   C     0.19847   0.46906   0.10116   0.00000  Uiso   1.00
C282   C     0.07683   0.53598   0.46394   0.00000  Uiso   1.00
C283   C     0.32275   0.46145   0.32728   0.00000  Uiso   1.00
C284   C     0.15435   0.50639   0.41962   0.00000  Uiso   1.00
C285   C     0.29710   0.46301   0.10174   0.00000  Uiso   1.00
C286   C     0.30054   0.45294   0.44502   0.00000  Uiso   1.00
C287   C     0.07283   0.43407   0.08143   0.00000  Uiso   1.00
C288   C     0.13942   0.50085   0.46021   0.00000  Uiso   1.00
C289   C     0.10015   0.51603   0.48236   0.00000  Uiso   1.00
C290   C     0.16294   0.48140   0.47948   0.00000  Uiso   1.00
C291   C     0.14897   0.48133   0.02131   0.00000  Uiso   1.00
C292   C     0.10662   0.49112   0.04168   0.00000  Uiso   1.00
C293   C     0.08381   0.50976   0.02243   0.00000  Uiso   1.00
H294   H     0.05221   0.51809   0.03895   0.00000  Uiso   1.00
H295   H     0.29562   0.44359   0.34761   0.00000  Uiso   1.00
H296   H     0.32781   0.49353   0.34190   0.00000  Uiso   1.00
H297   H     0.01874   0.44562   0.32163   0.00000  Uiso   1.00
H298   H     0.23398   0.65278   0.18830   0.00000  Uiso   1.00
H299   H     0.23818   0.35954   0.22262   0.00000  Uiso   1.00
H300   H     0.26837   0.40381   0.08910   0.00000  Uiso   1.00
H301   H     0.31939   0.46595   0.07163   0.00000  Uiso   1.00
H302   H     0.31419   0.45197   0.12052   0.00000  Uiso   1.00
H303   H     0.28736   0.49420   0.11508   0.00000  Uiso   1.00
H304   H     0.25565   0.40710   0.42965   0.00000  Uiso   1.00
H305   H     0.26791   0.42123   0.02293   0.00000  Uiso   1.00
H306   H     0.29831   0.47694   0.42648   0.00000  Uiso   1.00
H307   H     0.32738   0.43464   0.42836   0.00000  Uiso   1.00
H308   H     0.30788   0.46860   0.47250   0.00000  Uiso   1.00
H309   H     0.01277   0.53865   0.47547   0.00000  Uiso   1.00
H310   H     0.04184   0.58479   0.48408   0.00000  Uiso   1.00
H311   H     0.05483   0.53543   0.38474   0.00000  Uiso   1.00
H312   H     0.08290   0.58356   0.39169   0.00000  Uiso   1.00
H313   H     0.05988   0.49567   0.09586   0.00000  Uiso   1.00
H314   H     0.05754   0.42725   0.11256   0.00000  Uiso   1.00
H315   H     0.10161   0.41703   0.06967   0.00000  Uiso   1.00
H316   H     0.12499   0.66507   0.28428   0.00000  Uiso   1.00
H317   H     0.04965   0.42265   0.06380   0.00000  Uiso   1.00
H318   H     0.14797   0.50135   0.09899   0.00000  Uiso   1.00
H319   H     0.18516   0.49768   0.40197   0.00000  Uiso   1.00
H320   H     0.20899   0.45611   0.42643   0.00000  Uiso   1.00
H321   H     0.02078   0.52106   0.18124   0.00000  Uiso   1.00
H322   H     0.01608   0.56403   0.21425   0.00000  Uiso   1.00
H323   H     0.30323   0.43412   0.27763   0.00000  Uiso   1.00
N324   N     0.02411   0.53345   0.20910   0.00000  Uiso   1.00
N325   N     0.31238   0.46305   0.29061   0.00000  Uiso   1.00
N326   N     0.21689   0.34194   0.20798   0.00000  Uiso   1.00
N327   N     0.25995   0.43342   0.09967   0.00000  Uiso   1.00
N328   N     0.26076   0.42525   0.45444   0.00000  Uiso   1.00
N329   N     0.03799   0.55279   0.48700   0.00000  Uiso   1.00
N330   N     0.06502   0.55757   0.40539   0.00000  Uiso   1.00
N331   N     0.08472   0.47865   0.08012   0.00000  Uiso   1.00
O332   O     0.16667   0.50000   0.25000   0.00000  Uiso   1.00
O333   O     0.15693   0.45726   0.16625   0.00000  Uiso   1.00
O334   O     0.12687   0.53979   0.33749   0.00000  Uiso   1.00
O335   O     0.21088   0.50826   0.15877   0.00000  Uiso   1.00
O336   O     0.17198   0.49468   0.33749   0.00000  Uiso   1.00
O337   O     0.17849   0.41434   0.27820   0.00000  Uiso   1.00
O338   O     0.14581   0.59469   0.26767   0.00000  Uiso   1.00
O339   O     0.07452   0.46584   0.23607   0.00000  Uiso   1.00
O340   O     0.26785   0.52512   0.21805   0.00000  Uiso   1.00
O341   O     0.06990   0.52293   0.27820   0.00000  Uiso   1.00
O342   O     0.25440   0.48610   0.26767   0.00000  Uiso   1.00
O343   O     0.13800   0.40236   0.23607   0.00000  Uiso   1.00
O344   O     0.20437   0.58860   0.21805   0.00000  Uiso   1.00
Zn345  Zn    0.19244   0.47423   0.28277   0.00000  Uiso   1.00
Zn346  Zn    0.13459   0.45711   0.22257   0.00000  Uiso   1.00
Zn347  Zn    0.21166   0.52997   0.21188   0.00000  Uiso   1.00
Zn348  Zn    0.12798   0.53868   0.28277   0.00000  Uiso   1.00
C349   C     0.38617   0.49334   0.25854   0.00000  Uiso   1.00
C350   C     0.53275   0.46117   0.45826   0.00000  Uiso   1.00
C351   C     0.55776   0.44539   0.47746   0.00000  Uiso   1.00
C352   C     0.61440   0.50666   0.24121   0.00000  Uiso   1.00
C353   C     0.54771   0.45103   0.01897   0.00000  Uiso   1.00
C354   C     0.51086   0.47067   0.04098   0.00000  Uiso   1.00
C355   C     0.57406   0.43786   0.03896   0.00000  Uiso   1.00
C356   C     0.56633   0.44683   0.07993   0.00000  Uiso   1.00
C357   C     0.50518   0.48148   0.08178   0.00000  Uiso   1.00
C358   C     0.66030   0.50929   0.23825   0.00000  Uiso   1.00
C359   C     0.34074   0.48986   0.26289   0.00000  Uiso   1.00
C360   C     0.42459   0.53916   0.42298   0.00000  Uiso   1.00
C361   C     0.51492   0.65590   0.23745   0.00000  Uiso   1.00
C362   C     0.48543   0.34541   0.26197   0.00000  Uiso   1.00
C363   C     0.48876   0.38955   0.25941   0.00000  Uiso   1.00
C364   C     0.51035   0.61109   0.24112   0.00000  Uiso   1.00
C365   C     0.52185   0.47847   0.14396   0.00000  Uiso   1.00
C366   C     0.47799   0.52042   0.35647   0.00000  Uiso   1.00
C367   C     0.46351   0.52348   0.40036   0.00000  Uiso   1.00
C368   C     0.53180   0.46906   0.10116   0.00000  Uiso   1.00
C369   C     0.41017   0.53598   0.46394   0.00000  Uiso   1.00
C370   C     0.65608   0.46145   0.32728   0.00000  Uiso   1.00
C371   C     0.48768   0.50639   0.41962   0.00000  Uiso   1.00
C372   C     0.63043   0.46301   0.10174   0.00000  Uiso   1.00
C373   C     0.63387   0.45294   0.44502   0.00000  Uiso   1.00
C374   C     0.40617   0.43407   0.08143   0.00000  Uiso   1.00
C375   C     0.47275   0.50085   0.46021   0.00000  Uiso   1.00
C376   C     0.43349   0.51603   0.48236   0.00000  Uiso   1.00
C377   C     0.49627   0.48140   0.47948   0.00000  Uiso   1.00
C378   C     0.48230   0.48133   0.02131   0.00000  Uiso   1.00
C379   C     0.43996   0.49112   0.04168   0.00000  Uiso   1.00
C380   C     0.41714   0.50976   0.02243   0.00000  Uiso   1.00
H381   H     0.38554   0.51809   0.03895   0.00000  Uiso   1.00
H382   H     0.62895   0.44359   0.34761   0.00000  Uiso   1.00
H383   H     0.66114   0.49353   0.34190   0.00000  Uiso   1.00
H384   H     0.35207   0.44562   0.32163   0.00000  Uiso   1.00
H385   H     0.56731   0.65278   0.18830   0.00000  Uiso   1.00
H386   H     0.57152   0.35954   0.22262   0.00000  Uiso   1.00
H387   H     0.60171   0.40381   0.08910   0.00000  Uiso   1.00
H388   H     0.65272   0.46595   0.07163   0.00000  Uiso   1.00
H389   H     0.64752   0.45197   0.12052   0.00000  Uiso   1.00
H390   H     0.62069   0.49420   0.11508   0.00000  Uiso   1.00
H391   H     0.58899   0.40710   0.42965   0.00000  Uiso   1.00
H392   H     0.60125   0.42123   0.02293   0.00000  Uiso   1.00
H393   H     0.63164   0.47694   0.42648   0.00000  Uiso   1.00
H394   H     0.66071   0.43464   0.42836   0.00000  Uiso   1.00
H395   H     0.64121   0.46860   0.47250   0.00000  Uiso   1.00
H396   H     0.34611   0.53865   0.47547   0.00000  Uiso   1.00
H397   H     0.37518   0.58479   0.48408   0.00000  Uiso   1.00
H398   H     0.38816   0.53543   0.38474   0.00000  Uiso   1.00
H399   H     0.41623   0.58356   0.39169   0.00000  Uiso   1.00
H400   H     0.39321   0.49567   0.09586   0.00000  Uiso   1.00
H401   H     0.39088   0.42725   0.11256   0.00000  Uiso   1.00
H402   H     0.43495   0.41703   0.06967   0.00000  Uiso   1.00
H403   H     0.45833   0.66507   0.28428   0.00000  Uiso   1.00
H404   H     0.38298   0.42265   0.06380   0.00000  Uiso   1.00
H405   H     0.48131   0.50135   0.09899   0.00000  Uiso   1.00
H406   H     0.51850   0.49768   0.40197   0.00000  Uiso   1.00
H407   H     0.54233   0.45611   0.42643   0.00000  Uiso   1.00
H408   H     0.35411   0.52106   0.18124   0.00000  Uiso   1.00
H409   H     0.34941   0.56403   0.21425   0.00000  Uiso   1.00
H410   H     0.63657   0.43412   0.27763   0.00000  Uiso   1.00
N411   N     0.35744   0.53345   0.20910   0.00000  Uiso   1.00
N412   N     0.64571   0.46305   0.29061   0.00000  Uiso   1.00
N413   N     0.55023   0.34194   0.20798   0.00000  Uiso   1.00
N414   N     0.59328   0.43342   0.09967   0.00000  Uiso   1.00
N415   N     0.59410   0.42525   0.45444   0.00000  Uiso   1.00
N416   N     0.37132   0.55279   0.48700   0.00000  Uiso   1.00
N417   N     0.39835   0.55757   0.40539   0.00000  Uiso   1.00
N418   N     0.41805   0.47865   0.08012   0.00000  Uiso   1.00
O419   O     0.50000   0.50000   0.25000   0.00000  Uiso   1.00
O420   O     0.49027   0.45726   0.16625   0.00000  Uiso   1.00
O421   O     0.46020   0.53979   0.33749   0.00000  Uiso   1.00
O422   O     0.54421   0.50826   0.15877   0.00000  Uiso   1.00
O423   O     0.50532   0.49468   0.33749   0.00000  Uiso   1.00
O424   O     0.51182   0.41434   0.27820   0.00000  Uiso   1.00
O425   O     0.47914   0.59469   0.26767   0.00000  Uiso   1.00
O426   O     0.40785   0.46584   0.23607   0.00000  Uiso   1.00
O427   O     0.60119   0.52512   0.21805   0.00000  Uiso   1.00
O428   O     0.40323   0.52293   0.27820   0.00000  Uiso   1.00
O429   O     0.58773   0.48610   0.26767   0.00000  Uiso   1.00
O430   O     0.47133   0.40236   0.23607   0.00000  Uiso   1.00
O431   O     0.53771   0.58860   0.21805   0.00000  Uiso   1.00
Zn432  Zn    0.52577   0.47423   0.28277   0.00000  Uiso   1.00
Zn433  Zn    0.46792   0.45711   0.22257   0.00000  Uiso   1.00
Zn434  Zn    0.54500   0.52997   0.21188   0.00000  Uiso   1.00
Zn435  Zn    0.46131   0.53868   0.28277   0.00000  Uiso   1.00
C436   C     0.71951   0.49334   0.25854   0.00000  Uiso   1.00
C437   C     0.86608   0.46117   0.45826   0.00000  Uiso   1.00
C438   C     0.89109   0.44539   0.47746   0.00000  Uiso   1.00
C439   C     0.94774   0.50666   0.24121   0.00000  Uiso   1.00
C440   C     0.88104   0.45103   0.01897   0.00000  Uiso   1.00
C441   C     0.84419   0.47067   0.04098   0.00000  Uiso   1.00
C442   C     0.90739   0.43786   0.03896   0.00000  Uiso   1.00
C443   C     0.89967   0.44683   0.07993   0.00000  Uiso   1.00
C444   C     0.83851   0.48148   0.08178   0.00000  Uiso   1.00
C445   C     0.99363   0.50929   0.23825   0.00000  Uiso   1.00
C446   C     0.67407   0.48986   0.26289   0.00000  Uiso   1.00
C447   C     0.75792   0.53916   0.42298   0.00000  Uiso   1.00
C448   C     0.84825   0.65590   0.23745   0.00000  Uiso   1.00
C449   C     0.81877   0.34541   0.26197   0.00000  Uiso   1.00
C450   C     0.82210   0.38955   0.25941   0.00000  Uiso   1.00
C451   C     0.84368   0.61109   0.24112   0.00000  Uiso   1.00
C452   C     0.85518   0.47847   0.14396   0.00000  Uiso   1.00
C453   C     0.81133   0.52042   0.35647   0.00000  Uiso   1.00
C454   C     0.79684   0.52348   0.40036   0.00000  Uiso   1.00
C455   C     0.86513   0.46906   0.10116   0.00000  Uiso   1.00
C456   C     0.74350   0.53598   0.46394   0.00000  Uiso   1.00
C457   C     0.98942   0.46145   0.32728   0.00000  Uiso   1.00
C458   C     0.82101   0.50639   0.41962   0.00000  Uiso   1.00
C459   C     0.96376   0.46301   0.10174   0.00000  Uiso   1.00
C460   C     0.96721   0.45294   0.44502   0.00000  Uiso   1.00
C461   C     0.73950   0.43407   0.08143   0.00000  Uiso   1.00
C462   C     0.80608   0.50085   0.46021   0.00000  Uiso   1.00
C463   C     0.76682   0.51603   0.48236   0.00000  Uiso   1.00
C464   C     0.82960   0.48140   0.47948   0.00000  Uiso   1.00
C465   C     0.81563   0.48133   0.02131   0.00000  Uiso   1.00
C466   C     0.77329   0.49112   0.04168   0.00000  Uiso   1.00
C467   C     0.75048   0.50976   0.02243   0.00000  Uiso   1.00
H468   H     0.71887   0.51809   0.03895   0.00000  Uiso   1.00
H469   H     0.96228   0.44359   0.34761   0.00000  Uiso   1.00
H470   H     0.99448   0.49353   0.34190   0.00000  Uiso   1.00
H471   H     0.68540   0.44562   0.32163   0.00000  Uiso   1.00
H472   H     0.90064   0.65278   0.18830   0.00000  Uiso   1.00
H473   H     0.90485   0.35954   0.22262   0.00000  Uiso   1.00
H474   H     0.93504   0.40381   0.08910   0.00000  Uiso   1.00
H475   H     0.98606   0.46595   0.07163   0.00000  Uiso   1.00
H476   H     0.98085   0.45197   0.12052   0.00000  Uiso   1.00
H477   H     0.95403   0.49420   0.11508   0.00000  Uiso   1.00
H478   H     0.92232   0.40710   0.42965   0.00000  Uiso   1.00
H479   H     0.93458   0.42123   0.02293   0.00000  Uiso   1.00
H480   H     0.96498   0.47694   0.42648   0.00000  Uiso   1.00
H481   H     0.99404   0.43464   0.42836   0.00000  Uiso   1.00
H482   H     0.97454   0.46860   0.47250   0.00000  Uiso   1.00
H483   H     0.67944   0.53865   0.47547   0.00000  Uiso   1.00
H484   H     0.70851   0.58479   0.48408   0.00000  Uiso   1.00
H485   H     0.72150   0.53543   0.38474   0.00000  Uiso   1.00
H486   H     0.74956   0.58356   0.39169   0.00000  Uiso   1.00
H487   H     0.72655   0.49567   0.09586   0.00000  Uiso   1.00
H488   H     0.72421   0.42725   0.11256   0.00000  Uiso   1.00
H489   H     0.76828   0.41703   0.06967   0.00000  Uiso   1.00
H490   H     0.79166   0.66507   0.28428   0.00000  Uiso   1.00
H491   H     0.71632   0.42265   0.06380   0.00000  Uiso   1.00
H492   H     0.81464   0.50135   0.09899   0.00000  Uiso   1.00
H493   H     0.85183   0.49768   0.40197   0.00000  Uiso   1.00
H494   H     0.87566   0.45611   0.42643   0.00000  Uiso   1.00
H495   H     0.68744   0.52106   0.18124   0.00000  Uiso   1.00
H496   H     0.68274   0.56403   0.21425   0.00000  Uiso   1.00
H497   H     0.96990   0.43412   0.27763   0.00000  Uiso   1.00
N498   N     0.69077   0.53345   0.20910   0.00000  Uiso   1.00
N499   N     0.97905   0.46305   0.29061   0.00000  Uiso   1.00
N500   N     0.88356   0.34194   0.20798   0.00000  Uiso   1.00
N501   N     0.92661   0.43342   0.09967   0.00000  Uiso   1.00
N502   N     0.92743   0.42525   0.45444   0.00000  Uiso   1.00
N503   N     0.70465   0.55279   0.48700   0.00000  Uiso   1.00
N504   N     0.73169   0.55757   0.40539   0.00000  Uiso   1.00
N505   N     0.75138   0.47865   0.08012   0.00000  Uiso   1.00
O506   O     0.83333   0.50000   0.25000   0.00000  Uiso   1.00
O507   O     0.82360   0.45726   0.16625   0.00000  Uiso   1.00
O508   O     0.79354   0.53979   0.33749   0.00000  Uiso   1.00
O509   O     0.87755   0.50826   0.15877   0.00000  Uiso   1.00
O510   O     0.83865   0.49468   0.33749   0.00000  Uiso   1.00
O511   O     0.84515   0.41434   0.27820   0.00000  Uiso   1.00
O512   O     0.81247   0.59469   0.26767   0.00000  Uiso   1.00
O513   O     0.74119   0.46584   0.23607   0.00000  Uiso   1.00
O514   O     0.93452   0.52512   0.21805   0.00000  Uiso   1.00
O515   O     0.73656   0.52293   0.27820   0.00000  Uiso   1.00
O516   O     0.92106   0.48610   0.26767   0.00000  Uiso   1.00
O517   O     0.80467   0.40236   0.23607   0.00000  Uiso   1.00
O518   O     0.87104   0.58860   0.21805   0.00000  Uiso   1.00
Zn519  Zn    0.85910   0.47423   0.28277   0.00000  Uiso   1.00
Zn520  Zn    0.80125   0.45711   0.22257   0.00000  Uiso   1.00
Zn521  Zn    0.87833   0.52997   0.21188   0.00000  Uiso   1.00
Zn522  Zn    0.79465   0.53868   0.28277   0.00000  Uiso   1.00
C523   C     0.05284   0.82667   0.25854   0.00000  Uiso   1.00
C524   C     0.19941   0.79450   0.45826   0.00000  Uiso   1.00
C525   C     0.22443   0.77873   0.47746   0.00000  Uiso   1.00
C526   C     0.28107   0.84000   0.24121   0.00000  Uiso   1.00
C527   C     0.21437   0.78437   0.01897   0.00000  Uiso   1.00
C528   C     0.17752   0.80400   0.04098   0.00000  Uiso   1.00
C529   C     0.24073   0.77120   0.03896   0.00000  Uiso   1.00
C530   C     0.23300   0.78017   0.07993   0.00000  Uiso   1.00
C531   C     0.17185   0.81482   0.08178   0.00000  Uiso   1.00
C532   C     0.32697   0.84262   0.23825   0.00000  Uiso   1.00
C533   C     0.00740   0.82319   0.26289   0.00000  Uiso   1.00
C534   C     0.09126   0.87250   0.42298   0.00000  Uiso   1.00
C535   C     0.18158   0.98923   0.23745   0.00000  Uiso   1.00
C536   C     0.15210   0.67874   0.26197   0.00000  Uiso   1.00
C537   C     0.15543   0.72288   0.25941   0.00000  Uiso   1.00
C538   C     0.17701   0.94442   0.24112   0.00000  Uiso   1.00
C539   C     0.18851   0.81181   0.14396   0.00000  Uiso   1.00
C540   C     0.14466   0.85375   0.35647   0.00000  Uiso   1.00
C541   C     0.13017   0.85681   0.40036   0.00000  Uiso   1.00
C542   C     0.19847   0.80239   0.10116   0.00000  Uiso   1.00
C543   C     0.07683   0.86931   0.46394   0.00000  Uiso   1.00
C544   C     0.32275   0.79478   0.32728   0.00000  Uiso   1.00
C545   C     0.15435   0.83972   0.41962   0.00000  Uiso   1.00
C546   C     0.29710   0.79635   0.10174   0.00000  Uiso   1.00
C547   C     0.30054   0.78628   0.44502   0.00000  Uiso   1.00
C548   C     0.07283   0.76740   0.08143   0.00000  Uiso   1.00
C549   C     0.13942   0.83419   0.46021   0.00000  Uiso   1.00
C550   C     0.10015   0.84937   0.48236   0.00000  Uiso   1.00
C551   C     0.16294   0.81473   0.47948   0.00000  Uiso   1.00
C552   C     0.14897   0.81467   0.02131   0.00000  Uiso   1.00
C553   C     0.10662   0.82445   0.04168   0.00000  Uiso   1.00
C554   C     0.08381   0.84310   0.02243   0.00000  Uiso   1.00
H555   H     0.05221   0.85143   0.03895   0.00000  Uiso   1.00
H556   H     0.29562   0.77692   0.34761   0.00000  Uiso   1.00
H557   H     0.32781   0.82686   0.34190   0.00000  Uiso   1.00
H558   H     0.01874   0.77895   0.32163   0.00000  Uiso   1.00
H559   H     0.23398   0.98611   0.18830   0.00000  Uiso   1.00
H560   H     0.23818   0.69287   0.22262   0.00000  Uiso   1.00
H561   H     0.26837   0.73714   0.08910   0.00000  Uiso   1.00
H562   H     0.31939   0.79928   0.07163   0.00000  Uiso   1.00
H563   H     0.31419   0.78531   0.12052   0.00000  Uiso   1.00
H564   H     0.28736   0.82753   0.11508   0.00000  Uiso   1.00
H565   H     0.25565   0.74043   0.42965   0.00000  Uiso   1.00
H566   H     0.26791   0.75457   0.02293   0.00000  Uiso   1.00
H567   H     0.29831   0.81028   0.42648   0.00000  Uiso   1.00
H568   H     0.32738   0.76798   0.42836   0.00000  Uiso   1.00
H569   H     0.30788   0.80193   0.47250   0.00000  Uiso   1.00
H570   H     0.01277   0.87198   0.47547   0.00000  Uiso   1.00
H571   H     0.04184   0.91813   0.48408   0.00000  Uiso   1.00
H572   H     0.05483   0.86877   0.38474   0.00000  Uiso   1.00
H573   H     0.08290   0.91689   0.39169   0.00000  Uiso   1.00
H574   H     0.05988   0.82901   0.09586   0.00000  Uiso   1.00
H575   H     0.05754   0.76058   0.11256   0.00000  Uiso   1.00
H576   H     0.10161   0.75036   0.06967   0.00000  Uiso   1.00
H577   H     0.12499   0.99840   0.28428   0.00000  Uiso   1.00
H578   H     0.04965   0.75599   0.06380   0.00000  Uiso   1.00
H579   H     0.14797   0.83468   0.09899   0.00000  Uiso   1.00
H580   H     0.18516   0.83102   0.40197   0.00000  Uiso   1.00
H581   H     0.20899   0.78945   0.42643   0.00000  Uiso   1.00
H582   H     0.02078   0.85439   0.18124   0.00000  Uiso   1.00
H583   H     0.01608   0.89736   0.21425   0.00000  Uiso   1.00
H584   H     0.30323   0.76746   0.27763   0.00000  Uiso   1.00
N585   N     0.02411   0.86678   0.20910   0.00000  Uiso   1.00
N586   N     0.31238   0.79639   0.29061   0.00000  Uiso   1.00
N587   N     0.21689   0.67528   0.20798   0.00000  Uiso   1.00
N588   N     0.25995   0.76675   0.09967   0.00000  Uiso   1.00
N589   N     0.26076   0.75858   0.45444   0.00000  Uiso   1.00
N590   N     0.03799   0.88613   0.48700   0.00000  Uiso   1.00
N591   N     0.06502   0.89090   0.40539   0.00000  Uiso   1.00
N592   N     0.08472   0.81198   0.08012   0.00000  Uiso   1.00
O593   O     0.16667   0.83333   0.25000   0.00000  Uiso   1.00
O594   O     0.15693   0.79060   0.16625   0.00000  Uiso   1.00
O595   O     0.12687   0.87313   0.33749   0.00000  Uiso   1.00
O596   O     0.21088   0.84159   0.15877   0.00000  Uiso   1.00
O597   O     0.17198   0.82802   0.33749   0.00000  Uiso   1.00
O598   O     0.17849   0.74768   0.27820   0.00000  Uiso   1.00
O599   O     0.14581   0.92803   0.26767   0.00000  Uiso   1.00
O600   O     0.07452   0.79917   0.23607   0.00000  Uiso   1.00
O601   O     0.26785   0.85845   0.21805   0.00000  Uiso   1.00
O602   O     0.06990   0.85627   0.27820   0.00000  Uiso   1.00
O603   O     0.25440   0.81944   0.26767   0.00000  Uiso   1.00
O604   O     0.13800   0.73570   0.23607   0.00000  Uiso   1.00
O605   O     0.20437   0.92193   0.21805   0.00000  Uiso   1.00
Zn606  Zn    0.19244   0.80756   0.28277   0.00000  Uiso   1.00
Zn607  Zn    0.13459   0.79044   0.22257   0.00000  Uiso   1.00
Zn608  Zn    0.21166   0.86331   0.21188   0.00000  Uiso   1.00
Zn609  Zn    0.12798   0.87202   0.28277   0.00000  Uiso   1.00
C610   C     0.38617   0.82667   0.25854   0.00000  Uiso   1.00
C611   C     0.53275   0.79450   0.45826   0.00000  Uiso   1.00
C612   C     0.55776   0.77873   0.47746   0.00000  Uiso   1.00
C613   C     0.61440   0.84000   0.24121   0.00000  Uiso   1.00
C614   C     0.54771   0.78437   0.01897   0.00000  Uiso   1.00
C615   C     0.51086   0.80400   0.04098   0.00000  Uiso   1.00
C616   C     0.57406   0.77120   0.03896   0.00000  Uiso   1.00
C617   C     0.56633   0.78017   0.07993   0.00000  Uiso   1.00
C618   C     0.50518   0.81482   0.08178   0.00000  Uiso   1.00
C619   C     0.66030   0.84262   0.23825   0.00000  Uiso   1.00
C620   C     0.34074   0.82319   0.26289   0.00000  Uiso   1.00
C621   C     0.42459   0.87250   0.42298   0.00000  Uiso   1.00
C622   C     0.51492   0.98923   0.23745   0.00000  Uiso   1.00
C623   C     0.48543   0.67874   0.26197   0.00000  Uiso   1.00
C624   C     0.48876   0.72288   0.25941   0.00000  Uiso   1.00
C625   C     0.51035   0.94442   0.24112   0.00000  Uiso   1.00
C626   C     0.52185   0.81181   0.14396   0.00000  Uiso   1.00
C627   C     0.47799   0.85375   0.35647   0.00000  Uiso   1.00
C628   C     0.46351   0.85681   0.40036   0.00000  Uiso   1.00
C629   C     0.53180   0.80239   0.10116   0.00000  Uiso   1.00
C630   C     0.41017   0.86931   0.46394   0.00000  Uiso   1.00
C631   C     0.65608   0.79478   0.32728   0.00000  Uiso   1.00
C632   C     0.48768   0.83972   0.41962   0.00000  Uiso   1.00
C633   C     0.63043   0.79635   0.10174   0.00000  Uiso   1.00
C634   C     0.63387   0.78628   0.44502   0.00000  Uiso   1.00
C635   C     0.40617   0.76740   0.08143   0.00000  Uiso   1.00
C636   C     0.47275   0.83419   0.46021   0.00000  Uiso   1.00
C637   C     0.43349   0.84937   0.48236   0.00000  Uiso   1.00
C638   C     0.49627   0.81473   0.47948   0.00000  Uiso   1.00
C639   C     0.48230   0.81467   0.02131   0.00000  Uiso   1.00
C640   C     0.43996   0.82445   0.04168   0.00000  Uiso   1.00
C641   C     0.41714   0.84310   0.02243   0.00000  Uiso   1.00
H642   H     0.38554   0.85143   0.03895   0.00000  Uiso   1.00
H643   H     0.62895   0.77692   0.34761   0.00000  Uiso   1.00
H644   H     0.66114   0.82686   0.34190   0.00000  Uiso   1.00
H645   H     0.35207   0.77895   0.32163   0.00000  Uiso   1.00
H646   H     0.56731   0.98611   0.18830   0.00000  Uiso   1.00
H647   H     0.57152   0.69287   0.22262   0.00000  Uiso   1.00
H648   H     0.60171   0.73714   0.08910   0.00000  Uiso   1.00
H649   H     0.65272   0.79928   0.07163   0.00000  Uiso   1.00
H650   H     0.64752   0.78531   0.12052   0.00000  Uiso   1.00
H651   H     0.62069   0.82753   0.11508   0.00000  Uiso   1.00
H652   H     0.58899   0.74043   0.42965   0.00000  Uiso   1.00
H653   H     0.60125   0.75457   0.02293   0.00000  Uiso   1.00
H654   H     0.63164   0.81028   0.42648   0.00000  Uiso   1.00
H655   H     0.66071   0.76798   0.42836   0.00000  Uiso   1.00
H656   H     0.64121   0.80193   0.47250   0.00000  Uiso   1.00
H657   H     0.34611   0.87198   0.47547   0.00000  Uiso   1.00
H658   H     0.37518   0.91813   0.48408   0.00000  Uiso   1.00
H659   H     0.38816   0.86877   0.38474   0.00000  Uiso   1.00
H660   H     0.41623   0.91689   0.39169   0.00000  Uiso   1.00
H661   H     0.39321   0.82901   0.09586   0.00000  Uiso   1.00
H662   H     0.39088   0.76058   0.11256   0.00000  Uiso   1.00
H663   H     0.43495   0.75036   0.06967   0.00000  Uiso   1.00
H664   H     0.45833   0.99840   0.28428   0.00000  Uiso   1.00
H665   H     0.38298   0.75599   0.06380   0.00000  Uiso   1.00
H666   H     0.48131   0.83468   0.09899   0.00000  Uiso   1.00
H667   H     0.51850   0.83102   0.40197   0.00000  Uiso   1.00
H668   H     0.54233   0.78945   0.42643   0.00000  Uiso   1.00
H669   H     0.35411   0.85439   0.18124   0.00000  Uiso   1.00
H670   H     0.34941   0.89736   0.21425   0.00000  Uiso   1.00
H671   H     0.63657   0.76746   0.27763   0.00000  Uiso   1.00
N672   N     0.35744   0.86678   0.20910   0.00000  Uiso   1.00
N673   N     0.64571   0.79639   0.29061   0.00000  Uiso   1.00
N674   N     0.55023   0.67528   0.20798   0.00000  Uiso   1.00
N675   N     0.59328   0.76675   0.09967   0.00000  Uiso   1.00
N676   N     0.59410   0.75858   0.45444   0.00000  Uiso   1.00
N677   N     0.37132   0.88613   0.48700   0.00000  Uiso   1.00
N678   N     0.39835   0.89090   0.40539   0.00000  Uiso   1.00
N679   N     0.41805   0.81198   0.08012   0.00000  Uiso   1.00
O680   O     0.50000   0.83333   0.25000   0.00000  Uiso   1.00
O681   O     0.49027   0.79060   0.16625   0.00000  Uiso   1.00
O682   O     0.46020   0.87313   0.33749   0.00000  Uiso   1.00
O683   O     0.54421   0.84159   0.15877   0.00000  Uiso   1.00
O684   O     0.50532   0.82802   0.33749   0.00000  Uiso   1.00
O685   O     0.51182   0.74768   0.27820   0.00000  Uiso   1.00
O686   O     0.47914   0.92803   0.26767   0.00000  Uiso   1.00
O687   O     0.40785   0.79917   0.23607   0.00000  Uiso   1.00
O688   O     0.60119   0.85845   0.21805   0.00000  Uiso   1.00
O689   O     0.40323   0.85627   0.27820   0.00000  Uiso   1.00
O690   O     0.58773   0.81944   0.26767   0.00000  Uiso   1.00
O691   O     0.47133   0.73570   0.23607   0.00000  Uiso   1.00
O692   O     0.53771   0.92193   0.21805   0.00000  Uiso   1.00
Zn693  Zn    0.52577   0.80756   0.28277   0.00000  Uiso   1.00
Zn694  Zn    0.46792   0.79044   0.22257   0.00000  Uiso   1.00
Zn695  Zn    0.54500   0.86331   0.21188   0.00000  Uiso   1.00
Zn696  Zn    0.46131   0.87202   0.28277   0.00000  Uiso   1.00
C697   C     0.71951   0.82667   0.25854   0.00000  Uiso   1.00
C698   C     0.86608   0.79450   0.45826   0.00000  Uiso   1.00
C699   C     0.89109   0.77873   0.47746   0.00000  Uiso   1.00
C700   C     0.94774   0.84000   0.24121   0.00000  Uiso   1.00
C701   C     0.88104   0.78437   0.01897   0.00000  Uiso   1.00
C702   C     0.84419   0.80400   0.04098   0.00000  Uiso   1.00
C703   C     0.90739   0.77120   0.03896   0.00000  Uiso   1.00
C704   C     0.89967   0.78017   0.07993   0.00000  Uiso   1.00
C705   C     0.83851   0.81482   0.08178   0.00000  Uiso   1.00
C706   C     0.99363   0.84262   0.23825   0.00000  Uiso   1.00
C707   C     0.67407   0.82319   0.26289   0.00000  Uiso   1.00
C708   C     0.75792   0.87250   0.42298   0.00000  Uiso   1.00
C709   C     0.84825   0.98923   0.23745   0.00000  Uiso   1.00
C710   C     0.81877   0.67874   0.26197   0.00000  Uiso   1.00
C711   C     0.82210   0.72288   0.25941   0.00000  Uiso   1.00
C712   C     0.84368   0.94442   0.24112   0.00000  Uiso   1.00
C713   C     0.85518   0.81181   0.14396   0.00000  Uiso   1.00
C714   C     0.81133   0.85375   0.35647   0.00000  Uiso   1.00
C715   C     0.79684   0.85681   0.40036   0.00000  Uiso   1.00
C716   C     0.86513   0.80239   0.10116   0.00000  Uiso   1.00
C717   C     0.74350   0.86931   0.46394   0.00000  Uiso   1.00
C718   C     0.98942   0.79478   0.32728   0.00000  Uiso   1.00
C719   C     0.82101   0.83972   0.41962   0.00000  Uiso   1.00
C720   C     0.96376   0.79635   0.10174   0.00000  Uiso   1.00
C721   C     0.96721   0.78628   0.44502   0.00000  Uiso   1.00
C722   C     0.73950   0.76740   0.08143   0.00000  Uiso   1.00
C723   C     0.80608   0.83419   0.46021   0.00000  Uiso   1.00
C724   C     0.76682   0.84937   0.48236   0.00000  Uiso   1.00
C725   C     0.82960   0.81473   0.47948   0.00000  Uiso   1.00
C726   C     0.81563   0.81467   0.02131   0.00000  Uiso   1.00
C727   C     0.77329   0.82445   0.04168   0.00000  Uiso   1.00
C728   C     0.75048   0.84310   0.02243   0.00000  Uiso   1.00
H729   H     0.71887   0.85143   0.03895   0.00000  Uiso   1.00
H730   H     0.96228   0.77692   0.34761   0.00000  Uiso   1.00
H731   H     0.99448   0.82686   0.34190   0.00000  Uiso   1.00
H732   H     0.68540   0.77895   0.32163   0.00000  Uiso   1.00
H733   H     0.90064   0.98611   0.18830   0.00000  Uiso   1.00
H734   H     0.90485   0.69287   0.22262   0.00000  Uiso   1.00
H735   H     0.93504   0.73714   0.08910   0.00000  Uiso   1.00
H736   H     0.98606   0.79928   0.07163   0.00000  Uiso   1.00
H737   H     0.98085   0.78531   0.12052   0.00000  Uiso   1.00
H738   H     0.95403   0.82753   0.11508   0.00000  Uiso   1.00
H739   H     0.92232   0.74043   0.42965   0.00000  Uiso   1.00
H740   H     0.93458   0.75457   0.02293   0.00000  Uiso   1.00
H741   H     0.96498   0.81028   0.42648   0.00000  Uiso   1.00
H742   H     0.99404   0.76798   0.42836   0.00000  Uiso   1.00
H743   H     0.97454   0.80193   0.47250   0.00000  Uiso   1.00
H744   H     0.67944   0.87198   0.47547   0.00000  Uiso   1.00
H745   H     0.70851   0.91813   0.48408   0.00000  Uiso   1.00
H746   H     0.72150   0.86877   0.38474   0.00000  Uiso   1.00
H747   H     0.74956   0.91689   0.39169   0.00000  Uiso   1.00
H748   H     0.72655   0.82901   0.09586   0.00000  Uiso   1.00
H749   H     0.72421   0.76058   0.11256   0.00000  Uiso   1.00
H750   H     0.76828   0.75036   0.06967   0.00000  Uiso   1.00
H751   H     0.79166   0.99840   0.28428   0.00000  Uiso   1.00
H752   H     0.71632   0.75599   0.06380   0.00000  Uiso   1.00
H753   H     0.81464   0.83468   0.09899   0.00000  Uiso   1.00
H754   H     0.85183   0.83102   0.40197   0.00000  Uiso   1.00
H755   H     0.87566   0.78945   0.42643   0.00000  Uiso   1.00
H756   H     0.68744   0.85439   0.18124   0.00000  Uiso   1.00
H757   H     0.68274   0.89736   0.21425   0.00000  Uiso   1.00
H758   H     0.96990   0.76746   0.27763   0.00000  Uiso   1.00
N759   N     0.69077   0.86678   0.20910   0.00000  Uiso   1.00
N760   N     0.97905   0.79639   0.29061   0.00000  Uiso   1.00
N761   N     0.88356   0.67528   0.20798   0.00000  Uiso   1.00
N762   N     0.92661   0.76675   0.09967   0.00000  Uiso   1.00
N763   N     0.92743   0.75858   0.45444   0.00000  Uiso   1.00
N764   N     0.70465   0.88613   0.48700   0.00000  Uiso   1.00
N765   N     0.73169   0.89090   0.40539   0.00000  Uiso   1.00
N766   N     0.75138   0.81198   0.08012   0.00000  Uiso   1.00
O767   O     0.83333   0.83333   0.25000   0.00000  Uiso   1.00
O768   O     0.82360   0.79060   0.16625   0.00000  Uiso   1.00
O769   O     0.79354   0.87313   0.33749   0.00000  Uiso   1.00
O770   O     0.87755   0.84159   0.15877   0.00000  Uiso   1.00
O771   O     0.83865   0.82802   0.33749   0.00000  Uiso   1.00
O772   O     0.84515   0.74768   0.27820   0.00000  Uiso   1.00
O773   O     0.81247   0.92803   0.26767   0.00000  Uiso   1.00
O774   O     0.74119   0.79917   0.23607   0.00000  Uiso   1.00
O775   O     0.93452   0.85845   0.21805   0.00000  Uiso   1.00
O776   O     0.73656   0.85627   0.27820   0.00000  Uiso   1.00
O777   O     0.92106   0.81944   0.26767   0.00000  Uiso   1.00
O778   O     0.80467   0.73570   0.23607   0.00000  Uiso   1.00
O779   O     0.87104   0.92193   0.21805   0.00000  Uiso   1.00
Zn780  Zn    0.85910   0.80756   0.28277   0.00000  Uiso   1.00
Zn781  Zn    0.80125   0.79044   0.22257   0.00000  Uiso   1.00
Zn782  Zn    0.87833   0.86331   0.21188   0.00000  Uiso   1.00
Zn783  Zn    0.79465   0.87202   0.28277   0.00000  Uiso   1.00
C784   C     0.05284   0.16001   0.75854   0.00000  Uiso   1.00
C785   C     0.19941   0.12783   0.95826   0.00000  Uiso   1.00
C786   C     0.22443   0.11206   0.97746   0.00000  Uiso   1.00
C787   C     0.28107   0.17333   0.74121   0.00000  Uiso   1.00
C788   C     0.21437   0.11770   0.51897   0.00000  Uiso   1.00
C789   C     0.17752   0.13734   0.54098   0.00000  Uiso   1.00
C790   C     0.24073   0.10453   0.53896   0.00000  Uiso   1.00
C791   C     0.23300   0.11350   0.57993   0.00000  Uiso   1.00
C792   C     0.17185   0.14815   0.58178   0.00000  Uiso   1.00
C793   C     0.32697   0.17595   0.73825   0.00000  Uiso   1.00
C794   C     0.00740   0.15653   0.76289   0.00000  Uiso   1.00
C795   C     0.09126   0.20583   0.92298   0.00000  Uiso   1.00
C796   C     0.18158   0.32257   0.73745   0.00000  Uiso   1.00
C797   C     0.15210   0.01208   0.76197   0.00000  Uiso   1.00
C798   C     0.15543   0.05622   0.75941   0.00000  Uiso   1.00
C799   C     0.17701   0.27775   0.74112   0.00000  Uiso   1.00
C800   C     0.18851   0.14514   0.64396   0.00000  Uiso   1.00
C801   C     0.14466   0.18708   0.85647   0.00000  Uiso   1.00
C802   C     0.13017   0.19014   0.90036   0.00000  Uiso   1.00
C803   C     0.19847   0.13572   0.60116   0.00000  Uiso   1.00
C804   C     0.07683   0.20265   0.96394   0.00000  Uiso   1.00
C805   C     0.32275   0.12812   0.82728   0.00000  Uiso   1.00
C806   C     0.15435   0.17305   0.91962   0.00000  Uiso   1.00
C807   C     0.29710   0.12968   0.60174   0.00000  Uiso   1.00
C808   C     0.30054   0.11961   0.94502   0.00000  Uiso   1.00
C809   C     0.07283   0.10074   0.58143   0.00000  Uiso   1.00
C810   C     0.13942   0.16752   0.96021   0.00000  Uiso   1.00
C811   C     0.10015   0.18270   0.98236   0.00000  Uiso   1.00
C812   C     0.16294   0.14806   0.97948   0.00000  Uiso   1.00
C813   C     0.14897   0.14800   0.52131   0.00000  Uiso   1.00
C814   C     0.10662   0.15779   0.54168   0.00000  Uiso   1.00
C815   C     0.08381   0.17643   0.52243   0.00000  Uiso   1.00
H816   H     0.05221   0.18476   0.53895   0.00000  Uiso   1.00
H817   H     0.29562   0.11025   0.84761   0.00000  Uiso   1.00
H818   H     0.32781   0.16019   0.84190   0.00000  Uiso   1.00
H819   H     0.01874   0.11228   0.82163   0.00000  Uiso   1.00
H820   H     0.23398   0.31944   0.68830   0.00000  Uiso   1.00
H821   H     0.23818   0.02621   0.72262   0.00000  Uiso   1.00
H822   H     0.26837   0.07048   0.58910   0.00000  Uiso   1.00
H823   H     0.31939   0.13262   0.57163   0.00000  Uiso   1.00
H824   H     0.31419   0.11864   0.62052   0.00000  Uiso   1.00
H825   H     0.28736   0.16086   0.61508   0.00000  Uiso   1.00
H826   H     0.25565   0.07377   0.92965   0.00000  Uiso   1.00
H827   H     0.26791   0.08790   0.52293   0.00000  Uiso   1.00
H828   H     0.29831   0.14361   0.92648   0.00000  Uiso   1.00
H829   H     0.32738   0.10131   0.92836   0.00000  Uiso   1.00
H830   H     0.30788   0.13526   0.97250   0.00000  Uiso   1.00
H831   H     0.01277   0.20531   0.97547   0.00000  Uiso   1.00
H832   H     0.04184   0.25146   0.98408   0.00000  Uiso   1.00
H833   H     0.05483   0.20210   0.88474   0.00000  Uiso   1.00
H834   H     0.08290   0.25023   0.89169   0.00000  Uiso   1.00
H835   H     0.05988   0.16234   0.59586   0.00000  Uiso   1.00
H836   H     0.05754   0.09391   0.61256   0.00000  Uiso   1.00
H837   H     0.10161   0.08369   0.56967   0.00000  Uiso   1.00
H838   H     0.12499   0.33174   0.78428   0.00000  Uiso   1.00
H839   H     0.04965   0.08932   0.56380   0.00000  Uiso   1.00
H840   H     0.14797   0.16801   0.59899   0.00000  Uiso   1.00
H841   H     0.18516   0.16435   0.90197   0.00000  Uiso   1.00
H842   H     0.20899   0.12278   0.92643   0.00000  Uiso   1.00
H843   H     0.02078   0.18772   0.68124   0.00000  Uiso   1.00
H844   H     0.01608   0.23070   0.71425   0.00000  Uiso   1.00
H845   H     0.30323   0.10079   0.77763   0.00000  Uiso   1.00
N846   N     0.02411   0.20012   0.70910   0.00000  Uiso   1.00
N847   N     0.31238   0.12972   0.79061   0.00000  Uiso   1.00
N848   N     0.21689   0.00861   0.70798   0.00000  Uiso   1.00
N849   N     0.25995   0.10008   0.59967   0.00000  Uiso   1.00
N850   N     0.26076   0.09191   0.95444   0.00000  Uiso   1.00
N851   N     0.03799   0.21946   0.98700   0.00000  Uiso   1.00
N852   N     0.06502   0.22423   0.90539   0.00000  Uiso   1.00
N853   N     0.08472   0.14532   0.58012   0.00000  Uiso   1.00
O854   O     0.16667   0.16667   0.75000   0.00000  Uiso   1.00
O855   O     0.15693   0.12393   0.66625   0.00000  Uiso   1.00
O856   O     0.12687   0.20646   0.83749   0.00000  Uiso   1.00
O857   O     0.21088   0.17493   0.65877   0.00000  Uiso   1.00
O858   O     0.17198   0.16135   0.83749   0.00000  Uiso   1.00
O859   O     0.17849   0.08101   0.77820   0.00000  Uiso   1.00
O860   O     0.14581   0.26136   0.76767   0.00000  Uiso   1.00
O861   O     0.07452   0.13251   0.73607   0.00000  Uiso   1.00
O862   O     0.26785   0.19179   0.71805   0.00000  Uiso   1.00
O863   O     0.06990   0.18960   0.77820   0.00000  Uiso   1.00
O864   O     0.25440   0.15277   0.76767   0.00000  Uiso   1.00
O865   O     0.13800   0.06903   0.73607   0.00000  Uiso   1.00
O866   O     0.20437   0.25527   0.71805   0.00000  Uiso   1.00
Zn867  Zn    0.19244   0.14090   0.78277   0.00000  Uiso   1.00
Zn868  Zn    0.13459   0.12378   0.72257   0.00000  Uiso   1.00
Zn869  Zn    0.21166   0.19664   0.71188   0.00000  Uiso   1.00
Zn870  Zn    0.12798   0.20535   0.78277   0.00000  Uiso   1.00
C871   C     0.38617   0.16001   0.75854   0.00000  Uiso   1.00
C872   C     0.53275   0.12783   0.95826   0.00000  Uiso   1.00
C873   C     0.55776   0.11206   0.97746   0.00000  Uiso   1.00
C874   C     0.61440   0.17333   0.74121   0.00000  Uiso   1.00
C875   C     0.54771   0.11770   0.51897   0.00000  Uiso   1.00
C876   C     0.51086   0.13734   0.54098   0.00000  Uiso   1.00
C877   C     0.57406   0.10453   0.53896   0.00000  Uiso   1.00
C878   C     0.56633   0.11350   0.57993   0.00000  Uiso   1.00
C879   C     0.50518   0.14815   0.58178   0.00000  Uiso   1.00
C880   C     0.66030   0.17595   0.73825   0.00000  Uiso   1.00
C881   C     0.34074   0.15653   0.76289   0.00000  Uiso   1.00
C882   C     0.42459   0.20583   0.92298   0.00000  Uiso   1.00
C883   C     0.51492   0.32257   0.73745   0.00000  Uiso   1.00
C884   C     0.48543   0.01208   0.76197   0.00000  Uiso   1.00
C885   C     0.48876   0.05622   0.75941   0.00000  Uiso   1.00
C886   C     0.51035   0.27775   0.74112   0.00000  Uiso   1.00
C887   C     0.52185   0.14514   0.64396   0.00000  Uiso   1.00
C888   C     0.47799   0.18708   0.85647   0.00000  Uiso   1.00
C889   C     0.46351   0.19014   0.90036   0.00000  Uiso   1.00
C890   C     0.53180   0.13572   0.60116   0.00000  Uiso   1.00
C891   C     0.41017   0.20265   0.96394   0.00000  Uiso   1.00
C892   C     0.65608   0.12812   0.82728   0.00000  Uiso   1.00
C893   C     0.48768   0.17305   0.91962   0.00000  Uiso   1.00
C894   C     0.63043   0.12968   0.60174   0.00000  Uiso   1.00
C895   C     0.63387   0.11961   0.94502   0.00000  Uiso   1.00
C896   C     0.40617   0.10074   0.58143   0.00000  Uiso   1.00
C897   C     0.47275   0.16752   0.96021   0.00000  Uiso   1.00
C898   C     0.43349   0.18270   0.98236   0.00000  Uiso   1.00
C899   C     0.49627   0.14806   0.97948   0.00000  Uiso   1.00
C900   C     0.48230   0.14800   0.52131   0.00000  Uiso   1.00
C901   C     0.43996   0.15779   0.54168   0.00000  Uiso   1.00
C902   C     0.41714   0.17643   0.52243   0.00000  Uiso   1.00
H903   H     0.38554   0.18476   0.53895   0.00000  Uiso   1.00
H904   H     0.62895   0.11025   0.84761   0.00000  Uiso   1.00
H905   H     0.66114   0.16019   0.84190   0.00000  Uiso   1.00
H906   H     0.35207   0.11228   0.82163   0.00000  Uiso   1.00
H907   H     0.56731   0.31944   0.68830   0.00000  Uiso   1.00
H908   H     0.57152   0.02621   0.72262   0.00000  Uiso   1.00
H909   H     0.60171   0.07048   0.58910   0.00000  Uiso   1.00
H910   H     0.65272   0.13262   0.57163   0.00000  Uiso   1.00
H911   H     0.64752   0.11864   0.62052   0.00000  Uiso   1.00
H912   H     0.62069   0.16086   0.61508   0.00000  Uiso   1.00
H913   H     0.58899   0.07377   0.92965   0.00000  Uiso   1.00
H914   H     0.60125   0.08790   0.52293   0.00000  Uiso   1.00
H915   H     0.63164   0.14361   0.92648   0.00000  Uiso   1.00
H916   H     0.66071   0.10131   0.92836   0.00000  Uiso   1.00
H917   H     0.64121   0.13526   0.97250   0.00000  Uiso   1.00
H918   H     0.34611   0.20531   0.97547   0.00000  Uiso   1.00
H919   H     0.37518   0.25146   0.98408   0.00000  Uiso   1.00
H920   H     0.38816   0.20210   0.88474   0.00000  Uiso   1.00
H921   H     0.41623   0.25023   0.89169   0.00000  Uiso   1.00
H922   H     0.39321   0.16234   0.59586   0.00000  Uiso   1.00
H923   H     0.39088   0.09391   0.61256   0.00000  Uiso   1.00
H924   H     0.43495   0.08369   0.56967   0.00000  Uiso   1.00
H925   H     0.45833   0.33174   0.78428   0.00000  Uiso   1.00
H926   H     0.38298   0.08932   0.56380   0.00000  Uiso   1.00
H927   H     0.48131   0.16801   0.59899   0.00000  Uiso   1.00
H928   H     0.51850   0.16435   0.90197   0.00000  Uiso   1.00
H929   H     0.54233   0.12278   0.92643   0.00000  Uiso   1.00
H930   H     0.35411   0.18772   0.68124   0.00000  Uiso   1.00
H931   H     0.34941   0.23070   0.71425   0.00000  Uiso   1.00
H932   H     0.63657   0.10079   0.77763   0.00000  Uiso   1.00
N933   N     0.35744   0.20012   0.70910   0.00000  Uiso   1.00
N934   N     0.64571   0.12972   0.79061   0.00000  Uiso   1.00
N935   N     0.55023   0.00861   0.70798   0.00000  Uiso   1.00
N936   N     0.59328   0.10008   0.59967   0.00000  Uiso   1.00
N937   N     0.59410   0.09191   0.95444   0.00000  Uiso   1.00
N938   N     0.37132   0.21946   0.98700   0.00000  Uiso   1.00
N939   N     0.39835   0.22423   0.90539   0.00000  Uiso   1.00
N940   N     0.41805   0.14532   0.58012   0.00000  Uiso   1.00
O941   O     0.50000   0.16667   0.75000   0.00000  Uiso   1.00
O942   O     0.49027   0.12393   0.66625   0.00000  Uiso   1.00
O943   O     0.46020   0.20646   0.83749   0.00000  Uiso   1.00
O944   O     0.54421   0.17493   0.65877   0.00000  Uiso   1.00
O945   O     0.50532   0.16135   0.83749   0.00000  Uiso   1.00
O946   O     0.51182   0.08101   0.77820   0.00000  Uiso   1.00
O947   O     0.47914   0.26136   0.76767   0.00000  Uiso   1.00
O948   O     0.40785   0.13251   0.73607   0.00000  Uiso   1.00
O949   O     0.60119   0.19179   0.71805   0.00000  Uiso   1.00
O950   O     0.40323   0.18960   0.77820   0.00000  Uiso   1.00
O951   O     0.58773   0.15277   0.76767   0.00000  Uiso   1.00
O952   O     0.47133   0.06903   0.73607   0.00000  Uiso   1.00
O953   O     0.53771   0.25527   0.71805   0.00000  Uiso   1.00
Zn954  Zn    0.52577   0.14090   0.78277   0.00000  Uiso   1.00
Zn955  Zn    0.46792   0.12378   0.72257   0.00000  Uiso   1.00
Zn956  Zn    0.54500   0.19664   0.71188   0.00000  Uiso   1.00
Zn957  Zn    0.46131   0.20535   0.78277   0.00000  Uiso   1.00
C958   C     0.71951   0.16001   0.75854   0.00000  Uiso   1.00
C959   C     0.86608   0.12783   0.95826   0.00000  Uiso   1.00
C960   C     0.89109   0.11206   0.97746   0.00000  Uiso   1.00
C961   C     0.94774   0.17333   0.74121   0.00000  Uiso   1.00
C962   C     0.88104   0.11770   0.51897   0.00000  Uiso   1.00
C963   C     0.84419   0.13734   0.54098   0.00000  Uiso   1.00
C964   C     0.90739   0.10453   0.53896   0.00000  Uiso   1.00
C965   C     0.89967   0.11350   0.57993   0.00000  Uiso   1.00
C966   C     0.83851   0.14815   0.58178   0.00000  Uiso   1.00
C967   C     0.99363   0.17595   0.73825   0.00000  Uiso   1.00
C968   C     0.67407   0.15653   0.76289   0.00000  Uiso   1.00
C969   C     0.75792   0.20583   0.92298   0.00000  Uiso   1.00
C970   C     0.84825   0.32257   0.73745   0.00000  Uiso   1.00
C971   C     0.81877   0.01208   0.76197   0.00000  Uiso   1.00
C972   C     0.82210   0.05622   0.75941   0.00000  Uiso   1.00
C973   C     0.84368   0.27775   0.74112   0.00000  Uiso   1.00
C974   C     0.85518   0.14514   0.64396   0.00000  Uiso   1.00
C975   C     0.81133   0.18708   0.85647   0.00000  Uiso   1.00
C976   C     0.79684   0.19014   0.90036   0.00000  Uiso   1.00
C977   C     0.86513   0.13572   0.60116   0.00000  Uiso   1.00
C978   C     0.74350   0.20265   0.96394   0.00000  Uiso   1.00
C979   C     0.98942   0.12812   0.82728   0.00000  Uiso   1.00
C980   C     0.82101   0.17305   0.91962   0.00000  Uiso   1.00
C981   C     0.96376   0.12968   0.60174   0.00000  Uiso   1.00
C982   C     0.96721   0.11961   0.94502   0.00000  Uiso   1.00
C983   C     0.73950   0.10074   0.58143   0.00000  Uiso   1.00
C984   C     0.80608   0.16752   0.96021   0.00000  Uiso   1.00
C985   C     0.76682   0.18270   0.98236   0.00000  Uiso   1.00
C986   C     0.82960   0.14806   0.97948   0.00000  Uiso   1.00
C987   C     0.81563   0.14800   0.52131   0.00000  Uiso   1.00
C988   C     0.77329   0.15779   0.54168   0.00000  Uiso   1.00
C989   C     0.75048   0.17643   0.52243   0.00000  Uiso   1.00
H990   H     0.71887   0.18476   0.53895   0.00000  Uiso   1.00
H991   H     0.96228   0.11025   0.84761   0.00000  Uiso   1.00
H992   H     0.99448   0.16019   0.84190   0.00000  Uiso   1.00
H993   H     0.68540   0.11228   0.82163   0.00000  Uiso   1.00
H994   H     0.90064   0.31944   0.68830   0.00000  Uiso   1.00
H995   H     0.90485   0.02621   0.72262   0.00000  Uiso   1.00
H996   H     0.93504   0.07048   0.58910   0.00000  Uiso   1.00
H997   H     0.98606   0.13262   0.57163   0.00000  Uiso   1.00
H998   H     0.98085   0.11864   0.62052   0.00000  Uiso   1.00
H999   H     0.95403   0.16086   0.61508   0.00000  Uiso   1.00
H1000  H     0.92232   0.07377   0.92965   0.00000  Uiso   1.00
H1001  H     0.93458   0.08790   0.52293   0.00000  Uiso   1.00
H1002  H     0.96498   0.14361   0.92648   0.00000  Uiso   1.00
H1003  H     0.99404   0.10131   0.92836   0.00000  Uiso   1.00
H1004  H     0.97454   0.13526   0.97250   0.00000  Uiso   1.00
H1005  H     0.67944   0.20531   0.97547   0.00000  Uiso   1.00
H1006  H     0.70851   0.25146   0.98408   0.00000  Uiso   1.00
H1007  H     0.72150   0.20210   0.88474   0.00000  Uiso   1.00
H1008  H     0.74956   0.25023   0.89169   0.00000  Uiso   1.00
H1009  H     0.72655   0.16234   0.59586   0.00000  Uiso   1.00
H1010  H     0.72421   0.09391   0.61256   0.00000  Uiso   1.00
H1011  H     0.76828   0.08369   0.56967   0.00000  Uiso   1.00
H1012  H     0.79166   0.33174   0.78428   0.00000  Uiso   1.00
H1013  H     0.71632   0.08932   0.56380   0.00000  Uiso   1.00
H1014  H     0.81464   0.16801   0.59899   0.00000  Uiso   1.00
H1015  H     0.85183   0.16435   0.90197   0.00000  Uiso   1.00
H1016  H     0.87566   0.12278   0.92643   0.00000  Uiso   1.00
H1017  H     0.68744   0.18772   0.68124   0.00000  Uiso   1.00
H1018  H     0.68274   0.23070   0.71425   0.00000  Uiso   1.00
H1019  H     0.96990   0.10079   0.77763   0.00000  Uiso   1.00
N1020  N     0.69077   0.20012   0.70910   0.00000  Uiso   1.00
N1021  N     0.97905   0.12972   0.79061   0.00000  Uiso   1.00
N1022  N     0.88356   0.00861   0.70798   0.00000  Uiso   1.00
N1023  N     0.92661   0.10008   0.59967   0.00000  Uiso   1.00
N1024  N     0.92743   0.09191   0.95444   0.00000  Uiso   1.00
N1025  N     0.70465   0.21946   0.98700   0.00000  Uiso   1.00
N1026  N     0.73169   0.22423   0.90539   0.00000  Uiso   1.00
N1027  N     0.75138   0.14532   0.58012   0.00000  Uiso   1.00
O1028  O     0.83333   0.16667   0.75000   0.00000  Uiso   1.00
O1029  O     0.82360   0.12393   0.66625   0.00000  Uiso   1.00
O1030  O     0.79354   0.20646   0.83749   0.00000  Uiso   1.00
O1031  O     0.87755   0.17493   0.65877   0.00000  Uiso   1.00
O1032  O     0.83865   0.16135   0.83749   0.00000  Uiso   1.00
O1033  O     0.84515   0.08101   0.77820   0.00000  Uiso   1.00
O1034  O     0.81247   0.26136   0.76767   0.00000  Uiso   1.00
O1035  O     0.74119   0.13251   0.73607   0.00000  Uiso   1.00
O1036  O     0.93452   0.19179   0.71805   0.00000  Uiso   1.00
O1037  O     0.73656   0.18960   0.77820   0.00000  Uiso   1.00
O1038  O     0.92106   0.15277   0.76767   0.00000  Uiso   1.00
O1039  O     0.80467   0.06903   0.73607   0.00000  Uiso   1.00
O1040  O     0.87104   0.25527   0.71805   0.00000  Uiso   1.00
Zn1041 Zn    0.85910   0.14090   0.78277   0.00000  Uiso   1.00
Zn1042 Zn    0.80125   0.12378   0.72257   0.00000  Uiso   1.00
Zn1043 Zn    0.87833   0.19664   0.71188   0.00000  Uiso   1.00
Zn1044 Zn    0.79465   0.20535   0.78277   0.00000  Uiso   1.00
C1045  C     0.05284   0.49334   0.75854   0.00000  Uiso   1.00
C1046  C     0.19941   0.46117   0.95826   0.00000  Uiso   1.00
C1047  C     0.22443   0.44539   0.97746   0.00000  Uiso   1.00
C1048  C     0.28107   0.50666   0.74121   0.00000  Uiso   1.00
C1049  C     0.21437   0.45103   0.51897   0.00000  Uiso   1.00
C1050  C     0.17752   0.47067   0.54098   0.00000  Uiso   1.00
C1051  C     0.24073   0.43786   0.53896   0.00000  Uiso   1.00
C1052  C     0.23300   0.44683   0.57993   0.00000  Uiso   1.00
C1053  C     0.17185   0.48148   0.58178   0.00000  Uiso   1.00
C1054  C     0.32697   0.50929   0.73825   0.00000  Uiso   1.00
C1055  C     0.00740   0.48986   0.76289   0.00000  Uiso   1.00
C1056  C     0.09126   0.53916   0.92298   0.00000  Uiso   1.00
C1057  C     0.18158   0.65590   0.73745   0.00000  Uiso   1.00
C1058  C     0.15210   0.34541   0.76197   0.00000  Uiso   1.00
C1059  C     0.15543   0.38955   0.75941   0.00000  Uiso   1.00
C1060  C     0.17701   0.61109   0.74112   0.00000  Uiso   1.00
C1061  C     0.18851   0.47847   0.64396   0.00000  Uiso   1.00
C1062  C     0.14466   0.52042   0.85647   0.00000  Uiso   1.00
C1063  C     0.13017   0.52348   0.90036   0.00000  Uiso   1.00
C1064  C     0.19847   0.46906   0.60116   0.00000  Uiso   1.00
C1065  C     0.07683   0.53598   0.96394   0.00000  Uiso   1.00
C1066  C     0.32275   0.46145   0.82728   0.00000  Uiso   1.00
C1067  C     0.15435   0.50639   0.91962   0.00000  Uiso   1.00
C1068  C     0.29710   0.46301   0.60174   0.00000  Uiso   1.00
C1069  C     0.30054   0.45294   0.94502   0.00000  Uiso   1.00
C1070  C     0.07283   0.43407   0.58143   0.00000  Uiso   1.00
C1071  C     0.13942   0.50085   0.96021   0.00000  Uiso   1.00
C1072  C     0.10015   0.51603   0.98236   0.00000  Uiso   1.00
C1073  C     0.16294   0.48140   0.97948   0.00000  Uiso   1.00
C1074  C     0.14897   0.48133   0.52131   0.00000  Uiso   1.00
C1075  C     0.10662   0.49112   0.54168   0.00000  Uiso   1.00
C1076  C     0.08381   0.50976   0.52243   0.00000  Uiso   1.00
H1077  H     0.05221   0.51809   0.53895   0.00000  Uiso   1.00
H1078  H     0.29562   0.44359   0.84761   0.00000  Uiso   1.00
H1079  H     0.32781   0.49353   0.84190   0.00000  Uiso   1.00
H1080  H     0.01874   0.44562   0.82163   0.00000  Uiso   1.00
H1081  H     0.23398   0.65278   0.68830   0.00000  Uiso   1.00
H1082  H     0.23818   0.35954   0.72262   0.00000  Uiso   1.00
H1083  H     0.26837   0.40381   0.58910   0.00000  Uiso   1.00
H1084  H     0.31939   0.46595   0.57163   0.00000  Uiso   1.00
H1085  H     0.31419   0.45197   0.62052   0.00000  Uiso   1.00
H1086  H     0.28736   0.49420   0.61508   0.00000  Uiso   1.00
H1087  H     0.25565   0.40710   0.92965   0.00000  Uiso   1.00
H1088  H     0.26791   0.42123   0.52293   0.00000  Uiso   1.00
H1089  H     0.29831   0.47694   0.92648   0.00000  Uiso   1.00
H1090  H     0.32738   0.43464   0.92836   0.00000  Uiso   1.00
H1091  H     0.30788   0.46860   0.97250   0.00000  Uiso   1.00
H1092  H     0.01277   0.53865   0.97547   0.00000  Uiso   1.00
H1093  H     0.04184   0.58479   0.98408   0.00000  Uiso   1.00
H1094  H     0.05483   0.53543   0.88474   0.00000  Uiso   1.00
H1095  H     0.08290   0.58356   0.89169   0.00000  Uiso   1.00
H1096  H     0.05988   0.49567   0.59586   0.00000  Uiso   1.00
H1097  H     0.05754   0.42725   0.61256   0.00000  Uiso   1.00
H1098  H     0.10161   0.41703   0.56967   0.00000  Uiso   1.00
H1099  H     0.12499   0.66507   0.78428   0.00000  Uiso   1.00
H1100  H     0.04965   0.42265   0.56380   0.00000  Uiso   1.00
H1101  H     0.14797   0.50135   0.59899   0.00000  Uiso   1.00
H1102  H     0.18516   0.49768   0.90197   0.00000  Uiso   1.00
H1103  H     0.20899   0.45611   0.92643   0.00000  Uiso   1.00
H1104  H     0.02078   0.52106   0.68124   0.00000  Uiso   1.00
H1105  H     0.01608   0.56403   0.71425   0.00000  Uiso   1.00
H1106  H     0.30323   0.43412   0.77763   0.00000  Uiso   1.00
N1107  N     0.02411   0.53345   0.70910   0.00000  Uiso   1.00
N1108  N     0.31238   0.46305   0.79061   0.00000  Uiso   1.00
N1109  N     0.21689   0.34194   0.70798   0.00000  Uiso   1.00
N1110  N     0.25995   0.43342   0.59967   0.00000  Uiso   1.00
N1111  N     0.26076   0.42525   0.95444   0.00000  Uiso   1.00
N1112  N     0.03799   0.55279   0.98700   0.00000  Uiso   1.00
N1113  N     0.06502   0.55757   0.90539   0.00000  Uiso   1.00
N1114  N     0.08472   0.47865   0.58012   0.00000  Uiso   1.00
O1115  O     0.16667   0.50000   0.75000   0.00000  Uiso   1.00
O1116  O     0.15693   0.45726   0.66625   0.00000  Uiso   1.00
O1117  O     0.12687   0.53979   0.83749   0.00000  Uiso   1.00
O1118  O     0.21088   0.50826   0.65877   0.00000  Uiso   1.00
O1119  O     0.17198   0.49468   0.83749   0.00000  Uiso   1.00
O1120  O     0.17849   0.41434   0.77820   0.00000  Uiso   1.00
O1121  O     0.14581   0.59469   0.76767   0.00000  Uiso   1.00
O1122  O     0.07452   0.46584   0.73607   0.00000  Uiso   1.00
O1123  O     0.26785   0.52512   0.71805   0.00000  Uiso   1.00
O1124  O     0.06990   0.52293   0.77820   0.00000  Uiso   1.00
O1125  O     0.25440   0.48610   0.76767   0.00000  Uiso   1.00
O1126  O     0.13800   0.40236   0.73607   0.00000  Uiso   1.00
O1127  O     0.20437   0.58860   0.71805   0.00000  Uiso   1.00
Zn1128 Zn    0.19244   0.47423   0.78277   0.00000  Uiso   1.00
Zn1129 Zn    0.13459   0.45711   0.72257   0.00000  Uiso   1.00
Zn1130 Zn    0.21166   0.52997   0.71188   0.00000  Uiso   1.00
Zn1131 Zn    0.12798   0.53868   0.78277   0.00000  Uiso   1.00
C1132  C     0.38617   0.49334   0.75854   0.00000  Uiso   1.00
C1133  C     0.53275   0.46117   0.95826   0.00000  Uiso   1.00
C1134  C     0.55776   0.44539   0.97746   0.00000  Uiso   1.00
C1135  C     0.61440   0.50666   0.74121   0.00000  Uiso   1.00
C1136  C     0.54771   0.45103   0.51897   0.00000  Uiso   1.00
C1137  C     0.51086   0.47067   0.54098   0.00000  Uiso   1.00
C1138  C     0.57406   0.43786   0.53896   0.00000  Uiso   1.00
C1139  C     0.56633   0.44683   0.57993   0.00000  Uiso   1.00
C1140  C     0.50518   0.48148   0.58178   0.00000  Uiso   1.00
C1141  C     0.66030   0.50929   0.73825   0.00000  Uiso   1.00
C1142  C     0.34074   0.48986   0.76289   0.00000  Uiso   1.00
C1143  C     0.42459   0.53916   0.92298   0.00000  Uiso   1.00
C1144  C     0.51492   0.65590   0.73745   0.00000  Uiso   1.00
C1145  C     0.48543   0.34541   0.76197   0.00000  Uiso   1.00
C1146  C     0.48876   0.38955   0.75941   0.00000  Uiso   1.00
C1147  C     0.51035   0.61109   0.74112   0.00000  Uiso   1.00
C1148  C     0.52185   0.47847   0.64396   0.00000  Uiso   1.00
C1149  C     0.47799   0.52042   0.85647   0.00000  Uiso   1.00
C1150  C     0.46351   0.52348   0.90036   0.00000  Uiso   1.00
C1151  C     0.53180   0.46906   0.60116   0.00000  Uiso   1.00
C1152  C     0.41017   0.53598   0.96394   0.00000  Uiso   1.00
C1153  C     0.65608   0.46145   0.82728   0.00000  Uiso   1.00
C1154  C     0.48768   0.50639   0.91962   0.00000  Uiso   1.00
C1155  C     0.63043   0.46301   0.60174   0.00000  Uiso   1.00
C1156  C     0.63387   0.45294   0.94502   0.00000  Uiso   1.00
C1157  C     0.40617   0.43407   0.58143   0.00000  Uiso   1.00
C1158  C     0.47275   0.50085   0.96021   0.00000  Uiso   1.00
C1159  C     0.43349   0.51603   0.98236   0.00000  Uiso   1.00
C1160  C     0.49627   0.48140   0.97948   0.00000  Uiso   1.00
C1161  C     0.48230   0.48133   0.52131   0.00000  Uiso   1.00
C1162  C     0.43996   0.49112   0.54168   0.00000  Uiso   1.00
C1163  C     0.41714   0.50976   0.52243   0.00000  Uiso   1.00
H1164  H     0.38554   0.51809   0.53895   0.00000  Uiso   1.00
H1165  H     0.62895   0.44359   0.84761   0.00000  Uiso   1.00
H1166  H     0.66114   0.49353   0.84190   0.00000  Uiso   1.00
H1167  H     0.35207   0.44562   0.82163   0.00000  Uiso   1.00
H1168  H     0.56731   0.65278   0.68830   0.00000  Uiso   1.00
H1169  H     0.57152   0.35954   0.72262   0.00000  Uiso   1.00
H1170  H     0.60171   0.40381   0.58910   0.00000  Uiso   1.00
H1171  H     0.65272   0.46595   0.57163   0.00000  Uiso   1.00
H1172  H     0.64752   0.45197   0.62052   0.00000  Uiso   1.00
H1173  H     0.62069   0.49420   0.61508   0.00000  Uiso   1.00
H1174  H     0.58899   0.40710   0.92965   0.00000  Uiso   1.00
H1175  H     0.60125   0.42123   0.52293   0.00000  Uiso   1.00
H1176  H     0.63164   0.47694   0.92648   0.00000  Uiso   1.00
H1177  H     0.66071   0.43464   0.92836   0.00000  Uiso   1.00
H1178  H     0.64121   0.46860   0.97250   0.00000  Uiso   1.00
H1179  H     0.34611   0.53865   0.97547   0.00000  Uiso   1.00
H1180  H     0.37518   0.58479   0.98408   0.00000  Uiso   1.00
H1181  H     0.38816   0.53543   0.88474   0.00000  Uiso   1.00
H1182  H     0.41623   0.58356   0.89169   0.00000  Uiso   1.00
H1183  H     0.39321   0.49567   0.59586   0.00000  Uiso   1.00
H1184  H     0.39088   0.42725   0.61256   0.00000  Uiso   1.00
H1185  H     0.43495   0.41703   0.56967   0.00000  Uiso   1.00
H1186  H     0.45833   0.66507   0.78428   0.00000  Uiso   1.00
H1187  H     0.38298   0.42265   0.56380   0.00000  Uiso   1.00
H1188  H     0.48131   0.50135   0.59899   0.00000  Uiso   1.00
H1189  H     0.51850   0.49768   0.90197   0.00000  Uiso   1.00
H1190  H     0.54233   0.45611   0.92643   0.00000  Uiso   1.00
H1191  H     0.35411   0.52106   0.68124   0.00000  Uiso   1.00
H1192  H     0.34941   0.56403   0.71425   0.00000  Uiso   1.00
H1193  H     0.63657   0.43412   0.77763   0.00000  Uiso   1.00
N1194  N     0.35744   0.53345   0.70910   0.00000  Uiso   1.00
N1195  N     0.64571   0.46305   0.79061   0.00000  Uiso   1.00
N1196  N     0.55023   0.34194   0.70798   0.00000  Uiso   1.00
N1197  N     0.59328   0.43342   0.59967   0.00000  Uiso   1.00
N1198  N     0.59410   0.42525   0.95444   0.00000  Uiso   1.00
N1199  N     0.37132   0.55279   0.98700   0.00000  Uiso   1.00
N1200  N     0.39835   0.55757   0.90539   0.00000  Uiso   1.00
N1201  N     0.41805   0.47865   0.58012   0.00000  Uiso   1.00
O1202  O     0.50000   0.50000   0.75000   0.00000  Uiso   1.00
O1203  O     0.49027   0.45726   0.66625   0.00000  Uiso   1.00
O1204  O     0.46020   0.53979   0.83749   0.00000  Uiso   1.00
O1205  O     0.54421   0.50826   0.65877   0.00000  Uiso   1.00
O1206  O     0.50532   0.49468   0.83749   0.00000  Uiso   1.00
O1207  O     0.51182   0.41434   0.77820   0.00000  Uiso   1.00
O1208  O     0.47914   0.59469   0.76767   0.00000  Uiso   1.00
O1209  O     0.40785   0.46584   0.73607   0.00000  Uiso   1.00
O1210  O     0.60119   0.52512   0.71805   0.00000  Uiso   1.00
O1211  O     0.40323   0.52293   0.77820   0.00000  Uiso   1.00
O1212  O     0.58773   0.48610   0.76767   0.00000  Uiso   1.00
O1213  O     0.47133   0.40236   0.73607   0.00000  Uiso   1.00
O1214  O     0.53771   0.58860   0.71805   0.00000  Uiso   1.00
Zn1215 Zn    0.52577   0.47423   0.78277   0.00000  Uiso   1.00
Zn1216 Zn    0.46792   0.45711   0.72257   0.00000  Uiso   1.00
Zn1217 Zn    0.54500   0.52997   0.71188   0.00000  Uiso   1.00
Zn1218 Zn    0.46131   0.53868   0.78277   0.00000  Uiso   1.00
C1219  C     0.71951   0.49334   0.75854   0.00000  Uiso   1.00
C1220  C     0.86608   0.46117   0.95826   0.00000  Uiso   1.00
C1221  C     0.89109   0.44539   0.97746   0.00000  Uiso   1.00
C1222  C     0.94774   0.50666   0.74121   0.00000  Uiso   1.00
C1223  C     0.88104   0.45103   0.51897   0.00000  Uiso   1.00
C1224  C     0.84419   0.47067   0.54098   0.00000  Uiso   1.00
C1225  C     0.90739   0.43786   0.53896   0.00000  Uiso   1.00
C1226  C     0.89967   0.44683   0.57993   0.00000  Uiso   1.00
C1227  C     0.83851   0.48148   0.58178   0.00000  Uiso   1.00
C1228  C     0.99363   0.50929   0.73825   0.00000  Uiso   1.00
C1229  C     0.67407   0.48986   0.76289   0.00000  Uiso   1.00
C1230  C     0.75792   0.53916   0.92298   0.00000  Uiso   1.00
C1231  C     0.84825   0.65590   0.73745   0.00000  Uiso   1.00
C1232  C     0.81877   0.34541   0.76197   0.00000  Uiso   1.00
C1233  C     0.82210   0.38955   0.75941   0.00000  Uiso   1.00
C1234  C     0.84368   0.61109   0.74112   0.00000  Uiso   1.00
C1235  C     0.85518   0.47847   0.64396   0.00000  Uiso   1.00
C1236  C     0.81133   0.52042   0.85647   0.00000  Uiso   1.00
C1237  C     0.79684   0.52348   0.90036   0.00000  Uiso   1.00
C1238  C     0.86513   0.46906   0.60116   0.00000  Uiso   1.00
C1239  C     0.74350   0.53598   0.96394   0.00000  Uiso   1.00
C1240  C     0.98942   0.46145   0.82728   0.00000  Uiso   1.00
C1241  C     0.82101   0.50639   0.91962   0.00000  Uiso   1.00
C1242  C     0.96376   0.46301   0.60174   0.00000  Uiso   1.00
C1243  C     0.96721   0.45294   0.94502   0.00000  Uiso   1.00
C1244  C     0.73950   0.43407   0.58143   0.00000  Uiso   1.00
C1245  C     0.80608   0.50085   0.96021   0.00000  Uiso   1.00
C1246  C     0.76682   0.51603   0.98236   0.00000  Uiso   1.00
C1247  C     0.82960   0.48140   0.97948   0.00000  Uiso   1.00
C1248  C     0.81563   0.48133   0.52131   0.00000  Uiso   1.00
C1249  C     0.77329   0.49112   0.54168   0.00000  Uiso   1.00
C1250  C     0.75048   0.50976   0.52243   0.00000  Uiso   1.00
H1251  H     0.71887   0.51809   0.53895   0.00000  Uiso   1.00
H1252  H     0.96228   0.44359   0.84761   0.00000  Uiso   1.00
H1253  H     0.99448   0.49353   0.84190   0.00000  Uiso   1.00
H1254  H     0.68540   0.44562   0.82163   0.00000  Uiso   1.00
H1255  H     0.90064   0.65278   0.68830   0.00000  Uiso   1.00
H1256  H     0.90485   0.35954   0.72262   0.00000  Uiso   1.00
H1257  H     0.93504   0.40381   0.58910   0.00000  Uiso   1.00
H1258  H     0.98606   0.46595   0.57163   0.00000  Uiso   1.00
H1259  H     0.98085   0.45197   0.62052   0.00000  Uiso   1.00
H1260  H     0.95403   0.49420   0.61508   0.00000  Uiso   1.00
H1261  H     0.92232   0.40710   0.92965   0.00000  Uiso   1.00
H1262  H     0.93458   0.42123   0.52293   0.00000  Uiso   1.00
H1263  H     0.96498   0.47694   0.92648   0.00000  Uiso   1.00
H1264  H     0.99404   0.43464   0.92836   0.00000  Uiso   1.00
H1265  H     0.97454   0.46860   0.97250   0.00000  Uiso   1.00
H1266  H     0.67944   0.53865   0.97547   0.00000  Uiso   1.00
H1267  H     0.70851   0.58479   0.98408   0.00000  Uiso   1.00
H1268  H     0.72150   0.53543   0.88474   0.00000  Uiso   1.00
H1269  H     0.74956   0.58356   0.89169   0.00000  Uiso   1.00
H1270  H     0.72655   0.49567   0.59586   0.00000  Uiso   1.00
H1271  H     0.72421   0.42725   0.61256   0.00000  Uiso   1.00
H1272  H     0.76828   0.41703   0.56967   0.00000  Uiso   1.00
H1273  H     0.79166   0.66507   0.78428   0.00000  Uiso   1.00
H1274  H     0.71632   0.42265   0.56380   0.00000  Uiso   1.00
H1275  H     0.81464   0.50135   0.59899   0.00000  Uiso   1.00
H1276  H     0.85183   0.49768   0.90197   0.00000  Uiso   1.00
H1277  H     0.87566   0.45611   0.92643   0.00000  Uiso   1.00
H1278  H     0.68744   0.52106   0.68124   0.00000  Uiso   1.00
H1279  H     0.68274   0.56403   0.71425   0.00000  Uiso   1.00
H1280  H     0.96990   0.43412   0.77763   0.00000  Uiso   1.00
N1281  N     0.69077   0.53345   0.70910   0.00000  Uiso   1.00
N1282  N     0.97905   0.46305   0.79061   0.00000  Uiso   1.00
N1283  N     0.88356   0.34194   0.70798   0.00000  Uiso   1.00
N1284  N     0.92661   0.43342   0.59967   0.00000  Uiso   1.00
N1285  N     0.92743   0.42525   0.95444   0.00000  Uiso   1.00
N1286  N     0.70465   0.55279   0.98700   0.00000  Uiso   1.00
N1287  N     0.73169   0.55757   0.90539   0.00000  Uiso   1.00
N1288  N     0.75138   0.47865   0.58012   0.00000  Uiso   1.00
O1289  O     0.83333   0.50000   0.75000   0.00000  Uiso   1.00
O1290  O     0.82360   0.45726   0.66625   0.00000  Uiso   1.00
O1291  O     0.79354   0.53979   0.83749   0.00000  Uiso   1.00
O1292  O     0.87755   0.50826   0.65877   0.00000  Uiso   1.00
O1293  O     0.83865   0.49468   0.83749   0.00000  Uiso   1.00
O1294  O     0.84515   0.41434   0.77820   0.00000  Uiso   1.00
O1295  O     0.81247   0.59469   0.76767   0.00000  Uiso   1.00
O1296  O     0.74119   0.46584   0.73607   0.00000  Uiso   1.00
O1297  O     0.93452   0.52512   0.71805   0.00000  Uiso   1.00
O1298  O     0.73656   0.52293   0.77820   0.00000  Uiso   1.00
O1299  O     0.92106   0.48610   0.76767   0.00000  Uiso   1.00
O1300  O     0.80467   0.40236   0.73607   0.00000  Uiso   1.00
O1301  O     0.87104   0.58860   0.71805   0.00000  Uiso   1.00
Zn1302 Zn    0.85910   0.47423   0.78277   0.00000  Uiso   1.00
Zn1303 Zn    0.80125   0.45711   0.72257   0.00000  Uiso   1.00
Zn1304 Zn    0.87833   0.52997   0.71188   0.00000  Uiso   1.00
Zn1305 Zn    0.79465   0.53868   0.78277   0.00000  Uiso   1.00
C1306  C     0.05284   0.82667   0.75854   0.00000  Uiso   1.00
C1307  C     0.19941   0.79450   0.95826   0.00000  Uiso   1.00
C1308  C     0.22443   0.77873   0.97746   0.00000  Uiso   1.00
C1309  C     0.28107   0.84000   0.74121   0.00000  Uiso   1.00
C1310  C     0.21437   0.78437   0.51897   0.00000  Uiso   1.00
C1311  C     0.17752   0.80400   0.54098   0.00000  Uiso   1.00
C1312  C     0.24073   0.77120   0.53896   0.00000  Uiso   1.00
C1313  C     0.23300   0.78017   0.57993   0.00000  Uiso   1.00
C1314  C     0.17185   0.81482   0.58178   0.00000  Uiso   1.00
C1315  C     0.32697   0.84262   0.73825   0.00000  Uiso   1.00
C1316  C     0.00740   0.82319   0.76289   0.00000  Uiso   1.00
C1317  C     0.09126   0.87250   0.92298   0.00000  Uiso   1.00
C1318  C     0.18158   0.98923   0.73745   0.00000  Uiso   1.00
C1319  C     0.15210   0.67874   0.76197   0.00000  Uiso   1.00
C1320  C     0.15543   0.72288   0.75941   0.00000  Uiso   1.00
C1321  C     0.17701   0.94442   0.74112   0.00000  Uiso   1.00
C1322  C     0.18851   0.81181   0.64396   0.00000  Uiso   1.00
C1323  C     0.14466   0.85375   0.85647   0.00000  Uiso   1.00
C1324  C     0.13017   0.85681   0.90036   0.00000  Uiso   1.00
C1325  C     0.19847   0.80239   0.60116   0.00000  Uiso   1.00
C1326  C     0.07683   0.86931   0.96394   0.00000  Uiso   1.00
C1327  C     0.32275   0.79478   0.82728   0.00000  Uiso   1.00
C1328  C     0.15435   0.83972   0.91962   0.00000  Uiso   1.00
C1329  C     0.29710   0.79635   0.60174   0.00000  Uiso   1.00
C1330  C     0.30054   0.78628   0.94502   0.00000  Uiso   1.00
C1331  C     0.07283   0.76740   0.58143   0.00000  Uiso   1.00
C1332  C     0.13942   0.83419   0.96021   0.00000  Uiso   1.00
C1333  C     0.10015   0.84937   0.98236   0.00000  Uiso   1.00
C1334  C     0.16294   0.81473   0.97948   0.00000  Uiso   1.00
C1335  C     0.14897   0.81467   0.52131   0.00000  Uiso   1.00
C1336  C     0.10662   0.82445   0.54168   0.00000  Uiso   1.00
C1337  C     0.08381   0.84310   0.52243   0.00000  Uiso   1.00
H1338  H     0.05221   0.85143   0.53895   0.00000  Uiso   1.00
H1339  H     0.29562   0.77692   0.84761   0.00000  Uiso   1.00
H1340  H     0.32781   0.82686   0.84190   0.00000  Uiso   1.00
H1341  H     0.01874   0.77895   0.82163   0.00000  Uiso   1.00
H1342  H     0.23398   0.98611   0.68830   0.00000  Uiso   1.00
H1343  H     0.23818   0.69287   0.72262   0.00000  Uiso   1.00
H1344  H     0.26837   0.73714   0.58910   0.00000  Uiso   1.00
H1345  H     0.31939   0.79928   0.57163   0.00000  Uiso   1.00
H1346  H     0.31419   0.78531   0.62052   0.00000  Uiso   1.00
H1347  H     0.28736   0.82753   0.61508   0.00000  Uiso   1.00
H1348  H     0.25565   0.74043   0.92965   0.00000  Uiso   1.00
H1349  H     0.26791   0.75457   0.52293   0.00000  Uiso   1.00
H1350  H     0.29831   0.81028   0.92648   0.00000  Uiso   1.00
H1351  H     0.32738   0.76798   0.92836   0.00000  Uiso   1.00
H1352  H     0.30788   0.80193   0.97250   0.00000  Uiso   1.00
H1353  H     0.01277   0.87198   0.97547   0.00000  Uiso   1.00
H1354  H     0.04184   0.91813   0.98408   0.00000  Uiso   1.00
H1355  H     0.05483   0.86877   0.88474   0.00000  Uiso   1.00
H1356  H     0.08290   0.91689   0.89169   0.00000  Uiso   1.00
H1357  H     0.05988   0.82901   0.59586   0.00000  Uiso   1.00
H1358  H     0.05754   0.76058   0.61256   0.00000  Uiso   1.00
H1359  H     0.10161   0.75036   0.56967   0.00000  Uiso   1.00
H1360  H     0.12499   0.99840   0.78428   0.00000  Uiso   1.00
H1361  H     0.04965   0.75599   0.56380   0.00000  Uiso   1.00
H1362  H     0.14797   0.83468   0.59899   0.00000  Uiso   1.00
H1363  H     0.18516   0.83102   0.90197   0.00000  Uiso   1.00
H1364  H     0.20899   0.78945   0.92643   0.00000  Uiso   1.00
H1365  H     0.02078   0.85439   0.68124   0.00000  Uiso   1.00
H1366  H     0.01608   0.89736   0.71425   0.00000  Uiso   1.00
H1367  H     0.30323   0.76746   0.77763   0.00000  Uiso   1.00
N1368  N     0.02411   0.86678   0.70910   0.00000  Uiso   1.00
N1369  N     0.31238   0.79639   0.79061   0.00000  Uiso   1.00
N1370  N     0.21689   0.67528   0.70798   0.00000  Uiso   1.00
N1371  N     0.25995   0.76675   0.59967   0.00000  Uiso   1.00
N1372  N     0.26076   0.75858   0.95444   0.00000  Uiso   1.00
N1373  N     0.03799   0.88613   0.98700   0.00000  Uiso   1.00
N1374  N     0.06502   0.89090   0.90539   0.00000  Uiso   1.00
N1375  N     0.08472   0.81198   0.58012   0.00000  Uiso   1.00
O1376  O     0.16667   0.83333   0.75000   0.00000  Uiso   1.00
O1377  O     0.15693   0.79060   0.66625   0.00000  Uiso   1.00
O1378  O     0.12687   0.87313   0.83749   0.00000  Uiso   1.00
O1379  O     0.21088   0.84159   0.65877   0.00000  Uiso   1.00
O1380  O     0.17198   0.82802   0.83749   0.00000  Uiso   1.00
O1381  O     0.17849   0.74768   0.77820   0.00000  Uiso   1.00
O1382  O     0.14581   0.92803   0.76767   0.00000  Uiso   1.00
O1383  O     0.07452   0.79917   0.73607   0.00000  Uiso   1.00
O1384  O     0.26785   0.85845   0.71805   0.00000  Uiso   1.00
O1385  O     0.06990   0.85627   0.77820   0.00000  Uiso   1.00
O1386  O     0.25440   0.81944   0.76767   0.00000  Uiso   1.00
O1387  O     0.13800   0.73570   0.73607   0.00000  Uiso   1.00
O1388  O     0.20437   0.92193   0.71805   0.00000  Uiso   1.00
Zn1389 Zn    0.19244   0.80756   0.78277   0.00000  Uiso   1.00
Zn1390 Zn    0.13459   0.79044   0.72257   0.00000  Uiso   1.00
Zn1391 Zn    0.21166   0.86331   0.71188   0.00000  Uiso   1.00
Zn1392 Zn    0.12798   0.87202   0.78277   0.00000  Uiso   1.00
C1393  C     0.38617   0.82667   0.75854   0.00000  Uiso   1.00
C1394  C     0.53275   0.79450   0.95826   0.00000  Uiso   1.00
C1395  C     0.55776   0.77873   0.97746   0.00000  Uiso   1.00
C1396  C     0.61440   0.84000   0.74121   0.00000  Uiso   1.00
C1397  C     0.54771   0.78437   0.51897   0.00000  Uiso   1.00
C1398  C     0.51086   0.80400   0.54098   0.00000  Uiso   1.00
C1399  C     0.57406   0.77120   0.53896   0.00000  Uiso   1.00
C1400  C     0.56633   0.78017   0.57993   0.00000  Uiso   1.00
C1401  C     0.50518   0.81482   0.58178   0.00000  Uiso   1.00
C1402  C     0.66030   0.84262   0.73825   0.00000  Uiso   1.00
C1403  C     0.34074   0.82319   0.76289   0.00000  Uiso   1.00
C1404  C     0.42459   0.87250   0.92298   0.00000  Uiso   1.00
C1405  C     0.51492   0.98923   0.73745   0.00000  Uiso   1.00
C1406  C     0.48543   0.67874   0.76197   0.00000  Uiso   1.00
C1407  C     0.48876   0.72288   0.75941   0.00000  Uiso   1.00
C1408  C     0.51035   0.94442   0.74112   0.00000  Uiso   1.00
C1409  C     0.52185   0.81181   0.64396   0.00000  Uiso   1.00
C1410  C     0.47799   0.85375   0.85647   0.00000  Uiso   1.00
C1411  C     0.46351   0.85681   0.90036   0.00000  Uiso   1.00
C1412  C     0.53180   0.80239   0.60116   0.00000  Uiso   1.00
C1413  C     0.41017   0.86931   0.96394   0.00000  Uiso   1.00
C1414  C     0.65608   0.79478   0.82728   0.00000  Uiso   1.00
C1415  C     0.48768   0.83972   0.91962   0.00000  Uiso   1.00
C1416  C     0.63043   0.79635   0.60174   0.00000  Uiso   1.00
C1417  C     0.63387   0.78628   0.94502   0.00000  Uiso   1.00
C1418  C     0.40617   0.76740   0.58143   0.00000  Uiso   1.00
C1419  C     0.47275   0.83419   0.96021   0.00000  Uiso   1.00
C1420  C     0.43349   0.84937   0.98236   0.00000  Uiso   1.00
C1421  C     0.49627   0.81473   0.97948   0.00000  Uiso   1.00
C1422  C     0.48230   0.81467   0.52131   0.00000  Uiso   1.00
C1423  C     0.43996   0.82445   0.54168   0.00000  Uiso   1.00
C1424  C     0.41714   0.84310   0.52243   0.00000  Uiso   1.00
H1425  H     0.38554   0.85143   0.53895   0.00000  Uiso   1.00
H1426  H     0.62895   0.77692   0.84761   0.00000  Uiso   1.00
H1427  H     0.66114   0.82686   0.84190   0.00000  Uiso   1.00
H1428  H     0.35207   0.77895   0.82163   0.00000  Uiso   1.00
H1429  H     0.56731   0.98611   0.68830   0.00000  Uiso   1.00
H1430  H     0.57152   0.69287   0.72262   0.00000  Uiso   1.00
H1431  H     0.60171   0.73714   0.58910   0.00000  Uiso   1.00
H1432  H     0.65272   0.79928   0.57163   0.00000  Uiso   1.00
H1433  H     0.64752   0.78531   0.62052   0.00000  Uiso   1.00
H1434  H     0.62069   0.82753   0.61508   0.00000  Uiso   1.00
H1435  H     0.58899   0.74043   0.92965   0.00000  Uiso   1.00
H1436  H     0.60125   0.75457   0.52293   0.00000  Uiso   1.00
H1437  H     0.63164   0.81028   0.92648   0.00000  Uiso   1.00
H1438  H     0.66071   0.76798   0.92836   0.00000  Uiso   1.00
H1439  H     0.64121   0.80193   0.97250   0.00000  Uiso   1.00
H1440  H     0.34611   0.87198   0.97547   0.00000  Uiso   1.00
H1441  H     0.37518   0.91813   0.98408   0.00000  Uiso   1.00
H1442  H     0.38816   0.86877   0.88474   0.00000  Uiso   1.00
H1443  H     0.41623   0.91689   0.89169   0.00000  Uiso   1.00
H1444  H     0.39321   0.82901   0.59586   0.00000  Uiso   1.00
H1445  H     0.39088   0.76058   0.61256   0.00000  Uiso   1.00
H1446  H     0.43495   0.75036   0.56967   0.00000  Uiso   1.00
H1447  H     0.45833   0.99840   0.78428   0.00000  Uiso   1.00
H1448  H     0.38298   0.75599   0.56380   0.00000  Uiso   1.00
H1449  H     0.48131   0.83468   0.59899   0.00000  Uiso   1.00
H1450  H     0.51850   0.83102   0.90197   0.00000  Uiso   1.00
H1451  H     0.54233   0.78945   0.92643   0.00000  Uiso   1.00
H1452  H     0.35411   0.85439   0.68124   0.00000  Uiso   1.00
H1453  H     0.34941   0.89736   0.71425   0.00000  Uiso   1.00
H1454  H     0.63657   0.76746   0.77763   0.00000  Uiso   1.00
N1455  N     0.35744   0.86678   0.70910   0.00000  Uiso   1.00
N1456  N     0.64571   0.79639   0.79061   0.00000  Uiso   1.00
N1457  N     0.55023   0.67528   0.70798   0.00000  Uiso   1.00
N1458  N     0.59328   0.76675   0.59967   0.00000  Uiso   1.00
N1459  N     0.59410   0.75858   0.95444   0.00000  Uiso   1.00
N1460  N     0.37132   0.88613   0.98700   0.00000  Uiso   1.00
N1461  N     0.39835   0.89090   0.90539   0.00000  Uiso   1.00
N1462  N     0.41805   0.81198   0.58012   0.00000  Uiso   1.00
O1463  O     0.50000   0.83333   0.75000   0.00000  Uiso   1.00
O1464  O     0.49027   0.79060   0.66625   0.00000  Uiso   1.00
O1465  O     0.46020   0.87313   0.83749   0.00000  Uiso   1.00
O1466  O     0.54421   0.84159   0.65877   0.00000  Uiso   1.00
O1467  O     0.50532   0.82802   0.83749   0.00000  Uiso   1.00
O1468  O     0.51182   0.74768   0.77820   0.00000  Uiso   1.00
O1469  O     0.47914   0.92803   0.76767   0.00000  Uiso   1.00
O1470  O     0.40785   0.79917   0.73607   0.00000  Uiso   1.00
O1471  O     0.60119   0.85845   0.71805   0.00000  Uiso   1.00
O1472  O     0.40323   0.85627   0.77820   0.00000  Uiso   1.00
O1473  O     0.58773   0.81944   0.76767   0.00000  Uiso   1.00
O1474  O     0.47133   0.73570   0.73607   0.00000  Uiso   1.00
O1475  O     0.53771   0.92193   0.71805   0.00000  Uiso   1.00
Zn1476 Zn    0.52577   0.80756   0.78277   0.00000  Uiso   1.00
Zn1477 Zn    0.46792   0.79044   0.72257   0.00000  Uiso   1.00
Zn1478 Zn    0.54500   0.86331   0.71188   0.00000  Uiso   1.00
Zn1479 Zn    0.46131   0.87202   0.78277   0.00000  Uiso   1.00
C1480  C     0.71951   0.82667   0.75854   0.00000  Uiso   1.00
C1481  C     0.86608   0.79450   0.95826   0.00000  Uiso   1.00
C1482  C     0.89109   0.77873   0.97746   0.00000  Uiso   1.00
C1483  C     0.94774   0.84000   0.74121   0.00000  Uiso   1.00
C1484  C     0.88104   0.78437   0.51897   0.00000  Uiso   1.00
C1485  C     0.84419   0.80400   0.54098   0.00000  Uiso   1.00
C1486  C     0.90739   0.77120   0.53896   0.00000  Uiso   1.00
C1487  C     0.89967   0.78017   0.57993   0.00000  Uiso   1.00
C1488  C     0.83851   0.81482   0.58178   0.00000  Uiso   1.00
C1489  C     0.99363   0.84262   0.73825   0.00000  Uiso   1.00
C1490  C     0.67407   0.82319   0.76289   0.00000  Uiso   1.00
C1491  C     0.75792   0.87250   0.92298   0.00000  Uiso   1.00
C1492  C     0.84825   0.98923   0.73745   0.00000  Uiso   1.00
C1493  C     0.81877   0.67874   0.76197   0.00000  Uiso   1.00
C1494  C     0.82210   0.72288   0.75941   0.00000  Uiso   1.00
C1495  C     0.84368   0.94442   0.74112   0.00000  Uiso   1.00
C1496  C     0.85518   0.81181   0.64396   0.00000  Uiso   1.00
C1497  C     0.81133   0.85375   0.85647   0.00000  Uiso   1.00
C1498  C     0.79684   0.85681   0.90036   0.00000  Uiso   1.00
C1499  C     0.86513   0.80239   0.60116   0.00000  Uiso   1.00
C1500  C     0.74350   0.86931   0.96394   0.00000  Uiso   1.00
C1501  C     0.98942   0.79478   0.82728   0.00000  Uiso   1.00
C1502  C     0.82101   0.83972   0.91962   0.00000  Uiso   1.00
C1503  C     0.96376   0.79635   0.60174   0.00000  Uiso   1.00
C1504  C     0.96721   0.78628   0.94502   0.00000  Uiso   1.00
C1505  C     0.73950   0.76740   0.58143   0.00000  Uiso   1.00
C1506  C     0.80608   0.83419   0.96021   0.00000  Uiso   1.00
C1507  C     0.76682   0.84937   0.98236   0.00000  Uiso   1.00
C1508  C     0.82960   0.81473   0.97948   0.00000  Uiso   1.00
C1509  C     0.81563   0.81467   0.52131   0.00000  Uiso   1.00
C1510  C     0.77329   0.82445   0.54168   0.00000  Uiso   1.00
C1511  C     0.75048   0.84310   0.52243   0.00000  Uiso   1.00
H1512  H     0.71887   0.85143   0.53895   0.00000  Uiso   1.00
H1513  H     0.96228   0.77692   0.84761   0.00000  Uiso   1.00
H1514  H     0.99448   0.82686   0.84190   0.00000  Uiso   1.00
H1515  H     0.68540   0.77895   0.82163   0.00000  Uiso   1.00
H1516  H     0.90064   0.98611   0.68830   0.00000  Uiso   1.00
H1517  H     0.90485   0.69287   0.72262   0.00000  Uiso   1.00
H1518  H     0.93504   0.73714   0.58910   0.00000  Uiso   1.00
H1519  H     0.98606   0.79928   0.57163   0.00000  Uiso   1.00
H1520  H     0.98085   0.78531   0.62052   0.00000  Uiso   1.00
H1521  H     0.95403   0.82753   0.61508   0.00000  Uiso   1.00
H1522  H     0.92232   0.74043   0.92965   0.00000  Uiso   1.00
H1523  H     0.93458   0.75457   0.52293   0.00000  Uiso   1.00
H1524  H     0.96498   0.81028   0.92648   0.00000  Uiso   1.00
H1525  H     0.99404   0.76798   0.92836   0.00000  Uiso   1.00
H1526  H     0.97454   0.80193   0.97250   0.00000  Uiso   1.00
H1527  H     0.67944   0.87198   0.97547   0.00000  Uiso   1.00
H1528  H     0.70851   0.91813   0.98408   0.00000  Uiso   1.00
H1529  H     0.72150   0.86877   0.88474   0.00000  Uiso   1.00
H1530  H     0.74956   0.91689   0.89169   0.00000  Uiso   1.00
H1531  H     0.72655   0.82901   0.59586   0.00000  Uiso   1.00
H1532  H     0.72421   0.76058   0.61256   0.00000  Uiso   1.00
H1533  H     0.76828   0.75036   0.56967   0.00000  Uiso   1.00
H1534  H     0.79166   0.99840   0.78428   0.00000  Uiso   1.00
H1535  H     0.71632   0.75599   0.56380   0.00000  Uiso   1.00
H1536  H     0.81464   0.83468   0.59899   0.00000  Uiso   1.00
H1537  H     0.85183   0.83102   0.90197   0.00000  Uiso   1.00
H1538  H     0.87566   0.78945   0.92643   0.00000  Uiso   1.00
H1539  H     0.68744   0.85439   0.68124   0.00000  Uiso   1.00
H1540  H     0.68274   0.89736   0.71425   0.00000  Uiso   1.00
H1541  H     0.96990   0.76746   0.77763   0.00000  Uiso   1.00
N1542  N     0.69077   0.86678   0.70910   0.00000  Uiso   1.00
N1543  N     0.97905   0.79639   0.79061   0.00000  Uiso   1.00
N1544  N     0.88356   0.67528   0.70798   0.00000  Uiso   1.00
N1545  N     0.92661   0.76675   0.59967   0.00000  Uiso   1.00
N1546  N     0.92743   0.75858   0.95444   0.00000  Uiso   1.00
N1547  N     0.70465   0.88613   0.98700   0.00000  Uiso   1.00
N1548  N     0.73169   0.89090   0.90539   0.00000  Uiso   1.00
N1549  N     0.75138   0.81198   0.58012   0.00000  Uiso   1.00
O1550  O     0.83333   0.83333   0.75000   0.00000  Uiso   1.00
O1551  O     0.82360   0.79060   0.66625   0.00000  Uiso   1.00
O1552  O     0.79354   0.87313   0.83749   0.00000  Uiso   1.00
O1553  O     0.87755   0.84159   0.65877   0.00000  Uiso   1.00
O1554  O     0.83865   0.82802   0.83749   0.00000  Uiso   1.00
O1555  O     0.84515   0.74768   0.77820   0.00000  Uiso   1.00
O1556  O     0.81247   0.92803   0.76767   0.00000  Uiso   1.00
O1557  O     0.74119   0.79917   0.73607   0.00000  Uiso   1.00
O1558  O     0.93452   0.85845   0.71805   0.00000  Uiso   1.00
O1559  O     0.73656   0.85627   0.77820   0.00000  Uiso   1.00
O1560  O     0.92106   0.81944   0.76767   0.00000  Uiso   1.00
O1561  O     0.80467   0.73570   0.73607   0.00000  Uiso   1.00
O1562  O     0.87104   0.92193   0.71805   0.00000  Uiso   1.00
Zn1563 Zn    0.85910   0.80756   0.78277   0.00000  Uiso   1.00
Zn1564 Zn    0.80125   0.79044   0.72257   0.00000  Uiso   1.00
Zn1565 Zn    0.87833   0.86331   0.71188   0.00000  Uiso   1.00
Zn1566 Zn    0.79465   0.87202   0.78277   0.00000  Uiso   1.00
loop_
_geom_bond_atom_site_label_1
_geom_bond_atom_site_label_2
_geom_bond_distance
_geom_bond_site_symmetry_2
_ccdc_geom_bond_type
C1     O78     1.267   .     A
C1     O80     1.268   .     A
C1     C11     1.438   .     S
C2     C29     1.414   .     A
C2     H59     1.077   .     S
C2     C3      1.396   .     A
C3     N67     1.425   .     S
C3     C788    1.405   .     S
C4     O81     1.269   .     A
C4     O79     1.283   .     A
C4     C10     1.465   .     S
C5     C6      1.420   .     A
C5     C7      1.409   .     A
C5     C786    1.405   1_554 S
C6     C9      1.407   .     A
C6     C30     1.425   .     A
C7     C8      1.399   .     A
C7     H44     1.083   .     S
C8     N66     1.422   .     S
C8     C20     1.402   .     A
C9     C20     1.389   .     A
C9     H57     1.080   .     S
C10    C98     1.356   .     S
C10    N150    1.438   .     S
C11    C184    1.356   1_455 S
C11    N238    1.432   1_455 S
C12    N69     1.435   .     S
C12    C21     1.405   .     A
C12    C19     1.419   .     A
C13    C16     1.463   .     S
C13    C275    1.337   .     S
C13    N326    1.444   .     S
C14    C15     1.437   .     S
C14    C535    1.337   1_545 S
C14    H577    1.086   1_545 S
C15    O82     1.277   .     A
C15    O76     1.276   .     A
C16    O77     1.276   .     A
C16    O83     1.269   .     A
C17    C20     1.457   .     S
C17    O74     1.274   .     A
C17    O72     1.276   .     A
C18    O75     1.293   .     A
C18    C19     1.484   .     S
C18    O73     1.284   .     A
C19    C23     1.399   .     A
C21    C28     1.411   .     A
C21    N68     1.437   .     S
C22    H35     1.111   .     S
C22    H34     1.110   .     S
C22    N64     1.448   .     S
C22    H123    1.111   .     S
C23    H58     1.076   .     S
C23    C27     1.408   .     A
C24    H42     1.110   .     S
C24    N66     1.446   .     S
C24    H41     1.110   .     S
C24    H40     1.112   .     S
C25    N67     1.447   .     S
C25    H47     1.110   .     S
C25    H45     1.112   .     S
C25    H46     1.110   .     S
C26    H54     1.110   .     S
C26    N70     1.447   .     S
C26    H53     1.110   .     S
C26    H56     1.111   .     S
C27    C29     1.427   .     A
C27    C28     1.417   .     A
C28    C815    1.398   .     S
C29    C813    1.421   .     S
C30    C31     1.424   .     A
C30    C812    1.421   1_554 S
C31    N70     1.427   .     S
C31    C32     1.394   .     A
C32    H33     1.083   .     S
C32    C811    1.398   1_554 S
H36    C196    1.111   1_455 S
H37    N326    1.044   .     S
H38    N65     1.046   .     S
H39    N66     1.032   .     S
H43    N67     1.032   .     S
H48    N68     1.045   .     S
H49    N68     1.046   .     S
H50    N69     1.045   .     S
H51    N69     1.045   .     S
H52    N70     1.032   .     S
H55    C275    1.086   .     S
H60    N63     1.046   .     S
H61    N63     1.045   .     S
H62    N64     1.032   .     S
N63    C184    1.438   1_455 S
N64    C98     1.432   .     S
N65    C535    1.444   1_545 S
N65    H559    1.044   1_545 S
O71    Zn85    1.944   .     S
O71    Zn86    1.928   .     S
O71    Zn87    1.938   .     S
O71    Zn84    1.956   .     S
O72    Zn85    1.919   .     S
O73    Zn87    1.929   .     S
O74    Zn86    1.927   .     S
O75    Zn84    1.919   .     S
O76    Zn84    1.928   .     S
O77    Zn87    1.927   .     S
O78    Zn85    1.938   .     S
O79    Zn86    1.947   .     S
O80    Zn87    1.941   .     S
O81    Zn84    1.933   .     S
O82    Zn85    1.934   .     S
O83    Zn86    1.932   .     S
C88    O165    1.267   .     A
C88    O167    1.268   .     A
C88    C98     1.438   .     S
C89    C116    1.414   .     A
C89    H146    1.077   .     S
C89    C90     1.396   .     A
C90    N154    1.425   .     S
C90    C875    1.405   .     S
C91    O168    1.269   .     A
C91    O166    1.283   .     A
C91    C97     1.465   .     S
C92    C93     1.420   .     A
C92    C94     1.409   .     A
C92    C873    1.405   1_554 S
C93    C96     1.407   .     A
C93    C117    1.425   .     A
C94    C95     1.399   .     A
C94    H131    1.083   .     S
C95    N153    1.422   .     S
C95    C107    1.402   .     A
C96    C107    1.389   .     A
C96    H144    1.080   .     S
C97    C185    1.356   .     S
C97    N237    1.438   .     S
C99    N156    1.435   .     S
C99    C108    1.405   .     A
C99    C106    1.419   .     A
C100   C103    1.463   .     S
C100   C362    1.337   .     S
C100   N413    1.444   .     S
C101   C102    1.437   .     S
C101   C622    1.337   1_545 S
C101   H664    1.086   1_545 S
C102   O169    1.277   .     A
C102   O163    1.276   .     A
C103   O164    1.276   .     A
C103   O170    1.269   .     A
C104   C107    1.457   .     S
C104   O161    1.274   .     A
C104   O159    1.276   .     A
C105   O162    1.293   .     A
C105   C106    1.484   .     S
C105   O160    1.284   .     A
C106   C110    1.399   .     A
C108   C115    1.411   .     A
C108   N155    1.437   .     S
C109   H122    1.111   .     S
C109   H121    1.110   .     S
C109   N151    1.448   .     S
C109   H210    1.111   .     S
C110   H145    1.076   .     S
C110   C114    1.408   .     A
C111   H129    1.110   .     S
C111   N153    1.446   .     S
C111   H128    1.110   .     S
C111   H127    1.112   .     S
C112   N154    1.447   .     S
C112   H134    1.110   .     S
C112   H132    1.112   .     S
C112   H133    1.110   .     S
C113   H141    1.110   .     S
C113   N157    1.447   .     S
C113   H140    1.110   .     S
C113   H143    1.111   .     S
C114   C116    1.427   .     A
C114   C115    1.417   .     A
C115   C902    1.398   .     S
C116   C900    1.421   .     S
C117   C118    1.424   .     A
C117   C899    1.421   1_554 S
C118   N157    1.427   .     S
C118   C119    1.394   .     A
C119   H120    1.083   .     S
C119   C898    1.398   1_554 S
H124   N413    1.044   .     S
H125   N152    1.046   .     S
H126   N153    1.032   .     S
H130   N154    1.032   .     S
H135   N155    1.045   .     S
H136   N155    1.046   .     S
H137   N156    1.045   .     S
H138   N156    1.045   .     S
H139   N157    1.032   .     S
H142   C362    1.086   .     S
H147   N150    1.046   .     S
H148   N150    1.045   .     S
H149   N151    1.032   .     S
N151   C185    1.432   .     S
N152   C622    1.444   1_545 S
N152   H646    1.044   1_545 S
O158   Zn172   1.944   .     S
O158   Zn173   1.928   .     S
O158   Zn174   1.938   .     S
O158   Zn171   1.956   .     S
O159   Zn172   1.919   .     S
O160   Zn174   1.929   .     S
O161   Zn173   1.927   .     S
O162   Zn171   1.919   .     S
O163   Zn171   1.928   .     S
O164   Zn174   1.927   .     S
O165   Zn172   1.938   .     S
O166   Zn173   1.947   .     S
O167   Zn174   1.941   .     S
O168   Zn171   1.933   .     S
O169   Zn172   1.934   .     S
O170   Zn173   1.932   .     S
C175   O252    1.267   .     A
C175   O254    1.268   .     A
C175   C185    1.438   .     S
C176   C203    1.414   .     A
C176   H233    1.077   .     S
C176   C177    1.396   .     A
C177   N241    1.425   .     S
C177   C962    1.405   .     S
C178   O255    1.269   .     A
C178   O253    1.283   .     A
C178   C184    1.465   .     S
C179   C180    1.420   .     A
C179   C181    1.409   .     A
C179   C960    1.405   1_554 S
C180   C183    1.407   .     A
C180   C204    1.425   .     A
C181   C182    1.399   .     A
C181   H218    1.083   .     S
C182   N240    1.422   .     S
C182   C194    1.402   .     A
C183   C194    1.389   .     A
C183   H231    1.080   .     S
C184   C11     1.356   1_655 S
C184   N63     1.438   1_655 S
C186   N243    1.435   .     S
C186   C195    1.405   .     A
C186   C193    1.419   .     A
C187   C190    1.463   .     S
C187   C449    1.337   .     S
C187   N500    1.444   .     S
C188   C189    1.437   .     S
C188   C709    1.337   1_545 S
C188   H751    1.086   1_545 S
C189   O256    1.277   .     A
C189   O250    1.276   .     A
C190   O251    1.276   .     A
C190   O257    1.269   .     A
C191   C194    1.457   .     S
C191   O248    1.274   .     A
C191   O246    1.276   .     A
C192   O249    1.293   .     A
C192   C193    1.484   .     S
C192   O247    1.284   .     A
C193   C197    1.399   .     A
C195   C202    1.411   .     A
C195   N242    1.437   .     S
C196   H209    1.111   .     S
C196   H208    1.110   .     S
C196   N238    1.448   .     S
C196   H36     1.111   1_655 S
C197   H232    1.076   .     S
C197   C201    1.408   .     A
C198   H216    1.110   .     S
C198   N240    1.446   .     S
C198   H215    1.110   .     S
C198   H214    1.112   .     S
C199   N241    1.447   .     S
C199   H221    1.110   .     S
C199   H219    1.112   .     S
C199   H220    1.110   .     S
C200   H228    1.110   .     S
C200   N244    1.447   .     S
C200   H227    1.110   .     S
C200   H230    1.111   .     S
C201   C203    1.427   .     A
C201   C202    1.417   .     A
C202   C989    1.398   .     S
C203   C987    1.421   .     S
C204   C205    1.424   .     A
C204   C986    1.421   1_554 S
C205   N244    1.427   .     S
C205   C206    1.394   .     A
C206   H207    1.083   .     S
C206   C985    1.398   1_554 S
H211   N500    1.044   .     S
H212   N239    1.046   .     S
H213   N240    1.032   .     S
H217   N241    1.032   .     S
H222   N242    1.045   .     S
H223   N242    1.046   .     S
H224   N243    1.045   .     S
H225   N243    1.045   .     S
H226   N244    1.032   .     S
H229   C449    1.086   .     S
H234   N237    1.046   .     S
H235   N237    1.045   .     S
H236   N238    1.032   .     S
N238   C11     1.432   1_655 S
N239   C709    1.444   1_545 S
N239   H733    1.044   1_545 S
O245   Zn259   1.944   .     S
O245   Zn260   1.928   .     S
O245   Zn261   1.938   .     S
O245   Zn258   1.956   .     S
O246   Zn259   1.919   .     S
O247   Zn261   1.929   .     S
O248   Zn260   1.927   .     S
O249   Zn258   1.919   .     S
O250   Zn258   1.928   .     S
O251   Zn261   1.927   .     S
O252   Zn259   1.938   .     S
O253   Zn260   1.947   .     S
O254   Zn261   1.941   .     S
O255   Zn258   1.933   .     S
O256   Zn259   1.934   .     S
O257   Zn260   1.932   .     S
C262   O339    1.267   .     A
C262   O341    1.268   .     A
C262   C272    1.438   .     S
C263   C290    1.414   .     A
C263   H320    1.077   .     S
C263   C264    1.396   .     A
C264   N328    1.425   .     S
C264   C1049   1.405   .     S
C265   O342    1.269   .     A
C265   O340    1.283   .     A
C265   C271    1.465   .     S
C266   C267    1.420   .     A
C266   C268    1.409   .     A
C266   C1047   1.405   1_554 S
C267   C270    1.407   .     A
C267   C291    1.425   .     A
C268   C269    1.399   .     A
C268   H305    1.083   .     S
C269   N327    1.422   .     S
C269   C281    1.402   .     A
C270   C281    1.389   .     A
C270   H318    1.080   .     S
C271   C359    1.356   .     S
C271   N411    1.438   .     S
C272   C445    1.356   1_455 S
C272   N499    1.432   1_455 S
C273   N330    1.435   .     S
C273   C282    1.405   .     A
C273   C280    1.419   .     A
C274   C277    1.463   .     S
C274   C536    1.337   .     S
C274   N587    1.444   .     S
C275   C276    1.437   .     S
C276   O343    1.277   .     A
C276   O337    1.276   .     A
C277   O338    1.276   .     A
C277   O344    1.269   .     A
C278   C281    1.457   .     S
C278   O335    1.274   .     A
C278   O333    1.276   .     A
C279   O336    1.293   .     A
C279   C280    1.484   .     S
C279   O334    1.284   .     A
C280   C284    1.399   .     A
C282   C289    1.411   .     A
C282   N329    1.437   .     S
C283   H296    1.111   .     S
C283   H295    1.110   .     S
C283   N325    1.448   .     S
C283   H384    1.111   .     S
C284   H319    1.076   .     S
C284   C288    1.408   .     A
C285   H303    1.110   .     S
C285   N327    1.446   .     S
C285   H302    1.110   .     S
C285   H301    1.112   .     S
C286   N328    1.447   .     S
C286   H308    1.110   .     S
C286   H306    1.112   .     S
C286   H307    1.110   .     S
C287   H315    1.110   .     S
C287   N331    1.447   .     S
C287   H314    1.110   .     S
C287   H317    1.111   .     S
C288   C290    1.427   .     A
C288   C289    1.417   .     A
C289   C1076   1.398   .     S
C290   C1074   1.421   .     S
C291   C292    1.424   .     A
C291   C1073   1.421   1_554 S
C292   N331    1.427   .     S
C292   C293    1.394   .     A
C293   H294    1.083   .     S
C293   C1072   1.398   1_554 S
H297   C457    1.111   1_455 S
H298   N587    1.044   .     S
H299   N326    1.046   .     S
H300   N327    1.032   .     S
H304   N328    1.032   .     S
H309   N329    1.045   .     S
H310   N329    1.046   .     S
H311   N330    1.045   .     S
H312   N330    1.045   .     S
H313   N331    1.032   .     S
H316   C536    1.086   .     S
H321   N324    1.046   .     S
H322   N324    1.045   .     S
H323   N325    1.032   .     S
N324   C445    1.438   1_455 S
N325   C359    1.432   .     S
O332   Zn346   1.944   .     S
O332   Zn347   1.928   .     S
O332   Zn348   1.938   .     S
O332   Zn345   1.956   .     S
O333   Zn346   1.919   .     S
O334   Zn348   1.929   .     S
O335   Zn347   1.927   .     S
O336   Zn345   1.919   .     S
O337   Zn345   1.928   .     S
O338   Zn348   1.927   .     S
O339   Zn346   1.938   .     S
O340   Zn347   1.947   .     S
O341   Zn348   1.941   .     S
O342   Zn345   1.933   .     S
O343   Zn346   1.934   .     S
O344   Zn347   1.932   .     S
C349   O426    1.267   .     A
C349   O428    1.268   .     A
C349   C359    1.438   .     S
C350   C377    1.414   .     A
C350   H407    1.077   .     S
C350   C351    1.396   .     A
C351   N415    1.425   .     S
C351   C1136   1.405   .     S
C352   O429    1.269   .     A
C352   O427    1.283   .     A
C352   C358    1.465   .     S
C353   C354    1.420   .     A
C353   C355    1.409   .     A
C353   C1134   1.405   1_554 S
C354   C357    1.407   .     A
C354   C378    1.425   .     A
C355   C356    1.399   .     A
C355   H392    1.083   .     S
C356   N414    1.422   .     S
C356   C368    1.402   .     A
C357   C368    1.389   .     A
C357   H405    1.080   .     S
C358   C446    1.356   .     S
C358   N498    1.438   .     S
C360   N417    1.435   .     S
C360   C369    1.405   .     A
C360   C367    1.419   .     A
C361   C364    1.463   .     S
C361   C623    1.337   .     S
C361   N674    1.444   .     S
C362   C363    1.437   .     S
C363   O430    1.277   .     A
C363   O424    1.276   .     A
C364   O425    1.276   .     A
C364   O431    1.269   .     A
C365   C368    1.457   .     S
C365   O422    1.274   .     A
C365   O420    1.276   .     A
C366   O423    1.293   .     A
C366   C367    1.484   .     S
C366   O421    1.284   .     A
C367   C371    1.399   .     A
C369   C376    1.411   .     A
C369   N416    1.437   .     S
C370   H383    1.111   .     S
C370   H382    1.110   .     S
C370   N412    1.448   .     S
C370   H471    1.111   .     S
C371   H406    1.076   .     S
C371   C375    1.408   .     A
C372   H390    1.110   .     S
C372   N414    1.446   .     S
C372   H389    1.110   .     S
C372   H388    1.112   .     S
C373   N415    1.447   .     S
C373   H395    1.110   .     S
C373   H393    1.112   .     S
C373   H394    1.110   .     S
C374   H402    1.110   .     S
C374   N418    1.447   .     S
C374   H401    1.110   .     S
C374   H404    1.111   .     S
C375   C377    1.427   .     A
C375   C376    1.417   .     A
C376   C1163   1.398   .     S
C377   C1161   1.421   .     S
C378   C379    1.424   .     A
C378   C1160   1.421   1_554 S
C379   N418    1.427   .     S
C379   C380    1.394   .     A
C380   H381    1.083   .     S
C380   C1159   1.398   1_554 S
H385   N674    1.044   .     S
H386   N413    1.046   .     S
H387   N414    1.032   .     S
H391   N415    1.032   .     S
H396   N416    1.045   .     S
H397   N416    1.046   .     S
H398   N417    1.045   .     S
H399   N417    1.045   .     S
H400   N418    1.032   .     S
H403   C623    1.086   .     S
H408   N411    1.046   .     S
H409   N411    1.045   .     S
H410   N412    1.032   .     S
N412   C446    1.432   .     S
O419   Zn433   1.944   .     S
O419   Zn434   1.928   .     S
O419   Zn435   1.938   .     S
O419   Zn432   1.956   .     S
O420   Zn433   1.919   .     S
O421   Zn435   1.929   .     S
O422   Zn434   1.927   .     S
O423   Zn432   1.919   .     S
O424   Zn432   1.928   .     S
O425   Zn435   1.927   .     S
O426   Zn433   1.938   .     S
O427   Zn434   1.947   .     S
O428   Zn435   1.941   .     S
O429   Zn432   1.933   .     S
O430   Zn433   1.934   .     S
O431   Zn434   1.932   .     S
C436   O513    1.267   .     A
C436   O515    1.268   .     A
C436   C446    1.438   .     S
C437   C464    1.414   .     A
C437   H494    1.077   .     S
C437   C438    1.396   .     A
C438   N502    1.425   .     S
C438   C1223   1.405   .     S
C439   O516    1.269   .     A
C439   O514    1.283   .     A
C439   C445    1.465   .     S
C440   C441    1.420   .     A
C440   C442    1.409   .     A
C440   C1221   1.405   1_554 S
C441   C444    1.407   .     A
C441   C465    1.425   .     A
C442   C443    1.399   .     A
C442   H479    1.083   .     S
C443   N501    1.422   .     S
C443   C455    1.402   .     A
C444   C455    1.389   .     A
C444   H492    1.080   .     S
C445   C272    1.356   1_655 S
C445   N324    1.438   1_655 S
C447   N504    1.435   .     S
C447   C456    1.405   .     A
C447   C454    1.419   .     A
C448   C451    1.463   .     S
C448   C710    1.337   .     S
C448   N761    1.444   .     S
C449   C450    1.437   .     S
C450   O517    1.277   .     A
C450   O511    1.276   .     A
C451   O512    1.276   .     A
C451   O518    1.269   .     A
C452   C455    1.457   .     S
C452   O509    1.274   .     A
C452   O507    1.276   .     A
C453   O510    1.293   .     A
C453   C454    1.484   .     S
C453   O508    1.284   .     A
C454   C458    1.399   .     A
C456   C463    1.411   .     A
C456   N503    1.437   .     S
C457   H470    1.111   .     S
C457   H469    1.110   .     S
C457   N499    1.448   .     S
C457   H297    1.111   1_655 S
C458   H493    1.076   .     S
C458   C462    1.408   .     A
C459   H477    1.110   .     S
C459   N501    1.446   .     S
C459   H476    1.110   .     S
C459   H475    1.112   .     S
C460   N502    1.447   .     S
C460   H482    1.110   .     S
C460   H480    1.112   .     S
C460   H481    1.110   .     S
C461   H489    1.110   .     S
C461   N505    1.447   .     S
C461   H488    1.110   .     S
C461   H491    1.111   .     S
C462   C464    1.427   .     A
C462   C463    1.417   .     A
C463   C1250   1.398   .     S
C464   C1248   1.421   .     S
C465   C466    1.424   .     A
C465   C1247   1.421   1_554 S
C466   N505    1.427   .     S
C466   C467    1.394   .     A
C467   H468    1.083   .     S
C467   C1246   1.398   1_554 S
H472   N761    1.044   .     S
H473   N500    1.046   .     S
H474   N501    1.032   .     S
H478   N502    1.032   .     S
H483   N503    1.045   .     S
H484   N503    1.046   .     S
H485   N504    1.045   .     S
H486   N504    1.045   .     S
H487   N505    1.032   .     S
H490   C710    1.086   .     S
H495   N498    1.046   .     S
H496   N498    1.045   .     S
H497   N499    1.032   .     S
N499   C272    1.432   1_655 S
O506   Zn520   1.944   .     S
O506   Zn521   1.928   .     S
O506   Zn522   1.938   .     S
O506   Zn519   1.956   .     S
O507   Zn520   1.919   .     S
O508   Zn522   1.929   .     S
O509   Zn521   1.927   .     S
O510   Zn519   1.919   .     S
O511   Zn519   1.928   .     S
O512   Zn522   1.927   .     S
O513   Zn520   1.938   .     S
O514   Zn521   1.947   .     S
O515   Zn522   1.941   .     S
O516   Zn519   1.933   .     S
O517   Zn520   1.934   .     S
O518   Zn521   1.932   .     S
C523   O600    1.267   .     A
C523   O602    1.268   .     A
C523   C533    1.438   .     S
C524   C551    1.414   .     A
C524   H581    1.077   .     S
C524   C525    1.396   .     A
C525   N589    1.425   .     S
C525   C1310   1.405   .     S
C526   O603    1.269   .     A
C526   O601    1.283   .     A
C526   C532    1.465   .     S
C527   C528    1.420   .     A
C527   C529    1.409   .     A
C527   C1308   1.405   1_554 S
C528   C531    1.407   .     A
C528   C552    1.425   .     A
C529   C530    1.399   .     A
C529   H566    1.083   .     S
C530   N588    1.422   .     S
C530   C542    1.402   .     A
C531   C542    1.389   .     A
C531   H579    1.080   .     S
C532   C620    1.356   .     S
C532   N672    1.438   .     S
C533   C706    1.356   1_455 S
C533   N760    1.432   1_455 S
C534   N591    1.435   .     S
C534   C543    1.405   .     A
C534   C541    1.419   .     A
C535   C538    1.463   .     S
C535   C14     1.337   1_565 S
C535   N65     1.444   1_565 S
C536   C537    1.437   .     S
C537   O604    1.277   .     A
C537   O598    1.276   .     A
C538   O599    1.276   .     A
C538   O605    1.269   .     A
C539   C542    1.457   .     S
C539   O596    1.274   .     A
C539   O594    1.276   .     A
C540   O597    1.293   .     A
C540   C541    1.484   .     S
C540   O595    1.284   .     A
C541   C545    1.399   .     A
C543   C550    1.411   .     A
C543   N590    1.437   .     S
C544   H557    1.111   .     S
C544   H556    1.110   .     S
C544   N586    1.448   .     S
C544   H645    1.111   .     S
C545   H580    1.076   .     S
C545   C549    1.408   .     A
C546   H564    1.110   .     S
C546   N588    1.446   .     S
C546   H563    1.110   .     S
C546   H562    1.112   .     S
C547   N589    1.447   .     S
C547   H569    1.110   .     S
C547   H567    1.112   .     S
C547   H568    1.110   .     S
C548   H576    1.110   .     S
C548   N592    1.447   .     S
C548   H575    1.110   .     S
C548   H578    1.111   .     S
C549   C551    1.427   .     A
C549   C550    1.417   .     A
C550   C1337   1.398   .     S
C551   C1335   1.421   .     S
C552   C553    1.424   .     A
C552   C1334   1.421   1_554 S
C553   N592    1.427   .     S
C553   C554    1.394   .     A
C554   H555    1.083   .     S
C554   C1333   1.398   1_554 S
H558   C718    1.111   1_455 S
H559   N65     1.044   1_565 S
H560   N587    1.046   .     S
H561   N588    1.032   .     S
H565   N589    1.032   .     S
H570   N590    1.045   .     S
H571   N590    1.046   .     S
H572   N591    1.045   .     S
H573   N591    1.045   .     S
H574   N592    1.032   .     S
H577   C14     1.086   1_565 S
H582   N585    1.046   .     S
H583   N585    1.045   .     S
H584   N586    1.032   .     S
N585   C706    1.438   1_455 S
N586   C620    1.432   .     S
O593   Zn607   1.944   .     S
O593   Zn608   1.928   .     S
O593   Zn609   1.938   .     S
O593   Zn606   1.956   .     S
O594   Zn607   1.919   .     S
O595   Zn609   1.929   .     S
O596   Zn608   1.927   .     S
O597   Zn606   1.919   .     S
O598   Zn606   1.928   .     S
O599   Zn609   1.927   .     S
O600   Zn607   1.938   .     S
O601   Zn608   1.947   .     S
O602   Zn609   1.941   .     S
O603   Zn606   1.933   .     S
O604   Zn607   1.934   .     S
O605   Zn608   1.932   .     S
C610   O687    1.267   .     A
C610   O689    1.268   .     A
C610   C620    1.438   .     S
C611   C638    1.414   .     A
C611   H668    1.077   .     S
C611   C612    1.396   .     A
C612   N676    1.425   .     S
C612   C1397   1.405   .     S
C613   O690    1.269   .     A
C613   O688    1.283   .     A
C613   C619    1.465   .     S
C614   C615    1.420   .     A
C614   C616    1.409   .     A
C614   C1395   1.405   1_554 S
C615   C618    1.407   .     A
C615   C639    1.425   .     A
C616   C617    1.399   .     A
C616   H653    1.083   .     S
C617   N675    1.422   .     S
C617   C629    1.402   .     A
C618   C629    1.389   .     A
C618   H666    1.080   .     S
C619   C707    1.356   .     S
C619   N759    1.438   .     S
C621   N678    1.435   .     S
C621   C630    1.405   .     A
C621   C628    1.419   .     A
C622   C625    1.463   .     S
C622   C101    1.337   1_565 S
C622   N152    1.444   1_565 S
C623   C624    1.437   .     S
C624   O691    1.277   .     A
C624   O685    1.276   .     A
C625   O686    1.276   .     A
C625   O692    1.269   .     A
C626   C629    1.457   .     S
C626   O683    1.274   .     A
C626   O681    1.276   .     A
C627   O684    1.293   .     A
C627   C628    1.484   .     S
C627   O682    1.284   .     A
C628   C632    1.399   .     A
C630   C637    1.411   .     A
C630   N677    1.437   .     S
C631   H644    1.111   .     S
C631   H643    1.110   .     S
C631   N673    1.448   .     S
C631   H732    1.111   .     S
C632   H667    1.076   .     S
C632   C636    1.408   .     A
C633   H651    1.110   .     S
C633   N675    1.446   .     S
C633   H650    1.110   .     S
C633   H649    1.112   .     S
C634   N676    1.447   .     S
C634   H656    1.110   .     S
C634   H654    1.112   .     S
C634   H655    1.110   .     S
C635   H663    1.110   .     S
C635   N679    1.447   .     S
C635   H662    1.110   .     S
C635   H665    1.111   .     S
C636   C638    1.427   .     A
C636   C637    1.417   .     A
C637   C1424   1.398   .     S
C638   C1422   1.421   .     S
C639   C640    1.424   .     A
C639   C1421   1.421   1_554 S
C640   N679    1.427   .     S
C640   C641    1.394   .     A
C641   H642    1.083   .     S
C641   C1420   1.398   1_554 S
H646   N152    1.044   1_565 S
H647   N674    1.046   .     S
H648   N675    1.032   .     S
H652   N676    1.032   .     S
H657   N677    1.045   .     S
H658   N677    1.046   .     S
H659   N678    1.045   .     S
H660   N678    1.045   .     S
H661   N679    1.032   .     S
H664   C101    1.086   1_565 S
H669   N672    1.046   .     S
H670   N672    1.045   .     S
H671   N673    1.032   .     S
N673   C707    1.432   .     S
O680   Zn694   1.944   .     S
O680   Zn695   1.928   .     S
O680   Zn696   1.938   .     S
O680   Zn693   1.956   .     S
O681   Zn694   1.919   .     S
O682   Zn696   1.929   .     S
O683   Zn695   1.927   .     S
O684   Zn693   1.919   .     S
O685   Zn693   1.928   .     S
O686   Zn696   1.927   .     S
O687   Zn694   1.938   .     S
O688   Zn695   1.947   .     S
O689   Zn696   1.941   .     S
O690   Zn693   1.933   .     S
O691   Zn694   1.934   .     S
O692   Zn695   1.932   .     S
C697   O774    1.267   .     A
C697   O776    1.268   .     A
C697   C707    1.438   .     S
C698   C725    1.414   .     A
C698   H755    1.077   .     S
C698   C699    1.396   .     A
C699   N763    1.425   .     S
C699   C1484   1.405   .     S
C700   O777    1.269   .     A
C700   O775    1.283   .     A
C700   C706    1.465   .     S
C701   C702    1.420   .     A
C701   C703    1.409   .     A
C701   C1482   1.405   1_554 S
C702   C705    1.407   .     A
C702   C726    1.425   .     A
C703   C704    1.399   .     A
C703   H740    1.083   .     S
C704   N762    1.422   .     S
C704   C716    1.402   .     A
C705   C716    1.389   .     A
C705   H753    1.080   .     S
C706   C533    1.356   1_655 S
C706   N585    1.438   1_655 S
C708   N765    1.435   .     S
C708   C717    1.405   .     A
C708   C715    1.419   .     A
C709   C712    1.463   .     S
C709   C188    1.337   1_565 S
C709   N239    1.444   1_565 S
C710   C711    1.437   .     S
C711   O778    1.277   .     A
C711   O772    1.276   .     A
C712   O773    1.276   .     A
C712   O779    1.269   .     A
C713   C716    1.457   .     S
C713   O770    1.274   .     A
C713   O768    1.276   .     A
C714   O771    1.293   .     A
C714   C715    1.484   .     S
C714   O769    1.284   .     A
C715   C719    1.399   .     A
C717   C724    1.411   .     A
C717   N764    1.437   .     S
C718   H731    1.111   .     S
C718   H730    1.110   .     S
C718   N760    1.448   .     S
C718   H558    1.111   1_655 S
C719   H754    1.076   .     S
C719   C723    1.408   .     A
C720   H738    1.110   .     S
C720   N762    1.446   .     S
C720   H737    1.110   .     S
C720   H736    1.112   .     S
C721   N763    1.447   .     S
C721   H743    1.110   .     S
C721   H741    1.112   .     S
C721   H742    1.110   .     S
C722   H750    1.110   .     S
C722   N766    1.447   .     S
C722   H749    1.110   .     S
C722   H752    1.111   .     S
C723   C725    1.427   .     A
C723   C724    1.417   .     A
C724   C1511   1.398   .     S
C725   C1509   1.421   .     S
C726   C727    1.424   .     A
C726   C1508   1.421   1_554 S
C727   N766    1.427   .     S
C727   C728    1.394   .     A
C728   H729    1.083   .     S
C728   C1507   1.398   1_554 S
H733   N239    1.044   1_565 S
H734   N761    1.046   .     S
H735   N762    1.032   .     S
H739   N763    1.032   .     S
H744   N764    1.045   .     S
H745   N764    1.046   .     S
H746   N765    1.045   .     S
H747   N765    1.045   .     S
H748   N766    1.032   .     S
H751   C188    1.086   1_565 S
H756   N759    1.046   .     S
H757   N759    1.045   .     S
H758   N760    1.032   .     S
N760   C533    1.432   1_655 S
O767   Zn781   1.944   .     S
O767   Zn782   1.928   .     S
O767   Zn783   1.938   .     S
O767   Zn780   1.956   .     S
O768   Zn781   1.919   .     S
O769   Zn783   1.929   .     S
O770   Zn782   1.927   .     S
O771   Zn780   1.919   .     S
O772   Zn780   1.928   .     S
O773   Zn783   1.927   .     S
O774   Zn781   1.938   .     S
O775   Zn782   1.947   .     S
O776   Zn783   1.941   .     S
O777   Zn780   1.933   .     S
O778   Zn781   1.934   .     S
O779   Zn782   1.932   .     S
C784   O861    1.267   .     A
C784   O863    1.268   .     A
C784   C794    1.438   .     S
C785   C812    1.414   .     A
C785   H842    1.077   .     S
C785   C786    1.396   .     A
C786   N850    1.425   .     S
C786   C5      1.405   1_556 S
C787   O864    1.269   .     A
C787   O862    1.283   .     A
C787   C793    1.465   .     S
C788   C789    1.420   .     A
C788   C790    1.409   .     A
C789   C792    1.407   .     A
C789   C813    1.425   .     A
C790   C791    1.399   .     A
C790   H827    1.083   .     S
C791   N849    1.422   .     S
C791   C803    1.402   .     A
C792   C803    1.389   .     A
C792   H840    1.080   .     S
C793   C881    1.356   .     S
C793   N933    1.438   .     S
C794   C967    1.356   1_455 S
C794   N1021   1.432   1_455 S
C795   N852    1.435   .     S
C795   C804    1.405   .     A
C795   C802    1.419   .     A
C796   C799    1.463   .     S
C796   C1058   1.337   .     S
C796   N1109   1.444   .     S
C797   C798    1.437   .     S
C797   C1318   1.337   1_545 S
C797   H1360   1.086   1_545 S
C798   O865    1.277   .     A
C798   O859    1.276   .     A
C799   O860    1.276   .     A
C799   O866    1.269   .     A
C800   C803    1.457   .     S
C800   O857    1.274   .     A
C800   O855    1.276   .     A
C801   O858    1.293   .     A
C801   C802    1.484   .     S
C801   O856    1.284   .     A
C802   C806    1.399   .     A
C804   C811    1.411   .     A
C804   N851    1.437   .     S
C805   H818    1.111   .     S
C805   H817    1.110   .     S
C805   N847    1.448   .     S
C805   H906    1.111   .     S
C806   H841    1.076   .     S
C806   C810    1.408   .     A
C807   H825    1.110   .     S
C807   N849    1.446   .     S
C807   H824    1.110   .     S
C807   H823    1.112   .     S
C808   N850    1.447   .     S
C808   H830    1.110   .     S
C808   H828    1.112   .     S
C808   H829    1.110   .     S
C809   H837    1.110   .     S
C809   N853    1.447   .     S
C809   H836    1.110   .     S
C809   H839    1.111   .     S
C810   C812    1.427   .     A
C810   C811    1.417   .     A
C811   C32     1.398   1_556 S
C812   C30     1.421   1_556 S
C813   C814    1.424   .     A
C814   N853    1.427   .     S
C814   C815    1.394   .     A
C815   H816    1.083   .     S
H819   C979    1.111   1_455 S
H820   N1109   1.044   .     S
H821   N848    1.046   .     S
H822   N849    1.032   .     S
H826   N850    1.032   .     S
H831   N851    1.045   .     S
H832   N851    1.046   .     S
H833   N852    1.045   .     S
H834   N852    1.045   .     S
H835   N853    1.032   .     S
H838   C1058   1.086   .     S
H843   N846    1.046   .     S
H844   N846    1.045   .     S
H845   N847    1.032   .     S
N846   C967    1.438   1_455 S
N847   C881    1.432   .     S
N848   C1318   1.444   1_545 S
N848   H1342   1.044   1_545 S
O854   Zn868   1.944   .     S
O854   Zn869   1.928   .     S
O854   Zn870   1.938   .     S
O854   Zn867   1.956   .     S
O855   Zn868   1.919   .     S
O856   Zn870   1.929   .     S
O857   Zn869   1.927   .     S
O858   Zn867   1.919   .     S
O859   Zn867   1.928   .     S
O860   Zn870   1.927   .     S
O861   Zn868   1.938   .     S
O862   Zn869   1.947   .     S
O863   Zn870   1.941   .     S
O864   Zn867   1.933   .     S
O865   Zn868   1.934   .     S
O866   Zn869   1.932   .     S
C871   O948    1.267   .     A
C871   O950    1.268   .     A
C871   C881    1.438   .     S
C872   C899    1.414   .     A
C872   H929    1.077   .     S
C872   C873    1.396   .     A
C873   N937    1.425   .     S
C873   C92     1.405   1_556 S
C874   O951    1.269   .     A
C874   O949    1.283   .     A
C874   C880    1.465   .     S
C875   C876    1.420   .     A
C875   C877    1.409   .     A
C876   C879    1.407   .     A
C876   C900    1.425   .     A
C877   C878    1.399   .     A
C877   H914    1.083   .     S
C878   N936    1.422   .     S
C878   C890    1.402   .     A
C879   C890    1.389   .     A
C879   H927    1.080   .     S
C880   C968    1.356   .     S
C880   N1020   1.438   .     S
C882   N939    1.435   .     S
C882   C891    1.405   .     A
C882   C889    1.419   .     A
C883   C886    1.463   .     S
C883   C1145   1.337   .     S
C883   N1196   1.444   .     S
C884   C885    1.437   .     S
C884   C1405   1.337   1_545 S
C884   H1447   1.086   1_545 S
C885   O952    1.277   .     A
C885   O946    1.276   .     A
C886   O947    1.276   .     A
C886   O953    1.269   .     A
C887   C890    1.457   .     S
C887   O944    1.274   .     A
C887   O942    1.276   .     A
C888   O945    1.293   .     A
C888   C889    1.484   .     S
C888   O943    1.284   .     A
C889   C893    1.399   .     A
C891   C898    1.411   .     A
C891   N938    1.437   .     S
C892   H905    1.111   .     S
C892   H904    1.110   .     S
C892   N934    1.448   .     S
C892   H993    1.111   .     S
C893   H928    1.076   .     S
C893   C897    1.408   .     A
C894   H912    1.110   .     S
C894   N936    1.446   .     S
C894   H911    1.110   .     S
C894   H910    1.112   .     S
C895   N937    1.447   .     S
C895   H917    1.110   .     S
C895   H915    1.112   .     S
C895   H916    1.110   .     S
C896   H924    1.110   .     S
C896   N940    1.447   .     S
C896   H923    1.110   .     S
C896   H926    1.111   .     S
C897   C899    1.427   .     A
C897   C898    1.417   .     A
C898   C119    1.398   1_556 S
C899   C117    1.421   1_556 S
C900   C901    1.424   .     A
C901   N940    1.427   .     S
C901   C902    1.394   .     A
C902   H903    1.083   .     S
H907   N1196   1.044   .     S
H908   N935    1.046   .     S
H909   N936    1.032   .     S
H913   N937    1.032   .     S
H918   N938    1.045   .     S
H919   N938    1.046   .     S
H920   N939    1.045   .     S
H921   N939    1.045   .     S
H922   N940    1.032   .     S
H925   C1145   1.086   .     S
H930   N933    1.046   .     S
H931   N933    1.045   .     S
H932   N934    1.032   .     S
N934   C968    1.432   .     S
N935   C1405   1.444   1_545 S
N935   H1429   1.044   1_545 S
O941   Zn955   1.944   .     S
O941   Zn956   1.928   .     S
O941   Zn957   1.938   .     S
O941   Zn954   1.956   .     S
O942   Zn955   1.919   .     S
O943   Zn957   1.929   .     S
O944   Zn956   1.927   .     S
O945   Zn954   1.919   .     S
O946   Zn954   1.928   .     S
O947   Zn957   1.927   .     S
O948   Zn955   1.938   .     S
O949   Zn956   1.947   .     S
O950   Zn957   1.941   .     S
O951   Zn954   1.933   .     S
O952   Zn955   1.934   .     S
O953   Zn956   1.932   .     S
C958   O1035   1.267   .     A
C958   O1037   1.268   .     A
C958   C968    1.438   .     S
C959   C986    1.414   .     A
C959   H1016   1.077   .     S
C959   C960    1.396   .     A
C960   N1024   1.425   .     S
C960   C179    1.405   1_556 S
C961   O1038   1.269   .     A
C961   O1036   1.283   .     A
C961   C967    1.465   .     S
C962   C963    1.420   .     A
C962   C964    1.409   .     A
C963   C966    1.407   .     A
C963   C987    1.425   .     A
C964   C965    1.399   .     A
C964   H1001   1.083   .     S
C965   N1023   1.422   .     S
C965   C977    1.402   .     A
C966   C977    1.389   .     A
C966   H1014   1.080   .     S
C967   C794    1.356   1_655 S
C967   N846    1.438   1_655 S
C969   N1026   1.435   .     S
C969   C978    1.405   .     A
C969   C976    1.419   .     A
C970   C973    1.463   .     S
C970   C1232   1.337   .     S
C970   N1283   1.444   .     S
C971   C972    1.437   .     S
C971   C1492   1.337   1_545 S
C971   H1534   1.086   1_545 S
C972   O1039   1.277   .     A
C972   O1033   1.276   .     A
C973   O1034   1.276   .     A
C973   O1040   1.269   .     A
C974   C977    1.457   .     S
C974   O1031   1.274   .     A
C974   O1029   1.276   .     A
C975   O1032   1.293   .     A
C975   C976    1.484   .     S
C975   O1030   1.284   .     A
C976   C980    1.399   .     A
C978   C985    1.411   .     A
C978   N1025   1.437   .     S
C979   H992    1.111   .     S
C979   H991    1.110   .     S
C979   N1021   1.448   .     S
C979   H819    1.111   1_655 S
C980   H1015   1.076   .     S
C980   C984    1.408   .     A
C981   H999    1.110   .     S
C981   N1023   1.446   .     S
C981   H998    1.110   .     S
C981   H997    1.112   .     S
C982   N1024   1.447   .     S
C982   H1004   1.110   .     S
C982   H1002   1.112   .     S
C982   H1003   1.110   .     S
C983   H1011   1.110   .     S
C983   N1027   1.447   .     S
C983   H1010   1.110   .     S
C983   H1013   1.111   .     S
C984   C986    1.427   .     A
C984   C985    1.417   .     A
C985   C206    1.398   1_556 S
C986   C204    1.421   1_556 S
C987   C988    1.424   .     A
C988   N1027   1.427   .     S
C988   C989    1.394   .     A
C989   H990    1.083   .     S
H994   N1283   1.044   .     S
H995   N1022   1.046   .     S
H996   N1023   1.032   .     S
H1000  N1024   1.032   .     S
H1005  N1025   1.045   .     S
H1006  N1025   1.046   .     S
H1007  N1026   1.045   .     S
H1008  N1026   1.045   .     S
H1009  N1027   1.032   .     S
H1012  C1232   1.086   .     S
H1017  N1020   1.046   .     S
H1018  N1020   1.045   .     S
H1019  N1021   1.032   .     S
N1021  C794    1.432   1_655 S
N1022  C1492   1.444   1_545 S
N1022  H1516   1.044   1_545 S
O1028  Zn1042  1.944   .     S
O1028  Zn1043  1.928   .     S
O1028  Zn1044  1.938   .     S
O1028  Zn1041  1.956   .     S
O1029  Zn1042  1.919   .     S
O1030  Zn1044  1.929   .     S
O1031  Zn1043  1.927   .     S
O1032  Zn1041  1.919   .     S
O1033  Zn1041  1.928   .     S
O1034  Zn1044  1.927   .     S
O1035  Zn1042  1.938   .     S
O1036  Zn1043  1.947   .     S
O1037  Zn1044  1.941   .     S
O1038  Zn1041  1.933   .     S
O1039  Zn1042  1.934   .     S
O1040  Zn1043  1.932   .     S
C1045  O1122   1.267   .     A
C1045  O1124   1.268   .     A
C1045  C1055   1.438   .     S
C1046  C1073   1.414   .     A
C1046  H1103   1.077   .     S
C1046  C1047   1.396   .     A
C1047  N1111   1.425   .     S
C1047  C266    1.405   1_556 S
C1048  O1125   1.269   .     A
C1048  O1123   1.283   .     A
C1048  C1054   1.465   .     S
C1049  C1050   1.420   .     A
C1049  C1051   1.409   .     A
C1050  C1053   1.407   .     A
C1050  C1074   1.425   .     A
C1051  C1052   1.399   .     A
C1051  H1088   1.083   .     S
C1052  N1110   1.422   .     S
C1052  C1064   1.402   .     A
C1053  C1064   1.389   .     A
C1053  H1101   1.080   .     S
C1054  C1142   1.356   .     S
C1054  N1194   1.438   .     S
C1055  C1228   1.356   1_455 S
C1055  N1282   1.432   1_455 S
C1056  N1113   1.435   .     S
C1056  C1065   1.405   .     A
C1056  C1063   1.419   .     A
C1057  C1060   1.463   .     S
C1057  C1319   1.337   .     S
C1057  N1370   1.444   .     S
C1058  C1059   1.437   .     S
C1059  O1126   1.277   .     A
C1059  O1120   1.276   .     A
C1060  O1121   1.276   .     A
C1060  O1127   1.269   .     A
C1061  C1064   1.457   .     S
C1061  O1118   1.274   .     A
C1061  O1116   1.276   .     A
C1062  O1119   1.293   .     A
C1062  C1063   1.484   .     S
C1062  O1117   1.284   .     A
C1063  C1067   1.399   .     A
C1065  C1072   1.411   .     A
C1065  N1112   1.437   .     S
C1066  H1079   1.111   .     S
C1066  H1078   1.110   .     S
C1066  N1108   1.448   .     S
C1066  H1167   1.111   .     S
C1067  H1102   1.076   .     S
C1067  C1071   1.408   .     A
C1068  H1086   1.110   .     S
C1068  N1110   1.446   .     S
C1068  H1085   1.110   .     S
C1068  H1084   1.112   .     S
C1069  N1111   1.447   .     S
C1069  H1091   1.110   .     S
C1069  H1089   1.112   .     S
C1069  H1090   1.110   .     S
C1070  H1098   1.110   .     S
C1070  N1114   1.447   .     S
C1070  H1097   1.110   .     S
C1070  H1100   1.111   .     S
C1071  C1073   1.427   .     A
C1071  C1072   1.417   .     A
C1072  C293    1.398   1_556 S
C1073  C291    1.421   1_556 S
C1074  C1075   1.424   .     A
C1075  N1114   1.427   .     S
C1075  C1076   1.394   .     A
C1076  H1077   1.083   .     S
H1080  C1240   1.111   1_455 S
H1081  N1370   1.044   .     S
H1082  N1109   1.046   .     S
H1083  N1110   1.032   .     S
H1087  N1111   1.032   .     S
H1092  N1112   1.045   .     S
H1093  N1112   1.046   .     S
H1094  N1113   1.045   .     S
H1095  N1113   1.045   .     S
H1096  N1114   1.032   .     S
H1099  C1319   1.086   .     S
H1104  N1107   1.046   .     S
H1105  N1107   1.045   .     S
H1106  N1108   1.032   .     S
N1107  C1228   1.438   1_455 S
N1108  C1142   1.432   .     S
O1115  Zn1129  1.944   .     S
O1115  Zn1130  1.928   .     S
O1115  Zn1131  1.938   .     S
O1115  Zn1128  1.956   .     S
O1116  Zn1129  1.919   .     S
O1117  Zn1131  1.929   .     S
O1118  Zn1130  1.927   .     S
O1119  Zn1128  1.919   .     S
O1120  Zn1128  1.928   .     S
O1121  Zn1131  1.927   .     S
O1122  Zn1129  1.938   .     S
O1123  Zn1130  1.947   .     S
O1124  Zn1131  1.941   .     S
O1125  Zn1128  1.933   .     S
O1126  Zn1129  1.934   .     S
O1127  Zn1130  1.932   .     S
C1132  O1209   1.267   .     A
C1132  O1211   1.268   .     A
C1132  C1142   1.438   .     S
C1133  C1160   1.414   .     A
C1133  H1190   1.077   .     S
C1133  C1134   1.396   .     A
C1134  N1198   1.425   .     S
C1134  C353    1.405   1_556 S
C1135  O1212   1.269   .     A
C1135  O1210   1.283   .     A
C1135  C1141   1.465   .     S
C1136  C1137   1.420   .     A
C1136  C1138   1.409   .     A
C1137  C1140   1.407   .     A
C1137  C1161   1.425   .     A
C1138  C1139   1.399   .     A
C1138  H1175   1.083   .     S
C1139  N1197   1.422   .     S
C1139  C1151   1.402   .     A
C1140  C1151   1.389   .     A
C1140  H1188   1.080   .     S
C1141  C1229   1.356   .     S
C1141  N1281   1.438   .     S
C1143  N1200   1.435   .     S
C1143  C1152   1.405   .     A
C1143  C1150   1.419   .     A
C1144  C1147   1.463   .     S
C1144  C1406   1.337   .     S
C1144  N1457   1.444   .     S
C1145  C1146   1.437   .     S
C1146  O1213   1.277   .     A
C1146  O1207   1.276   .     A
C1147  O1208   1.276   .     A
C1147  O1214   1.269   .     A
C1148  C1151   1.457   .     S
C1148  O1205   1.274   .     A
C1148  O1203   1.276   .     A
C1149  O1206   1.293   .     A
C1149  C1150   1.484   .     S
C1149  O1204   1.284   .     A
C1150  C1154   1.399   .     A
C1152  C1159   1.411   .     A
C1152  N1199   1.437   .     S
C1153  H1166   1.111   .     S
C1153  H1165   1.110   .     S
C1153  N1195   1.448   .     S
C1153  H1254   1.111   .     S
C1154  H1189   1.076   .     S
C1154  C1158   1.408   .     A
C1155  H1173   1.110   .     S
C1155  N1197   1.446   .     S
C1155  H1172   1.110   .     S
C1155  H1171   1.112   .     S
C1156  N1198   1.447   .     S
C1156  H1178   1.110   .     S
C1156  H1176   1.112   .     S
C1156  H1177   1.110   .     S
C1157  H1185   1.110   .     S
C1157  N1201   1.447   .     S
C1157  H1184   1.110   .     S
C1157  H1187   1.111   .     S
C1158  C1160   1.427   .     A
C1158  C1159   1.417   .     A
C1159  C380    1.398   1_556 S
C1160  C378    1.421   1_556 S
C1161  C1162   1.424   .     A
C1162  N1201   1.427   .     S
C1162  C1163   1.394   .     A
C1163  H1164   1.083   .     S
H1168  N1457   1.044   .     S
H1169  N1196   1.046   .     S
H1170  N1197   1.032   .     S
H1174  N1198   1.032   .     S
H1179  N1199   1.045   .     S
H1180  N1199   1.046   .     S
H1181  N1200   1.045   .     S
H1182  N1200   1.045   .     S
H1183  N1201   1.032   .     S
H1186  C1406   1.086   .     S
H1191  N1194   1.046   .     S
H1192  N1194   1.045   .     S
H1193  N1195   1.032   .     S
N1195  C1229   1.432   .     S
O1202  Zn1216  1.944   .     S
O1202  Zn1217  1.928   .     S
O1202  Zn1218  1.938   .     S
O1202  Zn1215  1.956   .     S
O1203  Zn1216  1.919   .     S
O1204  Zn1218  1.929   .     S
O1205  Zn1217  1.927   .     S
O1206  Zn1215  1.919   .     S
O1207  Zn1215  1.928   .     S
O1208  Zn1218  1.927   .     S
O1209  Zn1216  1.938   .     S
O1210  Zn1217  1.947   .     S
O1211  Zn1218  1.941   .     S
O1212  Zn1215  1.933   .     S
O1213  Zn1216  1.934   .     S
O1214  Zn1217  1.932   .     S
C1219  O1296   1.267   .     A
C1219  O1298   1.268   .     A
C1219  C1229   1.438   .     S
C1220  C1247   1.414   .     A
C1220  H1277   1.077   .     S
C1220  C1221   1.396   .     A
C1221  N1285   1.425   .     S
C1221  C440    1.405   1_556 S
C1222  O1299   1.269   .     A
C1222  O1297   1.283   .     A
C1222  C1228   1.465   .     S
C1223  C1224   1.420   .     A
C1223  C1225   1.409   .     A
C1224  C1227   1.407   .     A
C1224  C1248   1.425   .     A
C1225  C1226   1.399   .     A
C1225  H1262   1.083   .     S
C1226  N1284   1.422   .     S
C1226  C1238   1.402   .     A
C1227  C1238   1.389   .     A
C1227  H1275   1.080   .     S
C1228  C1055   1.356   1_655 S
C1228  N1107   1.438   1_655 S
C1230  N1287   1.435   .     S
C1230  C1239   1.405   .     A
C1230  C1237   1.419   .     A
C1231  C1234   1.463   .     S
C1231  C1493   1.337   .     S
C1231  N1544   1.444   .     S
C1232  C1233   1.437   .     S
C1233  O1300   1.277   .     A
C1233  O1294   1.276   .     A
C1234  O1295   1.276   .     A
C1234  O1301   1.269   .     A
C1235  C1238   1.457   .     S
C1235  O1292   1.274   .     A
C1235  O1290   1.276   .     A
C1236  O1293   1.293   .     A
C1236  C1237   1.484   .     S
C1236  O1291   1.284   .     A
C1237  C1241   1.399   .     A
C1239  C1246   1.411   .     A
C1239  N1286   1.437   .     S
C1240  H1253   1.111   .     S
C1240  H1252   1.110   .     S
C1240  N1282   1.448   .     S
C1240  H1080   1.111   1_655 S
C1241  H1276   1.076   .     S
C1241  C1245   1.408   .     A
C1242  H1260   1.110   .     S
C1242  N1284   1.446   .     S
C1242  H1259   1.110   .     S
C1242  H1258   1.112   .     S
C1243  N1285   1.447   .     S
C1243  H1265   1.110   .     S
C1243  H1263   1.112   .     S
C1243  H1264   1.110   .     S
C1244  H1272   1.110   .     S
C1244  N1288   1.447   .     S
C1244  H1271   1.110   .     S
C1244  H1274   1.111   .     S
C1245  C1247   1.427   .     A
C1245  C1246   1.417   .     A
C1246  C467    1.398   1_556 S
C1247  C465    1.421   1_556 S
C1248  C1249   1.424   .     A
C1249  N1288   1.427   .     S
C1249  C1250   1.394   .     A
C1250  H1251   1.083   .     S
H1255  N1544   1.044   .     S
H1256  N1283   1.046   .     S
H1257  N1284   1.032   .     S
H1261  N1285   1.032   .     S
H1266  N1286   1.045   .     S
H1267  N1286   1.046   .     S
H1268  N1287   1.045   .     S
H1269  N1287   1.045   .     S
H1270  N1288   1.032   .     S
H1273  C1493   1.086   .     S
H1278  N1281   1.046   .     S
H1279  N1281   1.045   .     S
H1280  N1282   1.032   .     S
N1282  C1055   1.432   1_655 S
O1289  Zn1303  1.944   .     S
O1289  Zn1304  1.928   .     S
O1289  Zn1305  1.938   .     S
O1289  Zn1302  1.956   .     S
O1290  Zn1303  1.919   .     S
O1291  Zn1305  1.929   .     S
O1292  Zn1304  1.927   .     S
O1293  Zn1302  1.919   .     S
O1294  Zn1302  1.928   .     S
O1295  Zn1305  1.927   .     S
O1296  Zn1303  1.938   .     S
O1297  Zn1304  1.947   .     S
O1298  Zn1305  1.941   .     S
O1299  Zn1302  1.933   .     S
O1300  Zn1303  1.934   .     S
O1301  Zn1304  1.932   .     S
C1306  O1383   1.267   .     A
C1306  O1385   1.268   .     A
C1306  C1316   1.438   .     S
C1307  C1334   1.414   .     A
C1307  H1364   1.077   .     S
C1307  C1308   1.396   .     A
C1308  N1372   1.425   .     S
C1308  C527    1.405   1_556 S
C1309  O1386   1.269   .     A
C1309  O1384   1.283   .     A
C1309  C1315   1.465   .     S
C1310  C1311   1.420   .     A
C1310  C1312   1.409   .     A
C1311  C1314   1.407   .     A
C1311  C1335   1.425   .     A
C1312  C1313   1.399   .     A
C1312  H1349   1.083   .     S
C1313  N1371   1.422   .     S
C1313  C1325   1.402   .     A
C1314  C1325   1.389   .     A
C1314  H1362   1.080   .     S
C1315  C1403   1.356   .     S
C1315  N1455   1.438   .     S
C1316  C1489   1.356   1_455 S
C1316  N1543   1.432   1_455 S
C1317  N1374   1.435   .     S
C1317  C1326   1.405   .     A
C1317  C1324   1.419   .     A
C1318  C1321   1.463   .     S
C1318  C797    1.337   1_565 S
C1318  N848    1.444   1_565 S
C1319  C1320   1.437   .     S
C1320  O1387   1.277   .     A
C1320  O1381   1.276   .     A
C1321  O1382   1.276   .     A
C1321  O1388   1.269   .     A
C1322  C1325   1.457   .     S
C1322  O1379   1.274   .     A
C1322  O1377   1.276   .     A
C1323  O1380   1.293   .     A
C1323  C1324   1.484   .     S
C1323  O1378   1.284   .     A
C1324  C1328   1.399   .     A
C1326  C1333   1.411   .     A
C1326  N1373   1.437   .     S
C1327  H1340   1.111   .     S
C1327  H1339   1.110   .     S
C1327  N1369   1.448   .     S
C1327  H1428   1.111   .     S
C1328  H1363   1.076   .     S
C1328  C1332   1.408   .     A
C1329  H1347   1.110   .     S
C1329  N1371   1.446   .     S
C1329  H1346   1.110   .     S
C1329  H1345   1.112   .     S
C1330  N1372   1.447   .     S
C1330  H1352   1.110   .     S
C1330  H1350   1.112   .     S
C1330  H1351   1.110   .     S
C1331  H1359   1.110   .     S
C1331  N1375   1.447   .     S
C1331  H1358   1.110   .     S
C1331  H1361   1.111   .     S
C1332  C1334   1.427   .     A
C1332  C1333   1.417   .     A
C1333  C554    1.398   1_556 S
C1334  C552    1.421   1_556 S
C1335  C1336   1.424   .     A
C1336  N1375   1.427   .     S
C1336  C1337   1.394   .     A
C1337  H1338   1.083   .     S
H1341  C1501   1.111   1_455 S
H1342  N848    1.044   1_565 S
H1343  N1370   1.046   .     S
H1344  N1371   1.032   .     S
H1348  N1372   1.032   .     S
H1353  N1373   1.045   .     S
H1354  N1373   1.046   .     S
H1355  N1374   1.045   .     S
H1356  N1374   1.045   .     S
H1357  N1375   1.032   .     S
H1360  C797    1.086   1_565 S
H1365  N1368   1.046   .     S
H1366  N1368   1.045   .     S
H1367  N1369   1.032   .     S
N1368  C1489   1.438   1_455 S
N1369  C1403   1.432   .     S
O1376  Zn1390  1.944   .     S
O1376  Zn1391  1.928   .     S
O1376  Zn1392  1.938   .     S
O1376  Zn1389  1.956   .     S
O1377  Zn1390  1.919   .     S
O1378  Zn1392  1.929   .     S
O1379  Zn1391  1.927   .     S
O1380  Zn1389  1.919   .     S
O1381  Zn1389  1.928   .     S
O1382  Zn1392  1.927   .     S
O1383  Zn1390  1.938   .     S
O1384  Zn1391  1.947   .     S
O1385  Zn1392  1.941   .     S
O1386  Zn1389  1.933   .     S
O1387  Zn1390  1.934   .     S
O1388  Zn1391  1.932   .     S
C1393  O1470   1.267   .     A
C1393  O1472   1.268   .     A
C1393  C1403   1.438   .     S
C1394  C1421   1.414   .     A
C1394  H1451   1.077   .     S
C1394  C1395   1.396   .     A
C1395  N1459   1.425   .     S
C1395  C614    1.405   1_556 S
C1396  O1473   1.269   .     A
C1396  O1471   1.283   .     A
C1396  C1402   1.465   .     S
C1397  C1398   1.420   .     A
C1397  C1399   1.409   .     A
C1398  C1401   1.407   .     A
C1398  C1422   1.425   .     A
C1399  C1400   1.399   .     A
C1399  H1436   1.083   .     S
C1400  N1458   1.422   .     S
C1400  C1412   1.402   .     A
C1401  C1412   1.389   .     A
C1401  H1449   1.080   .     S
C1402  C1490   1.356   .     S
C1402  N1542   1.438   .     S
C1404  N1461   1.435   .     S
C1404  C1413   1.405   .     A
C1404  C1411   1.419   .     A
C1405  C1408   1.463   .     S
C1405  C884    1.337   1_565 S
C1405  N935    1.444   1_565 S
C1406  C1407   1.437   .     S
C1407  O1474   1.277   .     A
C1407  O1468   1.276   .     A
C1408  O1469   1.276   .     A
C1408  O1475   1.269   .     A
C1409  C1412   1.457   .     S
C1409  O1466   1.274   .     A
C1409  O1464   1.276   .     A
C1410  O1467   1.293   .     A
C1410  C1411   1.484   .     S
C1410  O1465   1.284   .     A
C1411  C1415   1.399   .     A
C1413  C1420   1.411   .     A
C1413  N1460   1.437   .     S
C1414  H1427   1.111   .     S
C1414  H1426   1.110   .     S
C1414  N1456   1.448   .     S
C1414  H1515   1.111   .     S
C1415  H1450   1.076   .     S
C1415  C1419   1.408   .     A
C1416  H1434   1.110   .     S
C1416  N1458   1.446   .     S
C1416  H1433   1.110   .     S
C1416  H1432   1.112   .     S
C1417  N1459   1.447   .     S
C1417  H1439   1.110   .     S
C1417  H1437   1.112   .     S
C1417  H1438   1.110   .     S
C1418  H1446   1.110   .     S
C1418  N1462   1.447   .     S
C1418  H1445   1.110   .     S
C1418  H1448   1.111   .     S
C1419  C1421   1.427   .     A
C1419  C1420   1.417   .     A
C1420  C641    1.398   1_556 S
C1421  C639    1.421   1_556 S
C1422  C1423   1.424   .     A
C1423  N1462   1.427   .     S
C1423  C1424   1.394   .     A
C1424  H1425   1.083   .     S
H1429  N935    1.044   1_565 S
H1430  N1457   1.046   .     S
H1431  N1458   1.032   .     S
H1435  N1459   1.032   .     S
H1440  N1460   1.045   .     S
H1441  N1460   1.046   .     S
H1442  N1461   1.045   .     S
H1443  N1461   1.045   .     S
H1444  N1462   1.032   .     S
H1447  C884    1.086   1_565 S
H1452  N1455   1.046   .     S
H1453  N1455   1.045   .     S
H1454  N1456   1.032   .     S
N1456  C1490   1.432   .     S
O1463  Zn1477  1.944   .     S
O1463  Zn1478  1.928   .     S
O1463  Zn1479  1.938   .     S
O1463  Zn1476  1.956   .     S
O1464  Zn1477  1.919   .     S
O1465  Zn1479  1.929   .     S
O1466  Zn1478  1.927   .     S
O1467  Zn1476  1.919   .     S
O1468  Zn1476  1.928   .     S
O1469  Zn1479  1.927   .     S
O1470  Zn1477  1.938   .     S
O1471  Zn1478  1.947   .     S
O1472  Zn1479  1.941   .     S
O1473  Zn1476  1.933   .     S
O1474  Zn1477  1.934   .     S
O1475  Zn1478  1.932   .     S
C1480  O1557   1.267   .     A
C1480  O1559   1.268   .     A
C1480  C1490   1.438   .     S
C1481  C1508   1.414   .     A
C1481  H1538   1.077   .     S
C1481  C1482   1.396   .     A
C1482  N1546   1.425   .     S
C1482  C701    1.405   1_556 S
C1483  O1560   1.269   .     A
C1483  O1558   1.283   .     A
C1483  C1489   1.465   .     S
C1484  C1485   1.420   .     A
C1484  C1486   1.409   .     A
C1485  C1488   1.407   .     A
C1485  C1509   1.425   .     A
C1486  C1487   1.399   .     A
C1486  H1523   1.083   .     S
C1487  N1545   1.422   .     S
C1487  C1499   1.402   .     A
C1488  C1499   1.389   .     A
C1488  H1536   1.080   .     S
C1489  C1316   1.356   1_655 S
C1489  N1368   1.438   1_655 S
C1491  N1548   1.435   .     S
C1491  C1500   1.405   .     A
C1491  C1498   1.419   .     A
C1492  C1495   1.463   .     S
C1492  C971    1.337   1_565 S
C1492  N1022   1.444   1_565 S
C1493  C1494   1.437   .     S
C1494  O1561   1.277   .     A
C1494  O1555   1.276   .     A
C1495  O1556   1.276   .     A
C1495  O1562   1.269   .     A
C1496  C1499   1.457   .     S
C1496  O1553   1.274   .     A
C1496  O1551   1.276   .     A
C1497  O1554   1.293   .     A
C1497  C1498   1.484   .     S
C1497  O1552   1.284   .     A
C1498  C1502   1.399   .     A
C1500  C1507   1.411   .     A
C1500  N1547   1.437   .     S
C1501  H1514   1.111   .     S
C1501  H1513   1.110   .     S
C1501  N1543   1.448   .     S
C1501  H1341   1.111   1_655 S
C1502  H1537   1.076   .     S
C1502  C1506   1.408   .     A
C1503  H1521   1.110   .     S
C1503  N1545   1.446   .     S
C1503  H1520   1.110   .     S
C1503  H1519   1.112   .     S
C1504  N1546   1.447   .     S
C1504  H1526   1.110   .     S
C1504  H1524   1.112   .     S
C1504  H1525   1.110   .     S
C1505  H1533   1.110   .     S
C1505  N1549   1.447   .     S
C1505  H1532   1.110   .     S
C1505  H1535   1.111   .     S
C1506  C1508   1.427   .     A
C1506  C1507   1.417   .     A
C1507  C728    1.398   1_556 S
C1508  C726    1.421   1_556 S
C1509  C1510   1.424   .     A
C1510  N1549   1.427   .     S
C1510  C1511   1.394   .     A
C1511  H1512   1.083   .     S
H1516  N1022   1.044   1_565 S
H1517  N1544   1.046   .     S
H1518  N1545   1.032   .     S
H1522  N1546   1.032   .     S
H1527  N1547   1.045   .     S
H1528  N1547   1.046   .     S
H1529  N1548   1.045   .     S
H1530  N1548   1.045   .     S
H1531  N1549   1.032   .     S
H1534  C971    1.086   1_565 S
H1539  N1542   1.046   .     S
H1540  N1542   1.045   .     S
H1541  N1543   1.032   .     S
N1543  C1316   1.432   1_655 S
O1550  Zn1564  1.944   .     S
O1550  Zn1565  1.928   .     S
O1550  Zn1566  1.938   .     S
O1550  Zn1563  1.956   .     S
O1551  Zn1564  1.919   .     S
O1552  Zn1566  1.929   .     S
O1553  Zn1565  1.927   .     S
O1554  Zn1563  1.919   .     S
O1555  Zn1563  1.928   .     S
O1556  Zn1566  1.927   .     S
O1557  Zn1564  1.938   .     S
O1558  Zn1565  1.947   .     S
O1559  Zn1566  1.941   .     S
O1560  Zn1563  1.933   .     S
O1561  Zn1564  1.934   .     S
O1562  Zn1565  1.932   .     S
