data_str_m3_o10_o16_pcu_sym.75
_audit_creation_date              2020-01-03
_audit_creation_method            'Materials Studio'
_symmetry_space_group_name_H-M    'P1'
_symmetry_Int_Tables_number       1
_symmetry_cell_setting            triclinic
loop_
_symmetry_equiv_pos_as_xyz
  x,y,z
_cell_length_a                    23.5451
_cell_length_b                    25.8342
_cell_length_c                    24.1674
_cell_angle_alpha                 92.9008
_cell_angle_beta                  100.7849
_cell_angle_gamma                 93.4400
loop_
_atom_site_label
_atom_site_type_symbol
_atom_site_fract_x
_atom_site_fract_y
_atom_site_fract_z
_atom_site_U_iso_or_equiv
_atom_site_adp_type
_atom_site_occupancy
Br1    Br    0.15795   0.10087   0.18237   0.00000  Uiso   1.00
Br2    Br    0.21438   0.04821   0.38084   0.00000  Uiso   1.00
Br3    Br    0.28841   0.23775   0.42463   0.00000  Uiso   1.00
Br4    Br    0.12260   0.21333   0.11134   0.00000  Uiso   1.00
C5     C     0.01390   0.26467   0.24740   0.00000  Uiso   1.00
C6     C     0.05446   0.17400   0.41712   0.00000  Uiso   1.00
C7     C     0.02183   0.31894   0.25853   0.00000  Uiso   1.00
C8     C     0.03560   0.16975   0.35556   0.00000  Uiso   1.00
C9     C     0.30911   0.01414   0.24220   0.00000  Uiso   1.00
C10    C     0.31869   0.06853   0.25143   0.00000  Uiso   1.00
C11    C     0.29811   0.16428   0.14489   0.00000  Uiso   1.00
C12    C     0.27279   0.10115   0.00092   0.00000  Uiso   1.00
C13    C     0.27950   0.15672   0.08468   0.00000  Uiso   1.00
C14    C     0.02626   0.20586   0.45109   0.00000  Uiso   1.00
C15    C     0.05056   0.21659   0.00745   0.00000  Uiso   1.00
C16    C     0.13550   0.16972   0.49626   0.00000  Uiso   1.00
C17    C     0.10425   0.19956   0.03072   0.00000  Uiso   1.00
C18    C     0.20605   0.32072   0.22997   0.00000  Uiso   1.00
C19    C     0.06000   0.32686   0.35802   0.00000  Uiso   1.00
C20    C     0.10636   0.15204   0.44136   0.00000  Uiso   1.00
C21    C     0.19345   0.15563   0.01334   0.00000  Uiso   1.00
C22    C     0.21717   0.11772   0.48079   0.00000  Uiso   1.00
C23    C     0.18474   0.09681   0.42952   0.00000  Uiso   1.00
C24    C     0.12994   0.11314   0.41106   0.00000  Uiso   1.00
C25    C     0.22983   0.17942   0.06083   0.00000  Uiso   1.00
C26    C     0.30273   0.11896   0.05404   0.00000  Uiso   1.00
H27    H     0.00899   0.10172   0.07203   0.00000  Uiso   1.00
H28    H     0.21011   0.28844   0.25849   0.00000  Uiso   1.00
H29    H     0.10848   0.32589   0.29496   0.00000  Uiso   1.00
H30    H     0.09891   0.00632   0.39016   0.00000  Uiso   1.00
H31    H     0.05186   0.28442   0.36116   0.00000  Uiso   1.00
H32    H     0.02260   0.01402   0.36792   0.00000  Uiso   1.00
H33    H     0.17666   0.20760   0.29289   0.00000  Uiso   1.00
H34    H     0.29194   0.07213   0.47786   0.00000  Uiso   1.00
H35    H     0.22002   0.21471   0.08131   0.00000  Uiso   1.00
H36    H     0.02729   0.23922   0.03367   0.00000  Uiso   1.00
H37    H     0.10578   0.09443   0.37224   0.00000  Uiso   1.00
H38    H     0.26071   0.29877   0.17496   0.00000  Uiso   1.00
H39    H     0.16703   0.31178   0.19643   0.00000  Uiso   1.00
H40    H     0.19966   0.02284   0.25507   0.00000  Uiso   1.00
N41    N     0.14493   0.15223   0.23542   0.00000  Uiso   1.00
N42    N     0.18840   0.18110   0.26457   0.00000  Uiso   1.00
N43    N     0.25683   0.32794   0.20451   0.00000  Uiso   1.00
N44    N     0.06938   0.00468   0.30201   0.00000  Uiso   1.00
O45    O     0.29769   0.24629   0.25357   0.00000  Uiso   1.00
O46    O     0.05742   0.23704   0.24424   0.00000  Uiso   1.00
O47    O     0.31490   0.17358   0.33380   0.00000  Uiso   1.00
O48    O     0.07463   0.16433   0.32446   0.00000  Uiso   1.00
O49    O     0.27592   0.09629   0.25576   0.00000  Uiso   1.00
O50    O     0.03565   0.08704   0.24643   0.00000  Uiso   1.00
O51    O     0.25870   0.16901   0.17554   0.00000  Uiso   1.00
O52    O     0.01843   0.15976   0.16620   0.00000  Uiso   1.00
Zn53   Zn    0.27119   0.17284   0.25623   0.00000  Uiso   1.00
Zn54   Zn    0.06214   0.16049   0.24377   0.00000  Uiso   1.00
Br55   Br    0.49128   0.10087   0.18237   0.00000  Uiso   1.00
Br56   Br    0.54771   0.04821   0.38084   0.00000  Uiso   1.00
Br57   Br    0.62175   0.23775   0.42463   0.00000  Uiso   1.00
Br58   Br    0.45593   0.21333   0.11134   0.00000  Uiso   1.00
C59    C     0.34723   0.26467   0.24740   0.00000  Uiso   1.00
C60    C     0.38780   0.17400   0.41712   0.00000  Uiso   1.00
C61    C     0.35516   0.31894   0.25853   0.00000  Uiso   1.00
C62    C     0.36894   0.16975   0.35556   0.00000  Uiso   1.00
C63    C     0.64245   0.01414   0.24220   0.00000  Uiso   1.00
C64    C     0.65203   0.06853   0.25143   0.00000  Uiso   1.00
C65    C     0.63144   0.16428   0.14489   0.00000  Uiso   1.00
C66    C     0.60612   0.10115   0.00092   0.00000  Uiso   1.00
C67    C     0.61283   0.15672   0.08468   0.00000  Uiso   1.00
C68    C     0.35959   0.20586   0.45109   0.00000  Uiso   1.00
C69    C     0.38389   0.21659   0.00745   0.00000  Uiso   1.00
C70    C     0.46883   0.16972   0.49626   0.00000  Uiso   1.00
C71    C     0.43758   0.19956   0.03072   0.00000  Uiso   1.00
C72    C     0.53939   0.32072   0.22997   0.00000  Uiso   1.00
C73    C     0.39334   0.32686   0.35802   0.00000  Uiso   1.00
C74    C     0.43970   0.15204   0.44136   0.00000  Uiso   1.00
C75    C     0.52678   0.15563   0.01334   0.00000  Uiso   1.00
C76    C     0.55050   0.11772   0.48079   0.00000  Uiso   1.00
C77    C     0.51807   0.09681   0.42952   0.00000  Uiso   1.00
C78    C     0.46328   0.11314   0.41106   0.00000  Uiso   1.00
C79    C     0.56316   0.17942   0.06083   0.00000  Uiso   1.00
C80    C     0.63606   0.11896   0.05404   0.00000  Uiso   1.00
H81    H     0.34232   0.10172   0.07203   0.00000  Uiso   1.00
H82    H     0.54345   0.28844   0.25849   0.00000  Uiso   1.00
H83    H     0.44182   0.32589   0.29496   0.00000  Uiso   1.00
H84    H     0.43225   0.00632   0.39016   0.00000  Uiso   1.00
H85    H     0.38519   0.28442   0.36116   0.00000  Uiso   1.00
H86    H     0.35594   0.01402   0.36792   0.00000  Uiso   1.00
H87    H     0.51000   0.20760   0.29289   0.00000  Uiso   1.00
H88    H     0.62528   0.07213   0.47786   0.00000  Uiso   1.00
H89    H     0.55335   0.21471   0.08131   0.00000  Uiso   1.00
H90    H     0.36062   0.23922   0.03367   0.00000  Uiso   1.00
H91    H     0.43912   0.09443   0.37224   0.00000  Uiso   1.00
H92    H     0.59405   0.29877   0.17496   0.00000  Uiso   1.00
H93    H     0.50036   0.31178   0.19643   0.00000  Uiso   1.00
H94    H     0.53299   0.02284   0.25507   0.00000  Uiso   1.00
N95    N     0.47827   0.15223   0.23542   0.00000  Uiso   1.00
N96    N     0.52173   0.18110   0.26457   0.00000  Uiso   1.00
N97    N     0.59016   0.32794   0.20451   0.00000  Uiso   1.00
N98    N     0.40271   0.00468   0.30201   0.00000  Uiso   1.00
O99    O     0.63102   0.24629   0.25357   0.00000  Uiso   1.00
O100   O     0.39075   0.23704   0.24424   0.00000  Uiso   1.00
O101   O     0.64823   0.17358   0.33380   0.00000  Uiso   1.00
O102   O     0.40796   0.16433   0.32446   0.00000  Uiso   1.00
O103   O     0.60925   0.09629   0.25576   0.00000  Uiso   1.00
O104   O     0.36898   0.08704   0.24643   0.00000  Uiso   1.00
O105   O     0.59204   0.16901   0.17554   0.00000  Uiso   1.00
O106   O     0.35177   0.15976   0.16620   0.00000  Uiso   1.00
Zn107  Zn    0.60453   0.17284   0.25623   0.00000  Uiso   1.00
Zn108  Zn    0.39547   0.16049   0.24377   0.00000  Uiso   1.00
Br109  Br    0.82462   0.10087   0.18237   0.00000  Uiso   1.00
Br110  Br    0.88104   0.04821   0.38084   0.00000  Uiso   1.00
Br111  Br    0.95508   0.23775   0.42463   0.00000  Uiso   1.00
Br112  Br    0.78927   0.21333   0.11134   0.00000  Uiso   1.00
C113   C     0.68056   0.26467   0.24740   0.00000  Uiso   1.00
C114   C     0.72113   0.17400   0.41712   0.00000  Uiso   1.00
C115   C     0.68849   0.31894   0.25853   0.00000  Uiso   1.00
C116   C     0.70227   0.16975   0.35556   0.00000  Uiso   1.00
C117   C     0.97578   0.01414   0.24220   0.00000  Uiso   1.00
C118   C     0.98536   0.06853   0.25143   0.00000  Uiso   1.00
C119   C     0.96478   0.16428   0.14489   0.00000  Uiso   1.00
C120   C     0.93946   0.10115   0.00092   0.00000  Uiso   1.00
C121   C     0.94617   0.15672   0.08468   0.00000  Uiso   1.00
C122   C     0.69293   0.20586   0.45109   0.00000  Uiso   1.00
C123   C     0.71723   0.21659   0.00745   0.00000  Uiso   1.00
C124   C     0.80216   0.16972   0.49626   0.00000  Uiso   1.00
C125   C     0.77092   0.19956   0.03072   0.00000  Uiso   1.00
C126   C     0.87272   0.32072   0.22997   0.00000  Uiso   1.00
C127   C     0.72667   0.32686   0.35802   0.00000  Uiso   1.00
C128   C     0.77303   0.15204   0.44136   0.00000  Uiso   1.00
C129   C     0.86011   0.15563   0.01334   0.00000  Uiso   1.00
C130   C     0.88384   0.11772   0.48079   0.00000  Uiso   1.00
C131   C     0.85140   0.09681   0.42952   0.00000  Uiso   1.00
C132   C     0.79661   0.11314   0.41106   0.00000  Uiso   1.00
C133   C     0.89649   0.17942   0.06083   0.00000  Uiso   1.00
C134   C     0.96940   0.11896   0.05404   0.00000  Uiso   1.00
H135   H     0.67565   0.10172   0.07203   0.00000  Uiso   1.00
H136   H     0.87678   0.28844   0.25849   0.00000  Uiso   1.00
H137   H     0.77515   0.32589   0.29496   0.00000  Uiso   1.00
H138   H     0.76558   0.00632   0.39016   0.00000  Uiso   1.00
H139   H     0.71853   0.28442   0.36116   0.00000  Uiso   1.00
H140   H     0.68927   0.01402   0.36792   0.00000  Uiso   1.00
H141   H     0.84333   0.20760   0.29289   0.00000  Uiso   1.00
H142   H     0.95861   0.07213   0.47786   0.00000  Uiso   1.00
H143   H     0.88668   0.21471   0.08131   0.00000  Uiso   1.00
H144   H     0.69396   0.23922   0.03367   0.00000  Uiso   1.00
H145   H     0.77245   0.09443   0.37224   0.00000  Uiso   1.00
H146   H     0.92738   0.29877   0.17496   0.00000  Uiso   1.00
H147   H     0.83370   0.31178   0.19643   0.00000  Uiso   1.00
H148   H     0.86633   0.02284   0.25507   0.00000  Uiso   1.00
N149   N     0.81160   0.15223   0.23542   0.00000  Uiso   1.00
N150   N     0.85507   0.18110   0.26457   0.00000  Uiso   1.00
N151   N     0.92350   0.32794   0.20451   0.00000  Uiso   1.00
N152   N     0.73604   0.00468   0.30201   0.00000  Uiso   1.00
O153   O     0.96435   0.24629   0.25357   0.00000  Uiso   1.00
O154   O     0.72408   0.23704   0.24424   0.00000  Uiso   1.00
O155   O     0.98157   0.17358   0.33380   0.00000  Uiso   1.00
O156   O     0.74130   0.16433   0.32446   0.00000  Uiso   1.00
O157   O     0.94258   0.09629   0.25576   0.00000  Uiso   1.00
O158   O     0.70231   0.08704   0.24643   0.00000  Uiso   1.00
O159   O     0.92537   0.16901   0.17554   0.00000  Uiso   1.00
O160   O     0.68510   0.15976   0.16620   0.00000  Uiso   1.00
Zn161  Zn    0.93786   0.17284   0.25623   0.00000  Uiso   1.00
Zn162  Zn    0.72881   0.16049   0.24377   0.00000  Uiso   1.00
Br163  Br    0.15795   0.43421   0.18237   0.00000  Uiso   1.00
Br164  Br    0.21438   0.38154   0.38084   0.00000  Uiso   1.00
Br165  Br    0.28841   0.57109   0.42463   0.00000  Uiso   1.00
Br166  Br    0.12260   0.54667   0.11134   0.00000  Uiso   1.00
C167   C     0.01390   0.59801   0.24740   0.00000  Uiso   1.00
C168   C     0.05446   0.50733   0.41712   0.00000  Uiso   1.00
C169   C     0.02183   0.65227   0.25853   0.00000  Uiso   1.00
C170   C     0.03560   0.50308   0.35556   0.00000  Uiso   1.00
C171   C     0.30911   0.34748   0.24220   0.00000  Uiso   1.00
C172   C     0.31869   0.40187   0.25143   0.00000  Uiso   1.00
C173   C     0.29811   0.49762   0.14489   0.00000  Uiso   1.00
C174   C     0.27279   0.43448   0.00092   0.00000  Uiso   1.00
C175   C     0.27950   0.49005   0.08468   0.00000  Uiso   1.00
C176   C     0.02626   0.53919   0.45109   0.00000  Uiso   1.00
C177   C     0.05056   0.54992   0.00745   0.00000  Uiso   1.00
C178   C     0.13550   0.50305   0.49626   0.00000  Uiso   1.00
C179   C     0.10425   0.53289   0.03072   0.00000  Uiso   1.00
C180   C     0.20605   0.65405   0.22997   0.00000  Uiso   1.00
C181   C     0.06000   0.66019   0.35802   0.00000  Uiso   1.00
C182   C     0.10636   0.48537   0.44136   0.00000  Uiso   1.00
C183   C     0.19345   0.48896   0.01334   0.00000  Uiso   1.00
C184   C     0.21717   0.45105   0.48079   0.00000  Uiso   1.00
C185   C     0.18474   0.43014   0.42952   0.00000  Uiso   1.00
C186   C     0.12994   0.44647   0.41106   0.00000  Uiso   1.00
C187   C     0.22983   0.51275   0.06083   0.00000  Uiso   1.00
C188   C     0.30273   0.45230   0.05404   0.00000  Uiso   1.00
H189   H     0.00899   0.43506   0.07203   0.00000  Uiso   1.00
H190   H     0.21011   0.62178   0.25849   0.00000  Uiso   1.00
H191   H     0.10848   0.65922   0.29496   0.00000  Uiso   1.00
H192   H     0.09891   0.33966   0.39016   0.00000  Uiso   1.00
H193   H     0.05186   0.61776   0.36116   0.00000  Uiso   1.00
H194   H     0.02260   0.34736   0.36792   0.00000  Uiso   1.00
H195   H     0.17666   0.54093   0.29289   0.00000  Uiso   1.00
H196   H     0.29194   0.40546   0.47786   0.00000  Uiso   1.00
H197   H     0.22002   0.54805   0.08131   0.00000  Uiso   1.00
H198   H     0.02729   0.57255   0.03367   0.00000  Uiso   1.00
H199   H     0.10578   0.42777   0.37224   0.00000  Uiso   1.00
H200   H     0.26071   0.63210   0.17496   0.00000  Uiso   1.00
H201   H     0.16703   0.64512   0.19643   0.00000  Uiso   1.00
H202   H     0.19966   0.35618   0.25507   0.00000  Uiso   1.00
N203   N     0.14493   0.48556   0.23542   0.00000  Uiso   1.00
N204   N     0.18840   0.51444   0.26457   0.00000  Uiso   1.00
N205   N     0.25683   0.66127   0.20451   0.00000  Uiso   1.00
N206   N     0.06938   0.33801   0.30201   0.00000  Uiso   1.00
O207   O     0.29769   0.57963   0.25357   0.00000  Uiso   1.00
O208   O     0.05742   0.57038   0.24424   0.00000  Uiso   1.00
O209   O     0.31490   0.50691   0.33380   0.00000  Uiso   1.00
O210   O     0.07463   0.49766   0.32446   0.00000  Uiso   1.00
O211   O     0.27592   0.42962   0.25576   0.00000  Uiso   1.00
O212   O     0.03565   0.42037   0.24643   0.00000  Uiso   1.00
O213   O     0.25870   0.50234   0.17554   0.00000  Uiso   1.00
O214   O     0.01843   0.49309   0.16620   0.00000  Uiso   1.00
Zn215  Zn    0.27119   0.50618   0.25623   0.00000  Uiso   1.00
Zn216  Zn    0.06214   0.49382   0.24377   0.00000  Uiso   1.00
Br217  Br    0.49128   0.43421   0.18237   0.00000  Uiso   1.00
Br218  Br    0.54771   0.38154   0.38084   0.00000  Uiso   1.00
Br219  Br    0.62175   0.57109   0.42463   0.00000  Uiso   1.00
Br220  Br    0.45593   0.54667   0.11134   0.00000  Uiso   1.00
C221   C     0.34723   0.59801   0.24740   0.00000  Uiso   1.00
C222   C     0.38780   0.50733   0.41712   0.00000  Uiso   1.00
C223   C     0.35516   0.65227   0.25853   0.00000  Uiso   1.00
C224   C     0.36894   0.50308   0.35556   0.00000  Uiso   1.00
C225   C     0.64245   0.34748   0.24220   0.00000  Uiso   1.00
C226   C     0.65203   0.40187   0.25143   0.00000  Uiso   1.00
C227   C     0.63144   0.49762   0.14489   0.00000  Uiso   1.00
C228   C     0.60612   0.43448   0.00092   0.00000  Uiso   1.00
C229   C     0.61283   0.49005   0.08468   0.00000  Uiso   1.00
C230   C     0.35959   0.53919   0.45109   0.00000  Uiso   1.00
C231   C     0.38389   0.54992   0.00745   0.00000  Uiso   1.00
C232   C     0.46883   0.50305   0.49626   0.00000  Uiso   1.00
C233   C     0.43758   0.53289   0.03072   0.00000  Uiso   1.00
C234   C     0.53939   0.65405   0.22997   0.00000  Uiso   1.00
C235   C     0.39334   0.66019   0.35802   0.00000  Uiso   1.00
C236   C     0.43970   0.48537   0.44136   0.00000  Uiso   1.00
C237   C     0.52678   0.48896   0.01334   0.00000  Uiso   1.00
C238   C     0.55050   0.45105   0.48079   0.00000  Uiso   1.00
C239   C     0.51807   0.43014   0.42952   0.00000  Uiso   1.00
C240   C     0.46328   0.44647   0.41106   0.00000  Uiso   1.00
C241   C     0.56316   0.51275   0.06083   0.00000  Uiso   1.00
C242   C     0.63606   0.45230   0.05404   0.00000  Uiso   1.00
H243   H     0.34232   0.43506   0.07203   0.00000  Uiso   1.00
H244   H     0.54345   0.62178   0.25849   0.00000  Uiso   1.00
H245   H     0.44182   0.65922   0.29496   0.00000  Uiso   1.00
H246   H     0.43225   0.33966   0.39016   0.00000  Uiso   1.00
H247   H     0.38519   0.61776   0.36116   0.00000  Uiso   1.00
H248   H     0.35594   0.34736   0.36792   0.00000  Uiso   1.00
H249   H     0.51000   0.54093   0.29289   0.00000  Uiso   1.00
H250   H     0.62528   0.40546   0.47786   0.00000  Uiso   1.00
H251   H     0.55335   0.54805   0.08131   0.00000  Uiso   1.00
H252   H     0.36062   0.57255   0.03367   0.00000  Uiso   1.00
H253   H     0.43912   0.42777   0.37224   0.00000  Uiso   1.00
H254   H     0.59405   0.63210   0.17496   0.00000  Uiso   1.00
H255   H     0.50036   0.64512   0.19643   0.00000  Uiso   1.00
H256   H     0.53299   0.35618   0.25507   0.00000  Uiso   1.00
N257   N     0.47827   0.48556   0.23542   0.00000  Uiso   1.00
N258   N     0.52173   0.51444   0.26457   0.00000  Uiso   1.00
N259   N     0.59016   0.66127   0.20451   0.00000  Uiso   1.00
N260   N     0.40271   0.33801   0.30201   0.00000  Uiso   1.00
O261   O     0.63102   0.57963   0.25357   0.00000  Uiso   1.00
O262   O     0.39075   0.57038   0.24424   0.00000  Uiso   1.00
O263   O     0.64823   0.50691   0.33380   0.00000  Uiso   1.00
O264   O     0.40796   0.49766   0.32446   0.00000  Uiso   1.00
O265   O     0.60925   0.42962   0.25576   0.00000  Uiso   1.00
O266   O     0.36898   0.42037   0.24643   0.00000  Uiso   1.00
O267   O     0.59204   0.50234   0.17554   0.00000  Uiso   1.00
O268   O     0.35177   0.49309   0.16620   0.00000  Uiso   1.00
Zn269  Zn    0.60453   0.50618   0.25623   0.00000  Uiso   1.00
Zn270  Zn    0.39547   0.49382   0.24377   0.00000  Uiso   1.00
Br271  Br    0.82462   0.43421   0.18237   0.00000  Uiso   1.00
Br272  Br    0.88104   0.38154   0.38084   0.00000  Uiso   1.00
Br273  Br    0.95508   0.57109   0.42463   0.00000  Uiso   1.00
Br274  Br    0.78927   0.54667   0.11134   0.00000  Uiso   1.00
C275   C     0.68056   0.59801   0.24740   0.00000  Uiso   1.00
C276   C     0.72113   0.50733   0.41712   0.00000  Uiso   1.00
C277   C     0.68849   0.65227   0.25853   0.00000  Uiso   1.00
C278   C     0.70227   0.50308   0.35556   0.00000  Uiso   1.00
C279   C     0.97578   0.34748   0.24220   0.00000  Uiso   1.00
C280   C     0.98536   0.40187   0.25143   0.00000  Uiso   1.00
C281   C     0.96478   0.49762   0.14489   0.00000  Uiso   1.00
C282   C     0.93946   0.43448   0.00092   0.00000  Uiso   1.00
C283   C     0.94617   0.49005   0.08468   0.00000  Uiso   1.00
C284   C     0.69293   0.53919   0.45109   0.00000  Uiso   1.00
C285   C     0.71723   0.54992   0.00745   0.00000  Uiso   1.00
C286   C     0.80216   0.50305   0.49626   0.00000  Uiso   1.00
C287   C     0.77092   0.53289   0.03072   0.00000  Uiso   1.00
C288   C     0.87272   0.65405   0.22997   0.00000  Uiso   1.00
C289   C     0.72667   0.66019   0.35802   0.00000  Uiso   1.00
C290   C     0.77303   0.48537   0.44136   0.00000  Uiso   1.00
C291   C     0.86011   0.48896   0.01334   0.00000  Uiso   1.00
C292   C     0.88384   0.45105   0.48079   0.00000  Uiso   1.00
C293   C     0.85140   0.43014   0.42952   0.00000  Uiso   1.00
C294   C     0.79661   0.44647   0.41106   0.00000  Uiso   1.00
C295   C     0.89649   0.51275   0.06083   0.00000  Uiso   1.00
C296   C     0.96940   0.45230   0.05404   0.00000  Uiso   1.00
H297   H     0.67565   0.43506   0.07203   0.00000  Uiso   1.00
H298   H     0.87678   0.62178   0.25849   0.00000  Uiso   1.00
H299   H     0.77515   0.65922   0.29496   0.00000  Uiso   1.00
H300   H     0.76558   0.33966   0.39016   0.00000  Uiso   1.00
H301   H     0.71853   0.61776   0.36116   0.00000  Uiso   1.00
H302   H     0.68927   0.34736   0.36792   0.00000  Uiso   1.00
H303   H     0.84333   0.54093   0.29289   0.00000  Uiso   1.00
H304   H     0.95861   0.40546   0.47786   0.00000  Uiso   1.00
H305   H     0.88668   0.54805   0.08131   0.00000  Uiso   1.00
H306   H     0.69396   0.57255   0.03367   0.00000  Uiso   1.00
H307   H     0.77245   0.42777   0.37224   0.00000  Uiso   1.00
H308   H     0.92738   0.63210   0.17496   0.00000  Uiso   1.00
H309   H     0.83370   0.64512   0.19643   0.00000  Uiso   1.00
H310   H     0.86633   0.35618   0.25507   0.00000  Uiso   1.00
N311   N     0.81160   0.48556   0.23542   0.00000  Uiso   1.00
N312   N     0.85507   0.51444   0.26457   0.00000  Uiso   1.00
N313   N     0.92350   0.66127   0.20451   0.00000  Uiso   1.00
N314   N     0.73604   0.33801   0.30201   0.00000  Uiso   1.00
O315   O     0.96435   0.57963   0.25357   0.00000  Uiso   1.00
O316   O     0.72408   0.57038   0.24424   0.00000  Uiso   1.00
O317   O     0.98157   0.50691   0.33380   0.00000  Uiso   1.00
O318   O     0.74130   0.49766   0.32446   0.00000  Uiso   1.00
O319   O     0.94258   0.42962   0.25576   0.00000  Uiso   1.00
O320   O     0.70231   0.42037   0.24643   0.00000  Uiso   1.00
O321   O     0.92537   0.50234   0.17554   0.00000  Uiso   1.00
O322   O     0.68510   0.49309   0.16620   0.00000  Uiso   1.00
Zn323  Zn    0.93786   0.50618   0.25623   0.00000  Uiso   1.00
Zn324  Zn    0.72881   0.49382   0.24377   0.00000  Uiso   1.00
Br325  Br    0.15795   0.76754   0.18237   0.00000  Uiso   1.00
Br326  Br    0.21438   0.71488   0.38084   0.00000  Uiso   1.00
Br327  Br    0.28841   0.90442   0.42463   0.00000  Uiso   1.00
Br328  Br    0.12260   0.88000   0.11134   0.00000  Uiso   1.00
C329   C     0.01390   0.93134   0.24740   0.00000  Uiso   1.00
C330   C     0.05446   0.84067   0.41712   0.00000  Uiso   1.00
C331   C     0.02183   0.98560   0.25853   0.00000  Uiso   1.00
C332   C     0.03560   0.83642   0.35556   0.00000  Uiso   1.00
C333   C     0.30911   0.68081   0.24220   0.00000  Uiso   1.00
C334   C     0.31869   0.73520   0.25143   0.00000  Uiso   1.00
C335   C     0.29811   0.83095   0.14489   0.00000  Uiso   1.00
C336   C     0.27279   0.76781   0.00092   0.00000  Uiso   1.00
C337   C     0.27950   0.82338   0.08468   0.00000  Uiso   1.00
C338   C     0.02626   0.87253   0.45109   0.00000  Uiso   1.00
C339   C     0.05056   0.88326   0.00745   0.00000  Uiso   1.00
C340   C     0.13550   0.83639   0.49626   0.00000  Uiso   1.00
C341   C     0.10425   0.86623   0.03072   0.00000  Uiso   1.00
C342   C     0.20605   0.98738   0.22997   0.00000  Uiso   1.00
C343   C     0.06000   0.99353   0.35802   0.00000  Uiso   1.00
C344   C     0.10636   0.81871   0.44136   0.00000  Uiso   1.00
C345   C     0.19345   0.82229   0.01334   0.00000  Uiso   1.00
C346   C     0.21717   0.78438   0.48079   0.00000  Uiso   1.00
C347   C     0.18474   0.76348   0.42952   0.00000  Uiso   1.00
C348   C     0.12994   0.77981   0.41106   0.00000  Uiso   1.00
C349   C     0.22983   0.84608   0.06083   0.00000  Uiso   1.00
C350   C     0.30273   0.78563   0.05404   0.00000  Uiso   1.00
H351   H     0.00899   0.76839   0.07203   0.00000  Uiso   1.00
H352   H     0.21011   0.95511   0.25849   0.00000  Uiso   1.00
H353   H     0.10848   0.99255   0.29496   0.00000  Uiso   1.00
H354   H     0.09891   0.67299   0.39016   0.00000  Uiso   1.00
H355   H     0.05186   0.95109   0.36116   0.00000  Uiso   1.00
H356   H     0.02260   0.68069   0.36792   0.00000  Uiso   1.00
H357   H     0.17666   0.87426   0.29289   0.00000  Uiso   1.00
H358   H     0.29194   0.73879   0.47786   0.00000  Uiso   1.00
H359   H     0.22002   0.88138   0.08131   0.00000  Uiso   1.00
H360   H     0.02729   0.90588   0.03367   0.00000  Uiso   1.00
H361   H     0.10578   0.76110   0.37224   0.00000  Uiso   1.00
H362   H     0.26071   0.96544   0.17496   0.00000  Uiso   1.00
H363   H     0.16703   0.97845   0.19643   0.00000  Uiso   1.00
H364   H     0.19966   0.68951   0.25507   0.00000  Uiso   1.00
N365   N     0.14493   0.81890   0.23542   0.00000  Uiso   1.00
N366   N     0.18840   0.84777   0.26457   0.00000  Uiso   1.00
N367   N     0.25683   0.99460   0.20451   0.00000  Uiso   1.00
N368   N     0.06938   0.67135   0.30201   0.00000  Uiso   1.00
O369   O     0.29769   0.91296   0.25357   0.00000  Uiso   1.00
O370   O     0.05742   0.90371   0.24424   0.00000  Uiso   1.00
O371   O     0.31490   0.84024   0.33380   0.00000  Uiso   1.00
O372   O     0.07463   0.83099   0.32446   0.00000  Uiso   1.00
O373   O     0.27592   0.76296   0.25576   0.00000  Uiso   1.00
O374   O     0.03565   0.75371   0.24643   0.00000  Uiso   1.00
O375   O     0.25870   0.83567   0.17554   0.00000  Uiso   1.00
O376   O     0.01843   0.82642   0.16620   0.00000  Uiso   1.00
Zn377  Zn    0.27119   0.83951   0.25623   0.00000  Uiso   1.00
Zn378  Zn    0.06214   0.82716   0.24377   0.00000  Uiso   1.00
Br379  Br    0.49128   0.76754   0.18237   0.00000  Uiso   1.00
Br380  Br    0.54771   0.71488   0.38084   0.00000  Uiso   1.00
Br381  Br    0.62175   0.90442   0.42463   0.00000  Uiso   1.00
Br382  Br    0.45593   0.88000   0.11134   0.00000  Uiso   1.00
C383   C     0.34723   0.93134   0.24740   0.00000  Uiso   1.00
C384   C     0.38780   0.84067   0.41712   0.00000  Uiso   1.00
C385   C     0.35516   0.98560   0.25853   0.00000  Uiso   1.00
C386   C     0.36894   0.83642   0.35556   0.00000  Uiso   1.00
C387   C     0.64245   0.68081   0.24220   0.00000  Uiso   1.00
C388   C     0.65203   0.73520   0.25143   0.00000  Uiso   1.00
C389   C     0.63144   0.83095   0.14489   0.00000  Uiso   1.00
C390   C     0.60612   0.76781   0.00092   0.00000  Uiso   1.00
C391   C     0.61283   0.82338   0.08468   0.00000  Uiso   1.00
C392   C     0.35959   0.87253   0.45109   0.00000  Uiso   1.00
C393   C     0.38389   0.88326   0.00745   0.00000  Uiso   1.00
C394   C     0.46883   0.83639   0.49626   0.00000  Uiso   1.00
C395   C     0.43758   0.86623   0.03072   0.00000  Uiso   1.00
C396   C     0.53939   0.98738   0.22997   0.00000  Uiso   1.00
C397   C     0.39334   0.99353   0.35802   0.00000  Uiso   1.00
C398   C     0.43970   0.81871   0.44136   0.00000  Uiso   1.00
C399   C     0.52678   0.82229   0.01334   0.00000  Uiso   1.00
C400   C     0.55050   0.78438   0.48079   0.00000  Uiso   1.00
C401   C     0.51807   0.76348   0.42952   0.00000  Uiso   1.00
C402   C     0.46328   0.77981   0.41106   0.00000  Uiso   1.00
C403   C     0.56316   0.84608   0.06083   0.00000  Uiso   1.00
C404   C     0.63606   0.78563   0.05404   0.00000  Uiso   1.00
H405   H     0.34232   0.76839   0.07203   0.00000  Uiso   1.00
H406   H     0.54345   0.95511   0.25849   0.00000  Uiso   1.00
H407   H     0.44182   0.99255   0.29496   0.00000  Uiso   1.00
H408   H     0.43225   0.67299   0.39016   0.00000  Uiso   1.00
H409   H     0.38519   0.95109   0.36116   0.00000  Uiso   1.00
H410   H     0.35594   0.68069   0.36792   0.00000  Uiso   1.00
H411   H     0.51000   0.87426   0.29289   0.00000  Uiso   1.00
H412   H     0.62528   0.73879   0.47786   0.00000  Uiso   1.00
H413   H     0.55335   0.88138   0.08131   0.00000  Uiso   1.00
H414   H     0.36062   0.90588   0.03367   0.00000  Uiso   1.00
H415   H     0.43912   0.76110   0.37224   0.00000  Uiso   1.00
H416   H     0.59405   0.96544   0.17496   0.00000  Uiso   1.00
H417   H     0.50036   0.97845   0.19643   0.00000  Uiso   1.00
H418   H     0.53299   0.68951   0.25507   0.00000  Uiso   1.00
N419   N     0.47827   0.81890   0.23542   0.00000  Uiso   1.00
N420   N     0.52173   0.84777   0.26457   0.00000  Uiso   1.00
N421   N     0.59016   0.99460   0.20451   0.00000  Uiso   1.00
N422   N     0.40271   0.67135   0.30201   0.00000  Uiso   1.00
O423   O     0.63102   0.91296   0.25357   0.00000  Uiso   1.00
O424   O     0.39075   0.90371   0.24424   0.00000  Uiso   1.00
O425   O     0.64823   0.84024   0.33380   0.00000  Uiso   1.00
O426   O     0.40796   0.83099   0.32446   0.00000  Uiso   1.00
O427   O     0.60925   0.76296   0.25576   0.00000  Uiso   1.00
O428   O     0.36898   0.75371   0.24643   0.00000  Uiso   1.00
O429   O     0.59204   0.83567   0.17554   0.00000  Uiso   1.00
O430   O     0.35177   0.82642   0.16620   0.00000  Uiso   1.00
Zn431  Zn    0.60453   0.83951   0.25623   0.00000  Uiso   1.00
Zn432  Zn    0.39547   0.82716   0.24377   0.00000  Uiso   1.00
Br433  Br    0.82462   0.76754   0.18237   0.00000  Uiso   1.00
Br434  Br    0.88104   0.71488   0.38084   0.00000  Uiso   1.00
Br435  Br    0.95508   0.90442   0.42463   0.00000  Uiso   1.00
Br436  Br    0.78927   0.88000   0.11134   0.00000  Uiso   1.00
C437   C     0.68056   0.93134   0.24740   0.00000  Uiso   1.00
C438   C     0.72113   0.84067   0.41712   0.00000  Uiso   1.00
C439   C     0.68849   0.98560   0.25853   0.00000  Uiso   1.00
C440   C     0.70227   0.83642   0.35556   0.00000  Uiso   1.00
C441   C     0.97578   0.68081   0.24220   0.00000  Uiso   1.00
C442   C     0.98536   0.73520   0.25143   0.00000  Uiso   1.00
C443   C     0.96478   0.83095   0.14489   0.00000  Uiso   1.00
C444   C     0.93946   0.76781   0.00092   0.00000  Uiso   1.00
C445   C     0.94617   0.82338   0.08468   0.00000  Uiso   1.00
C446   C     0.69293   0.87253   0.45109   0.00000  Uiso   1.00
C447   C     0.71723   0.88326   0.00745   0.00000  Uiso   1.00
C448   C     0.80216   0.83639   0.49626   0.00000  Uiso   1.00
C449   C     0.77092   0.86623   0.03072   0.00000  Uiso   1.00
C450   C     0.87272   0.98738   0.22997   0.00000  Uiso   1.00
C451   C     0.72667   0.99353   0.35802   0.00000  Uiso   1.00
C452   C     0.77303   0.81871   0.44136   0.00000  Uiso   1.00
C453   C     0.86011   0.82229   0.01334   0.00000  Uiso   1.00
C454   C     0.88384   0.78438   0.48079   0.00000  Uiso   1.00
C455   C     0.85140   0.76348   0.42952   0.00000  Uiso   1.00
C456   C     0.79661   0.77981   0.41106   0.00000  Uiso   1.00
C457   C     0.89649   0.84608   0.06083   0.00000  Uiso   1.00
C458   C     0.96940   0.78563   0.05404   0.00000  Uiso   1.00
H459   H     0.67565   0.76839   0.07203   0.00000  Uiso   1.00
H460   H     0.87678   0.95511   0.25849   0.00000  Uiso   1.00
H461   H     0.77515   0.99255   0.29496   0.00000  Uiso   1.00
H462   H     0.76558   0.67299   0.39016   0.00000  Uiso   1.00
H463   H     0.71853   0.95109   0.36116   0.00000  Uiso   1.00
H464   H     0.68927   0.68069   0.36792   0.00000  Uiso   1.00
H465   H     0.84333   0.87426   0.29289   0.00000  Uiso   1.00
H466   H     0.95861   0.73879   0.47786   0.00000  Uiso   1.00
H467   H     0.88668   0.88138   0.08131   0.00000  Uiso   1.00
H468   H     0.69396   0.90588   0.03367   0.00000  Uiso   1.00
H469   H     0.77245   0.76110   0.37224   0.00000  Uiso   1.00
H470   H     0.92738   0.96544   0.17496   0.00000  Uiso   1.00
H471   H     0.83370   0.97845   0.19643   0.00000  Uiso   1.00
H472   H     0.86633   0.68951   0.25507   0.00000  Uiso   1.00
N473   N     0.81160   0.81890   0.23542   0.00000  Uiso   1.00
N474   N     0.85507   0.84777   0.26457   0.00000  Uiso   1.00
N475   N     0.92350   0.99460   0.20451   0.00000  Uiso   1.00
N476   N     0.73604   0.67135   0.30201   0.00000  Uiso   1.00
O477   O     0.96435   0.91296   0.25357   0.00000  Uiso   1.00
O478   O     0.72408   0.90371   0.24424   0.00000  Uiso   1.00
O479   O     0.98157   0.84024   0.33380   0.00000  Uiso   1.00
O480   O     0.74130   0.83099   0.32446   0.00000  Uiso   1.00
O481   O     0.94258   0.76296   0.25576   0.00000  Uiso   1.00
O482   O     0.70231   0.75371   0.24643   0.00000  Uiso   1.00
O483   O     0.92537   0.83567   0.17554   0.00000  Uiso   1.00
O484   O     0.68510   0.82642   0.16620   0.00000  Uiso   1.00
Zn485  Zn    0.93786   0.83951   0.25623   0.00000  Uiso   1.00
Zn486  Zn    0.72881   0.82716   0.24377   0.00000  Uiso   1.00
Br487  Br    0.15795   0.10087   0.68237   0.00000  Uiso   1.00
Br488  Br    0.21438   0.04821   0.88084   0.00000  Uiso   1.00
Br489  Br    0.28841   0.23775   0.92463   0.00000  Uiso   1.00
Br490  Br    0.12260   0.21333   0.61134   0.00000  Uiso   1.00
C491   C     0.01390   0.26467   0.74740   0.00000  Uiso   1.00
C492   C     0.05446   0.17400   0.91712   0.00000  Uiso   1.00
C493   C     0.02183   0.31894   0.75853   0.00000  Uiso   1.00
C494   C     0.03560   0.16975   0.85556   0.00000  Uiso   1.00
C495   C     0.30911   0.01414   0.74220   0.00000  Uiso   1.00
C496   C     0.31869   0.06853   0.75143   0.00000  Uiso   1.00
C497   C     0.29811   0.16428   0.64489   0.00000  Uiso   1.00
C498   C     0.27279   0.10115   0.50092   0.00000  Uiso   1.00
C499   C     0.27950   0.15672   0.58468   0.00000  Uiso   1.00
C500   C     0.02626   0.20586   0.95109   0.00000  Uiso   1.00
C501   C     0.05056   0.21659   0.50745   0.00000  Uiso   1.00
C502   C     0.13550   0.16972   0.99626   0.00000  Uiso   1.00
C503   C     0.10425   0.19956   0.53072   0.00000  Uiso   1.00
C504   C     0.20605   0.32072   0.72997   0.00000  Uiso   1.00
C505   C     0.06000   0.32686   0.85802   0.00000  Uiso   1.00
C506   C     0.10636   0.15204   0.94136   0.00000  Uiso   1.00
C507   C     0.19345   0.15563   0.51334   0.00000  Uiso   1.00
C508   C     0.21717   0.11772   0.98079   0.00000  Uiso   1.00
C509   C     0.18474   0.09681   0.92952   0.00000  Uiso   1.00
C510   C     0.12994   0.11314   0.91106   0.00000  Uiso   1.00
C511   C     0.22983   0.17942   0.56083   0.00000  Uiso   1.00
C512   C     0.30273   0.11896   0.55404   0.00000  Uiso   1.00
H513   H     0.00899   0.10172   0.57203   0.00000  Uiso   1.00
H514   H     0.21011   0.28844   0.75849   0.00000  Uiso   1.00
H515   H     0.10848   0.32589   0.79496   0.00000  Uiso   1.00
H516   H     0.09891   0.00632   0.89016   0.00000  Uiso   1.00
H517   H     0.05186   0.28442   0.86116   0.00000  Uiso   1.00
H518   H     0.02260   0.01402   0.86792   0.00000  Uiso   1.00
H519   H     0.17666   0.20760   0.79289   0.00000  Uiso   1.00
H520   H     0.29194   0.07213   0.97786   0.00000  Uiso   1.00
H521   H     0.22002   0.21471   0.58131   0.00000  Uiso   1.00
H522   H     0.02729   0.23922   0.53367   0.00000  Uiso   1.00
H523   H     0.10578   0.09443   0.87224   0.00000  Uiso   1.00
H524   H     0.26071   0.29877   0.67496   0.00000  Uiso   1.00
H525   H     0.16703   0.31178   0.69643   0.00000  Uiso   1.00
H526   H     0.19966   0.02284   0.75507   0.00000  Uiso   1.00
N527   N     0.14493   0.15223   0.73542   0.00000  Uiso   1.00
N528   N     0.18840   0.18110   0.76457   0.00000  Uiso   1.00
N529   N     0.25683   0.32794   0.70451   0.00000  Uiso   1.00
N530   N     0.06938   0.00468   0.80201   0.00000  Uiso   1.00
O531   O     0.29769   0.24629   0.75357   0.00000  Uiso   1.00
O532   O     0.05742   0.23704   0.74424   0.00000  Uiso   1.00
O533   O     0.31490   0.17358   0.83380   0.00000  Uiso   1.00
O534   O     0.07463   0.16433   0.82446   0.00000  Uiso   1.00
O535   O     0.27592   0.09629   0.75576   0.00000  Uiso   1.00
O536   O     0.03565   0.08704   0.74643   0.00000  Uiso   1.00
O537   O     0.25870   0.16901   0.67554   0.00000  Uiso   1.00
O538   O     0.01843   0.15976   0.66620   0.00000  Uiso   1.00
Zn539  Zn    0.27119   0.17284   0.75623   0.00000  Uiso   1.00
Zn540  Zn    0.06214   0.16049   0.74377   0.00000  Uiso   1.00
Br541  Br    0.49128   0.10087   0.68237   0.00000  Uiso   1.00
Br542  Br    0.54771   0.04821   0.88084   0.00000  Uiso   1.00
Br543  Br    0.62175   0.23775   0.92463   0.00000  Uiso   1.00
Br544  Br    0.45593   0.21333   0.61134   0.00000  Uiso   1.00
C545   C     0.34723   0.26467   0.74740   0.00000  Uiso   1.00
C546   C     0.38780   0.17400   0.91712   0.00000  Uiso   1.00
C547   C     0.35516   0.31894   0.75853   0.00000  Uiso   1.00
C548   C     0.36894   0.16975   0.85556   0.00000  Uiso   1.00
C549   C     0.64245   0.01414   0.74220   0.00000  Uiso   1.00
C550   C     0.65203   0.06853   0.75143   0.00000  Uiso   1.00
C551   C     0.63144   0.16428   0.64489   0.00000  Uiso   1.00
C552   C     0.60612   0.10115   0.50092   0.00000  Uiso   1.00
C553   C     0.61283   0.15672   0.58468   0.00000  Uiso   1.00
C554   C     0.35959   0.20586   0.95109   0.00000  Uiso   1.00
C555   C     0.38389   0.21659   0.50745   0.00000  Uiso   1.00
C556   C     0.46883   0.16972   0.99626   0.00000  Uiso   1.00
C557   C     0.43758   0.19956   0.53072   0.00000  Uiso   1.00
C558   C     0.53939   0.32072   0.72997   0.00000  Uiso   1.00
C559   C     0.39334   0.32686   0.85802   0.00000  Uiso   1.00
C560   C     0.43970   0.15204   0.94136   0.00000  Uiso   1.00
C561   C     0.52678   0.15563   0.51334   0.00000  Uiso   1.00
C562   C     0.55050   0.11772   0.98079   0.00000  Uiso   1.00
C563   C     0.51807   0.09681   0.92952   0.00000  Uiso   1.00
C564   C     0.46328   0.11314   0.91106   0.00000  Uiso   1.00
C565   C     0.56316   0.17942   0.56083   0.00000  Uiso   1.00
C566   C     0.63606   0.11896   0.55404   0.00000  Uiso   1.00
H567   H     0.34232   0.10172   0.57203   0.00000  Uiso   1.00
H568   H     0.54345   0.28844   0.75849   0.00000  Uiso   1.00
H569   H     0.44182   0.32589   0.79496   0.00000  Uiso   1.00
H570   H     0.43225   0.00632   0.89016   0.00000  Uiso   1.00
H571   H     0.38519   0.28442   0.86116   0.00000  Uiso   1.00
H572   H     0.35594   0.01402   0.86792   0.00000  Uiso   1.00
H573   H     0.51000   0.20760   0.79289   0.00000  Uiso   1.00
H574   H     0.62528   0.07213   0.97786   0.00000  Uiso   1.00
H575   H     0.55335   0.21471   0.58131   0.00000  Uiso   1.00
H576   H     0.36062   0.23922   0.53367   0.00000  Uiso   1.00
H577   H     0.43912   0.09443   0.87224   0.00000  Uiso   1.00
H578   H     0.59405   0.29877   0.67496   0.00000  Uiso   1.00
H579   H     0.50036   0.31178   0.69643   0.00000  Uiso   1.00
H580   H     0.53299   0.02284   0.75507   0.00000  Uiso   1.00
N581   N     0.47827   0.15223   0.73542   0.00000  Uiso   1.00
N582   N     0.52173   0.18110   0.76457   0.00000  Uiso   1.00
N583   N     0.59016   0.32794   0.70451   0.00000  Uiso   1.00
N584   N     0.40271   0.00468   0.80201   0.00000  Uiso   1.00
O585   O     0.63102   0.24629   0.75357   0.00000  Uiso   1.00
O586   O     0.39075   0.23704   0.74424   0.00000  Uiso   1.00
O587   O     0.64823   0.17358   0.83380   0.00000  Uiso   1.00
O588   O     0.40796   0.16433   0.82446   0.00000  Uiso   1.00
O589   O     0.60925   0.09629   0.75576   0.00000  Uiso   1.00
O590   O     0.36898   0.08704   0.74643   0.00000  Uiso   1.00
O591   O     0.59204   0.16901   0.67554   0.00000  Uiso   1.00
O592   O     0.35177   0.15976   0.66620   0.00000  Uiso   1.00
Zn593  Zn    0.60453   0.17284   0.75623   0.00000  Uiso   1.00
Zn594  Zn    0.39547   0.16049   0.74377   0.00000  Uiso   1.00
Br595  Br    0.82462   0.10087   0.68237   0.00000  Uiso   1.00
Br596  Br    0.88104   0.04821   0.88084   0.00000  Uiso   1.00
Br597  Br    0.95508   0.23775   0.92463   0.00000  Uiso   1.00
Br598  Br    0.78927   0.21333   0.61134   0.00000  Uiso   1.00
C599   C     0.68056   0.26467   0.74740   0.00000  Uiso   1.00
C600   C     0.72113   0.17400   0.91712   0.00000  Uiso   1.00
C601   C     0.68849   0.31894   0.75853   0.00000  Uiso   1.00
C602   C     0.70227   0.16975   0.85556   0.00000  Uiso   1.00
C603   C     0.97578   0.01414   0.74220   0.00000  Uiso   1.00
C604   C     0.98536   0.06853   0.75143   0.00000  Uiso   1.00
C605   C     0.96478   0.16428   0.64489   0.00000  Uiso   1.00
C606   C     0.93946   0.10115   0.50092   0.00000  Uiso   1.00
C607   C     0.94617   0.15672   0.58468   0.00000  Uiso   1.00
C608   C     0.69293   0.20586   0.95109   0.00000  Uiso   1.00
C609   C     0.71723   0.21659   0.50745   0.00000  Uiso   1.00
C610   C     0.80216   0.16972   0.99626   0.00000  Uiso   1.00
C611   C     0.77092   0.19956   0.53072   0.00000  Uiso   1.00
C612   C     0.87272   0.32072   0.72997   0.00000  Uiso   1.00
C613   C     0.72667   0.32686   0.85802   0.00000  Uiso   1.00
C614   C     0.77303   0.15204   0.94136   0.00000  Uiso   1.00
C615   C     0.86011   0.15563   0.51334   0.00000  Uiso   1.00
C616   C     0.88384   0.11772   0.98079   0.00000  Uiso   1.00
C617   C     0.85140   0.09681   0.92952   0.00000  Uiso   1.00
C618   C     0.79661   0.11314   0.91106   0.00000  Uiso   1.00
C619   C     0.89649   0.17942   0.56083   0.00000  Uiso   1.00
C620   C     0.96940   0.11896   0.55404   0.00000  Uiso   1.00
H621   H     0.67565   0.10172   0.57203   0.00000  Uiso   1.00
H622   H     0.87678   0.28844   0.75849   0.00000  Uiso   1.00
H623   H     0.77515   0.32589   0.79496   0.00000  Uiso   1.00
H624   H     0.76558   0.00632   0.89016   0.00000  Uiso   1.00
H625   H     0.71853   0.28442   0.86116   0.00000  Uiso   1.00
H626   H     0.68927   0.01402   0.86792   0.00000  Uiso   1.00
H627   H     0.84333   0.20760   0.79289   0.00000  Uiso   1.00
H628   H     0.95861   0.07213   0.97786   0.00000  Uiso   1.00
H629   H     0.88668   0.21471   0.58131   0.00000  Uiso   1.00
H630   H     0.69396   0.23922   0.53367   0.00000  Uiso   1.00
H631   H     0.77245   0.09443   0.87224   0.00000  Uiso   1.00
H632   H     0.92738   0.29877   0.67496   0.00000  Uiso   1.00
H633   H     0.83370   0.31178   0.69643   0.00000  Uiso   1.00
H634   H     0.86633   0.02284   0.75507   0.00000  Uiso   1.00
N635   N     0.81160   0.15223   0.73542   0.00000  Uiso   1.00
N636   N     0.85507   0.18110   0.76457   0.00000  Uiso   1.00
N637   N     0.92350   0.32794   0.70451   0.00000  Uiso   1.00
N638   N     0.73604   0.00468   0.80201   0.00000  Uiso   1.00
O639   O     0.96435   0.24629   0.75357   0.00000  Uiso   1.00
O640   O     0.72408   0.23704   0.74424   0.00000  Uiso   1.00
O641   O     0.98157   0.17358   0.83380   0.00000  Uiso   1.00
O642   O     0.74130   0.16433   0.82446   0.00000  Uiso   1.00
O643   O     0.94258   0.09629   0.75576   0.00000  Uiso   1.00
O644   O     0.70231   0.08704   0.74643   0.00000  Uiso   1.00
O645   O     0.92537   0.16901   0.67554   0.00000  Uiso   1.00
O646   O     0.68510   0.15976   0.66620   0.00000  Uiso   1.00
Zn647  Zn    0.93786   0.17284   0.75623   0.00000  Uiso   1.00
Zn648  Zn    0.72881   0.16049   0.74377   0.00000  Uiso   1.00
Br649  Br    0.15795   0.43421   0.68237   0.00000  Uiso   1.00
Br650  Br    0.21438   0.38154   0.88084   0.00000  Uiso   1.00
Br651  Br    0.28841   0.57109   0.92463   0.00000  Uiso   1.00
Br652  Br    0.12260   0.54667   0.61134   0.00000  Uiso   1.00
C653   C     0.01390   0.59801   0.74740   0.00000  Uiso   1.00
C654   C     0.05446   0.50733   0.91712   0.00000  Uiso   1.00
C655   C     0.02183   0.65227   0.75853   0.00000  Uiso   1.00
C656   C     0.03560   0.50308   0.85556   0.00000  Uiso   1.00
C657   C     0.30911   0.34748   0.74220   0.00000  Uiso   1.00
C658   C     0.31869   0.40187   0.75143   0.00000  Uiso   1.00
C659   C     0.29811   0.49762   0.64489   0.00000  Uiso   1.00
C660   C     0.27279   0.43448   0.50092   0.00000  Uiso   1.00
C661   C     0.27950   0.49005   0.58468   0.00000  Uiso   1.00
C662   C     0.02626   0.53919   0.95109   0.00000  Uiso   1.00
C663   C     0.05056   0.54992   0.50745   0.00000  Uiso   1.00
C664   C     0.13550   0.50305   0.99626   0.00000  Uiso   1.00
C665   C     0.10425   0.53289   0.53072   0.00000  Uiso   1.00
C666   C     0.20605   0.65405   0.72997   0.00000  Uiso   1.00
C667   C     0.06000   0.66019   0.85802   0.00000  Uiso   1.00
C668   C     0.10636   0.48537   0.94136   0.00000  Uiso   1.00
C669   C     0.19345   0.48896   0.51334   0.00000  Uiso   1.00
C670   C     0.21717   0.45105   0.98079   0.00000  Uiso   1.00
C671   C     0.18474   0.43014   0.92952   0.00000  Uiso   1.00
C672   C     0.12994   0.44647   0.91106   0.00000  Uiso   1.00
C673   C     0.22983   0.51275   0.56083   0.00000  Uiso   1.00
C674   C     0.30273   0.45230   0.55404   0.00000  Uiso   1.00
H675   H     0.00899   0.43506   0.57203   0.00000  Uiso   1.00
H676   H     0.21011   0.62178   0.75849   0.00000  Uiso   1.00
H677   H     0.10848   0.65922   0.79496   0.00000  Uiso   1.00
H678   H     0.09891   0.33966   0.89016   0.00000  Uiso   1.00
H679   H     0.05186   0.61776   0.86116   0.00000  Uiso   1.00
H680   H     0.02260   0.34736   0.86792   0.00000  Uiso   1.00
H681   H     0.17666   0.54093   0.79289   0.00000  Uiso   1.00
H682   H     0.29194   0.40546   0.97786   0.00000  Uiso   1.00
H683   H     0.22002   0.54805   0.58131   0.00000  Uiso   1.00
H684   H     0.02729   0.57255   0.53367   0.00000  Uiso   1.00
H685   H     0.10578   0.42777   0.87224   0.00000  Uiso   1.00
H686   H     0.26071   0.63210   0.67496   0.00000  Uiso   1.00
H687   H     0.16703   0.64512   0.69643   0.00000  Uiso   1.00
H688   H     0.19966   0.35618   0.75507   0.00000  Uiso   1.00
N689   N     0.14493   0.48556   0.73542   0.00000  Uiso   1.00
N690   N     0.18840   0.51444   0.76457   0.00000  Uiso   1.00
N691   N     0.25683   0.66127   0.70451   0.00000  Uiso   1.00
N692   N     0.06938   0.33801   0.80201   0.00000  Uiso   1.00
O693   O     0.29769   0.57963   0.75357   0.00000  Uiso   1.00
O694   O     0.05742   0.57038   0.74424   0.00000  Uiso   1.00
O695   O     0.31490   0.50691   0.83380   0.00000  Uiso   1.00
O696   O     0.07463   0.49766   0.82446   0.00000  Uiso   1.00
O697   O     0.27592   0.42962   0.75576   0.00000  Uiso   1.00
O698   O     0.03565   0.42037   0.74643   0.00000  Uiso   1.00
O699   O     0.25870   0.50234   0.67554   0.00000  Uiso   1.00
O700   O     0.01843   0.49309   0.66620   0.00000  Uiso   1.00
Zn701  Zn    0.27119   0.50618   0.75623   0.00000  Uiso   1.00
Zn702  Zn    0.06214   0.49382   0.74377   0.00000  Uiso   1.00
Br703  Br    0.49128   0.43421   0.68237   0.00000  Uiso   1.00
Br704  Br    0.54771   0.38154   0.88084   0.00000  Uiso   1.00
Br705  Br    0.62175   0.57109   0.92463   0.00000  Uiso   1.00
Br706  Br    0.45593   0.54667   0.61134   0.00000  Uiso   1.00
C707   C     0.34723   0.59801   0.74740   0.00000  Uiso   1.00
C708   C     0.38780   0.50733   0.91712   0.00000  Uiso   1.00
C709   C     0.35516   0.65227   0.75853   0.00000  Uiso   1.00
C710   C     0.36894   0.50308   0.85556   0.00000  Uiso   1.00
C711   C     0.64245   0.34748   0.74220   0.00000  Uiso   1.00
C712   C     0.65203   0.40187   0.75143   0.00000  Uiso   1.00
C713   C     0.63144   0.49762   0.64489   0.00000  Uiso   1.00
C714   C     0.60612   0.43448   0.50092   0.00000  Uiso   1.00
C715   C     0.61283   0.49005   0.58468   0.00000  Uiso   1.00
C716   C     0.35959   0.53919   0.95109   0.00000  Uiso   1.00
C717   C     0.38389   0.54992   0.50745   0.00000  Uiso   1.00
C718   C     0.46883   0.50305   0.99626   0.00000  Uiso   1.00
C719   C     0.43758   0.53289   0.53072   0.00000  Uiso   1.00
C720   C     0.53939   0.65405   0.72997   0.00000  Uiso   1.00
C721   C     0.39334   0.66019   0.85802   0.00000  Uiso   1.00
C722   C     0.43970   0.48537   0.94136   0.00000  Uiso   1.00
C723   C     0.52678   0.48896   0.51334   0.00000  Uiso   1.00
C724   C     0.55050   0.45105   0.98079   0.00000  Uiso   1.00
C725   C     0.51807   0.43014   0.92952   0.00000  Uiso   1.00
C726   C     0.46328   0.44647   0.91106   0.00000  Uiso   1.00
C727   C     0.56316   0.51275   0.56083   0.00000  Uiso   1.00
C728   C     0.63606   0.45230   0.55404   0.00000  Uiso   1.00
H729   H     0.34232   0.43506   0.57203   0.00000  Uiso   1.00
H730   H     0.54345   0.62178   0.75849   0.00000  Uiso   1.00
H731   H     0.44182   0.65922   0.79496   0.00000  Uiso   1.00
H732   H     0.43225   0.33966   0.89016   0.00000  Uiso   1.00
H733   H     0.38519   0.61776   0.86116   0.00000  Uiso   1.00
H734   H     0.35594   0.34736   0.86792   0.00000  Uiso   1.00
H735   H     0.51000   0.54093   0.79289   0.00000  Uiso   1.00
H736   H     0.62528   0.40546   0.97786   0.00000  Uiso   1.00
H737   H     0.55335   0.54805   0.58131   0.00000  Uiso   1.00
H738   H     0.36062   0.57255   0.53367   0.00000  Uiso   1.00
H739   H     0.43912   0.42777   0.87224   0.00000  Uiso   1.00
H740   H     0.59405   0.63210   0.67496   0.00000  Uiso   1.00
H741   H     0.50036   0.64512   0.69643   0.00000  Uiso   1.00
H742   H     0.53299   0.35618   0.75507   0.00000  Uiso   1.00
N743   N     0.47827   0.48556   0.73542   0.00000  Uiso   1.00
N744   N     0.52173   0.51444   0.76457   0.00000  Uiso   1.00
N745   N     0.59016   0.66127   0.70451   0.00000  Uiso   1.00
N746   N     0.40271   0.33801   0.80201   0.00000  Uiso   1.00
O747   O     0.63102   0.57963   0.75357   0.00000  Uiso   1.00
O748   O     0.39075   0.57038   0.74424   0.00000  Uiso   1.00
O749   O     0.64823   0.50691   0.83380   0.00000  Uiso   1.00
O750   O     0.40796   0.49766   0.82446   0.00000  Uiso   1.00
O751   O     0.60925   0.42962   0.75576   0.00000  Uiso   1.00
O752   O     0.36898   0.42037   0.74643   0.00000  Uiso   1.00
O753   O     0.59204   0.50234   0.67554   0.00000  Uiso   1.00
O754   O     0.35177   0.49309   0.66620   0.00000  Uiso   1.00
Zn755  Zn    0.60453   0.50618   0.75623   0.00000  Uiso   1.00
Zn756  Zn    0.39547   0.49382   0.74377   0.00000  Uiso   1.00
Br757  Br    0.82462   0.43421   0.68237   0.00000  Uiso   1.00
Br758  Br    0.88104   0.38154   0.88084   0.00000  Uiso   1.00
Br759  Br    0.95508   0.57109   0.92463   0.00000  Uiso   1.00
Br760  Br    0.78927   0.54667   0.61134   0.00000  Uiso   1.00
C761   C     0.68056   0.59801   0.74740   0.00000  Uiso   1.00
C762   C     0.72113   0.50733   0.91712   0.00000  Uiso   1.00
C763   C     0.68849   0.65227   0.75853   0.00000  Uiso   1.00
C764   C     0.70227   0.50308   0.85556   0.00000  Uiso   1.00
C765   C     0.97578   0.34748   0.74220   0.00000  Uiso   1.00
C766   C     0.98536   0.40187   0.75143   0.00000  Uiso   1.00
C767   C     0.96478   0.49762   0.64489   0.00000  Uiso   1.00
C768   C     0.93946   0.43448   0.50092   0.00000  Uiso   1.00
C769   C     0.94617   0.49005   0.58468   0.00000  Uiso   1.00
C770   C     0.69293   0.53919   0.95109   0.00000  Uiso   1.00
C771   C     0.71723   0.54992   0.50745   0.00000  Uiso   1.00
C772   C     0.80216   0.50305   0.99626   0.00000  Uiso   1.00
C773   C     0.77092   0.53289   0.53072   0.00000  Uiso   1.00
C774   C     0.87272   0.65405   0.72997   0.00000  Uiso   1.00
C775   C     0.72667   0.66019   0.85802   0.00000  Uiso   1.00
C776   C     0.77303   0.48537   0.94136   0.00000  Uiso   1.00
C777   C     0.86011   0.48896   0.51334   0.00000  Uiso   1.00
C778   C     0.88384   0.45105   0.98079   0.00000  Uiso   1.00
C779   C     0.85140   0.43014   0.92952   0.00000  Uiso   1.00
C780   C     0.79661   0.44647   0.91106   0.00000  Uiso   1.00
C781   C     0.89649   0.51275   0.56083   0.00000  Uiso   1.00
C782   C     0.96940   0.45230   0.55404   0.00000  Uiso   1.00
H783   H     0.67565   0.43506   0.57203   0.00000  Uiso   1.00
H784   H     0.87678   0.62178   0.75849   0.00000  Uiso   1.00
H785   H     0.77515   0.65922   0.79496   0.00000  Uiso   1.00
H786   H     0.76558   0.33966   0.89016   0.00000  Uiso   1.00
H787   H     0.71853   0.61776   0.86116   0.00000  Uiso   1.00
H788   H     0.68927   0.34736   0.86792   0.00000  Uiso   1.00
H789   H     0.84333   0.54093   0.79289   0.00000  Uiso   1.00
H790   H     0.95861   0.40546   0.97786   0.00000  Uiso   1.00
H791   H     0.88668   0.54805   0.58131   0.00000  Uiso   1.00
H792   H     0.69396   0.57255   0.53367   0.00000  Uiso   1.00
H793   H     0.77245   0.42777   0.87224   0.00000  Uiso   1.00
H794   H     0.92738   0.63210   0.67496   0.00000  Uiso   1.00
H795   H     0.83370   0.64512   0.69643   0.00000  Uiso   1.00
H796   H     0.86633   0.35618   0.75507   0.00000  Uiso   1.00
N797   N     0.81160   0.48556   0.73542   0.00000  Uiso   1.00
N798   N     0.85507   0.51444   0.76457   0.00000  Uiso   1.00
N799   N     0.92350   0.66127   0.70451   0.00000  Uiso   1.00
N800   N     0.73604   0.33801   0.80201   0.00000  Uiso   1.00
O801   O     0.96435   0.57963   0.75357   0.00000  Uiso   1.00
O802   O     0.72408   0.57038   0.74424   0.00000  Uiso   1.00
O803   O     0.98157   0.50691   0.83380   0.00000  Uiso   1.00
O804   O     0.74130   0.49766   0.82446   0.00000  Uiso   1.00
O805   O     0.94258   0.42962   0.75576   0.00000  Uiso   1.00
O806   O     0.70231   0.42037   0.74643   0.00000  Uiso   1.00
O807   O     0.92537   0.50234   0.67554   0.00000  Uiso   1.00
O808   O     0.68510   0.49309   0.66620   0.00000  Uiso   1.00
Zn809  Zn    0.93786   0.50618   0.75623   0.00000  Uiso   1.00
Zn810  Zn    0.72881   0.49382   0.74377   0.00000  Uiso   1.00
Br811  Br    0.15795   0.76754   0.68237   0.00000  Uiso   1.00
Br812  Br    0.21438   0.71488   0.88084   0.00000  Uiso   1.00
Br813  Br    0.28841   0.90442   0.92463   0.00000  Uiso   1.00
Br814  Br    0.12260   0.88000   0.61134   0.00000  Uiso   1.00
C815   C     0.01390   0.93134   0.74740   0.00000  Uiso   1.00
C816   C     0.05446   0.84067   0.91712   0.00000  Uiso   1.00
C817   C     0.02183   0.98560   0.75853   0.00000  Uiso   1.00
C818   C     0.03560   0.83642   0.85556   0.00000  Uiso   1.00
C819   C     0.30911   0.68081   0.74220   0.00000  Uiso   1.00
C820   C     0.31869   0.73520   0.75143   0.00000  Uiso   1.00
C821   C     0.29811   0.83095   0.64489   0.00000  Uiso   1.00
C822   C     0.27279   0.76781   0.50092   0.00000  Uiso   1.00
C823   C     0.27950   0.82338   0.58468   0.00000  Uiso   1.00
C824   C     0.02626   0.87253   0.95109   0.00000  Uiso   1.00
C825   C     0.05056   0.88326   0.50745   0.00000  Uiso   1.00
C826   C     0.13550   0.83639   0.99626   0.00000  Uiso   1.00
C827   C     0.10425   0.86623   0.53072   0.00000  Uiso   1.00
C828   C     0.20605   0.98738   0.72997   0.00000  Uiso   1.00
C829   C     0.06000   0.99353   0.85802   0.00000  Uiso   1.00
C830   C     0.10636   0.81871   0.94136   0.00000  Uiso   1.00
C831   C     0.19345   0.82229   0.51334   0.00000  Uiso   1.00
C832   C     0.21717   0.78438   0.98079   0.00000  Uiso   1.00
C833   C     0.18474   0.76348   0.92952   0.00000  Uiso   1.00
C834   C     0.12994   0.77981   0.91106   0.00000  Uiso   1.00
C835   C     0.22983   0.84608   0.56083   0.00000  Uiso   1.00
C836   C     0.30273   0.78563   0.55404   0.00000  Uiso   1.00
H837   H     0.00899   0.76839   0.57203   0.00000  Uiso   1.00
H838   H     0.21011   0.95511   0.75849   0.00000  Uiso   1.00
H839   H     0.10848   0.99255   0.79496   0.00000  Uiso   1.00
H840   H     0.09891   0.67299   0.89016   0.00000  Uiso   1.00
H841   H     0.05186   0.95109   0.86116   0.00000  Uiso   1.00
H842   H     0.02260   0.68069   0.86792   0.00000  Uiso   1.00
H843   H     0.17666   0.87426   0.79289   0.00000  Uiso   1.00
H844   H     0.29194   0.73879   0.97786   0.00000  Uiso   1.00
H845   H     0.22002   0.88138   0.58131   0.00000  Uiso   1.00
H846   H     0.02729   0.90588   0.53367   0.00000  Uiso   1.00
H847   H     0.10578   0.76110   0.87224   0.00000  Uiso   1.00
H848   H     0.26071   0.96544   0.67496   0.00000  Uiso   1.00
H849   H     0.16703   0.97845   0.69643   0.00000  Uiso   1.00
H850   H     0.19966   0.68951   0.75507   0.00000  Uiso   1.00
N851   N     0.14493   0.81890   0.73542   0.00000  Uiso   1.00
N852   N     0.18840   0.84777   0.76457   0.00000  Uiso   1.00
N853   N     0.25683   0.99460   0.70451   0.00000  Uiso   1.00
N854   N     0.06938   0.67135   0.80201   0.00000  Uiso   1.00
O855   O     0.29769   0.91296   0.75357   0.00000  Uiso   1.00
O856   O     0.05742   0.90371   0.74424   0.00000  Uiso   1.00
O857   O     0.31490   0.84024   0.83380   0.00000  Uiso   1.00
O858   O     0.07463   0.83099   0.82446   0.00000  Uiso   1.00
O859   O     0.27592   0.76296   0.75576   0.00000  Uiso   1.00
O860   O     0.03565   0.75371   0.74643   0.00000  Uiso   1.00
O861   O     0.25870   0.83567   0.67554   0.00000  Uiso   1.00
O862   O     0.01843   0.82642   0.66620   0.00000  Uiso   1.00
Zn863  Zn    0.27119   0.83951   0.75623   0.00000  Uiso   1.00
Zn864  Zn    0.06214   0.82716   0.74377   0.00000  Uiso   1.00
Br865  Br    0.49128   0.76754   0.68237   0.00000  Uiso   1.00
Br866  Br    0.54771   0.71488   0.88084   0.00000  Uiso   1.00
Br867  Br    0.62175   0.90442   0.92463   0.00000  Uiso   1.00
Br868  Br    0.45593   0.88000   0.61134   0.00000  Uiso   1.00
C869   C     0.34723   0.93134   0.74740   0.00000  Uiso   1.00
C870   C     0.38780   0.84067   0.91712   0.00000  Uiso   1.00
C871   C     0.35516   0.98560   0.75853   0.00000  Uiso   1.00
C872   C     0.36894   0.83642   0.85556   0.00000  Uiso   1.00
C873   C     0.64245   0.68081   0.74220   0.00000  Uiso   1.00
C874   C     0.65203   0.73520   0.75143   0.00000  Uiso   1.00
C875   C     0.63144   0.83095   0.64489   0.00000  Uiso   1.00
C876   C     0.60612   0.76781   0.50092   0.00000  Uiso   1.00
C877   C     0.61283   0.82338   0.58468   0.00000  Uiso   1.00
C878   C     0.35959   0.87253   0.95109   0.00000  Uiso   1.00
C879   C     0.38389   0.88326   0.50745   0.00000  Uiso   1.00
C880   C     0.46883   0.83639   0.99626   0.00000  Uiso   1.00
C881   C     0.43758   0.86623   0.53072   0.00000  Uiso   1.00
C882   C     0.53939   0.98738   0.72997   0.00000  Uiso   1.00
C883   C     0.39334   0.99353   0.85802   0.00000  Uiso   1.00
C884   C     0.43970   0.81871   0.94136   0.00000  Uiso   1.00
C885   C     0.52678   0.82229   0.51334   0.00000  Uiso   1.00
C886   C     0.55050   0.78438   0.98079   0.00000  Uiso   1.00
C887   C     0.51807   0.76348   0.92952   0.00000  Uiso   1.00
C888   C     0.46328   0.77981   0.91106   0.00000  Uiso   1.00
C889   C     0.56316   0.84608   0.56083   0.00000  Uiso   1.00
C890   C     0.63606   0.78563   0.55404   0.00000  Uiso   1.00
H891   H     0.34232   0.76839   0.57203   0.00000  Uiso   1.00
H892   H     0.54345   0.95511   0.75849   0.00000  Uiso   1.00
H893   H     0.44182   0.99255   0.79496   0.00000  Uiso   1.00
H894   H     0.43225   0.67299   0.89016   0.00000  Uiso   1.00
H895   H     0.38519   0.95109   0.86116   0.00000  Uiso   1.00
H896   H     0.35594   0.68069   0.86792   0.00000  Uiso   1.00
H897   H     0.51000   0.87426   0.79289   0.00000  Uiso   1.00
H898   H     0.62528   0.73879   0.97786   0.00000  Uiso   1.00
H899   H     0.55335   0.88138   0.58131   0.00000  Uiso   1.00
H900   H     0.36062   0.90588   0.53367   0.00000  Uiso   1.00
H901   H     0.43912   0.76110   0.87224   0.00000  Uiso   1.00
H902   H     0.59405   0.96544   0.67496   0.00000  Uiso   1.00
H903   H     0.50036   0.97845   0.69643   0.00000  Uiso   1.00
H904   H     0.53299   0.68951   0.75507   0.00000  Uiso   1.00
N905   N     0.47827   0.81890   0.73542   0.00000  Uiso   1.00
N906   N     0.52173   0.84777   0.76457   0.00000  Uiso   1.00
N907   N     0.59016   0.99460   0.70451   0.00000  Uiso   1.00
N908   N     0.40271   0.67135   0.80201   0.00000  Uiso   1.00
O909   O     0.63102   0.91296   0.75357   0.00000  Uiso   1.00
O910   O     0.39075   0.90371   0.74424   0.00000  Uiso   1.00
O911   O     0.64823   0.84024   0.83380   0.00000  Uiso   1.00
O912   O     0.40796   0.83099   0.82446   0.00000  Uiso   1.00
O913   O     0.60925   0.76296   0.75576   0.00000  Uiso   1.00
O914   O     0.36898   0.75371   0.74643   0.00000  Uiso   1.00
O915   O     0.59204   0.83567   0.67554   0.00000  Uiso   1.00
O916   O     0.35177   0.82642   0.66620   0.00000  Uiso   1.00
Zn917  Zn    0.60453   0.83951   0.75623   0.00000  Uiso   1.00
Zn918  Zn    0.39547   0.82716   0.74377   0.00000  Uiso   1.00
Br919  Br    0.82462   0.76754   0.68237   0.00000  Uiso   1.00
Br920  Br    0.88104   0.71488   0.88084   0.00000  Uiso   1.00
Br921  Br    0.95508   0.90442   0.92463   0.00000  Uiso   1.00
Br922  Br    0.78927   0.88000   0.61134   0.00000  Uiso   1.00
C923   C     0.68056   0.93134   0.74740   0.00000  Uiso   1.00
C924   C     0.72113   0.84067   0.91712   0.00000  Uiso   1.00
C925   C     0.68849   0.98560   0.75853   0.00000  Uiso   1.00
C926   C     0.70227   0.83642   0.85556   0.00000  Uiso   1.00
C927   C     0.97578   0.68081   0.74220   0.00000  Uiso   1.00
C928   C     0.98536   0.73520   0.75143   0.00000  Uiso   1.00
C929   C     0.96478   0.83095   0.64489   0.00000  Uiso   1.00
C930   C     0.93946   0.76781   0.50092   0.00000  Uiso   1.00
C931   C     0.94617   0.82338   0.58468   0.00000  Uiso   1.00
C932   C     0.69293   0.87253   0.95109   0.00000  Uiso   1.00
C933   C     0.71723   0.88326   0.50745   0.00000  Uiso   1.00
C934   C     0.80216   0.83639   0.99626   0.00000  Uiso   1.00
C935   C     0.77092   0.86623   0.53072   0.00000  Uiso   1.00
C936   C     0.87272   0.98738   0.72997   0.00000  Uiso   1.00
C937   C     0.72667   0.99353   0.85802   0.00000  Uiso   1.00
C938   C     0.77303   0.81871   0.94136   0.00000  Uiso   1.00
C939   C     0.86011   0.82229   0.51334   0.00000  Uiso   1.00
C940   C     0.88384   0.78438   0.98079   0.00000  Uiso   1.00
C941   C     0.85140   0.76348   0.92952   0.00000  Uiso   1.00
C942   C     0.79661   0.77981   0.91106   0.00000  Uiso   1.00
C943   C     0.89649   0.84608   0.56083   0.00000  Uiso   1.00
C944   C     0.96940   0.78563   0.55404   0.00000  Uiso   1.00
H945   H     0.67565   0.76839   0.57203   0.00000  Uiso   1.00
H946   H     0.87678   0.95511   0.75849   0.00000  Uiso   1.00
H947   H     0.77515   0.99255   0.79496   0.00000  Uiso   1.00
H948   H     0.76558   0.67299   0.89016   0.00000  Uiso   1.00
H949   H     0.71853   0.95109   0.86116   0.00000  Uiso   1.00
H950   H     0.68927   0.68069   0.86792   0.00000  Uiso   1.00
H951   H     0.84333   0.87426   0.79289   0.00000  Uiso   1.00
H952   H     0.95861   0.73879   0.97786   0.00000  Uiso   1.00
H953   H     0.88668   0.88138   0.58131   0.00000  Uiso   1.00
H954   H     0.69396   0.90588   0.53367   0.00000  Uiso   1.00
H955   H     0.77245   0.76110   0.87224   0.00000  Uiso   1.00
H956   H     0.92738   0.96544   0.67496   0.00000  Uiso   1.00
H957   H     0.83370   0.97845   0.69643   0.00000  Uiso   1.00
H958   H     0.86633   0.68951   0.75507   0.00000  Uiso   1.00
N959   N     0.81160   0.81890   0.73542   0.00000  Uiso   1.00
N960   N     0.85507   0.84777   0.76457   0.00000  Uiso   1.00
N961   N     0.92350   0.99460   0.70451   0.00000  Uiso   1.00
N962   N     0.73604   0.67135   0.80201   0.00000  Uiso   1.00
O963   O     0.96435   0.91296   0.75357   0.00000  Uiso   1.00
O964   O     0.72408   0.90371   0.74424   0.00000  Uiso   1.00
O965   O     0.98157   0.84024   0.83380   0.00000  Uiso   1.00
O966   O     0.74130   0.83099   0.82446   0.00000  Uiso   1.00
O967   O     0.94258   0.76296   0.75576   0.00000  Uiso   1.00
O968   O     0.70231   0.75371   0.74643   0.00000  Uiso   1.00
O969   O     0.92537   0.83567   0.67554   0.00000  Uiso   1.00
O970   O     0.68510   0.82642   0.66620   0.00000  Uiso   1.00
Zn971  Zn    0.93786   0.83951   0.75623   0.00000  Uiso   1.00
Zn972  Zn    0.72881   0.82716   0.74377   0.00000  Uiso   1.00
loop_
_geom_bond_atom_site_label_1
_geom_bond_atom_site_label_2
_geom_bond_distance
_geom_bond_site_symmetry_2
_ccdc_geom_bond_type
Br1    N41     1.877   .     S
Br2    C23     1.926   .     S
Br3    C68     1.927   .     S
Br4    C17     1.925   .     S
C5     O46     1.295   .     A
C5     C7      1.409   .     S
C5     O153    1.271   1_455 S
C6     C8      1.467   .     S
C6     C14     1.412   .     A
C6     C20     1.417   .     A
C7     C279    1.356   1_455 S
C7     N206    1.429   .     S
C8     O48     1.301   .     A
C8     O155    1.294   1_455 S
C9     C10     1.409   .     S
C9     C385    1.356   1_545 S
C9     N367    1.435   1_545 S
C10    O49     1.288   .     A
C10    O104    1.279   .     S
C11    C13     1.439   .     S
C11    O51     1.299   .     A
C11    O106    1.287   .     S
C12    C26     1.385   .     A
C12    C508    1.409   1_554 S
C12    H520    1.081   1_554 S
C13    C25     1.381   .     A
C13    C26     1.393   .     A
C14    Br111   1.927   1_455 S
C14    C501    1.382   .     S
C15    C17     1.391   .     A
C15    H36     1.084   .     S
C15    C500    1.382   1_554 S
C16    C20     1.414   .     A
C16    C503    1.436   .     S
C16    C507    1.424   .     S
C17    C502    1.436   1_554 S
C18    H39     1.110   .     S
C18    H28     1.106   .     S
C18    N43     1.450   .     S
C18    H202    1.106   .     S
C19    H31     1.110   .     S
C19    H192    1.106   .     S
C19    H194    1.111   .     S
C19    N206    1.452   .     S
C20    C24     1.414   .     A
C21    C25     1.388   .     A
C21    C502    1.424   1_554 S
C21    C508    1.429   1_554 S
C22    C23     1.392   .     A
C22    C498    1.409   .     S
C22    C507    1.429   .     S
C23    C24     1.382   .     A
C24    H37     1.077   .     S
C25    H35     1.073   .     S
C26    H81     1.084   .     S
H27    C134    1.084   1_455 S
H29    N206    1.031   .     S
H30    C343    1.106   1_545 S
H32    C343    1.111   1_545 S
H33    N42     1.029   .     S
H34    C498    1.081   .     S
H38    N43     1.032   .     S
H40    C342    1.106   1_545 S
N41    N42     1.298   .     D
N41    Zn54    2.020   .     S
N42    Zn53    2.020   .     S
N43    C171    1.435   .     S
N44    C331    1.429   1_545 S
N44    H353    1.031   1_545 S
N44    C343    1.452   1_545 S
O45    Zn53    1.970   .     S
O45    C59     1.271   .     S
O46    Zn54    1.987   .     S
O47    Zn53    1.961   .     S
O47    C62     1.294   .     S
O48    Zn54    1.914   .     S
O49    Zn53    1.987   .     S
O50    Zn54    1.970   .     S
O50    C118    1.279   1_455 S
O51    Zn53    1.914   .     S
O52    Zn54    1.961   .     S
O52    C119    1.287   1_455 S
Br55   N95     1.877   .     S
Br56   C77     1.926   .     S
Br57   C122    1.927   .     S
Br58   C71     1.925   .     S
C59    O100    1.295   .     A
C59    C61     1.409   .     S
C60    C62     1.467   .     S
C60    C68     1.412   .     A
C60    C74     1.417   .     A
C61    C171    1.356   .     S
C61    N260    1.429   .     S
C62    O102    1.301   .     A
C63    C64     1.409   .     S
C63    C439    1.356   1_545 S
C63    N421    1.435   1_545 S
C64    O103    1.288   .     A
C64    O158    1.279   .     S
C65    C67     1.439   .     S
C65    O105    1.299   .     A
C65    O160    1.287   .     S
C66    C80     1.385   .     A
C66    C562    1.409   1_554 S
C66    H574    1.081   1_554 S
C67    C79     1.381   .     A
C67    C80     1.393   .     A
C68    C555    1.382   .     S
C69    C71     1.391   .     A
C69    H90     1.084   .     S
C69    C554    1.382   1_554 S
C70    C74     1.414   .     A
C70    C557    1.436   .     S
C70    C561    1.424   .     S
C71    C556    1.436   1_554 S
C72    H93     1.110   .     S
C72    H82     1.106   .     S
C72    N97     1.450   .     S
C72    H256    1.106   .     S
C73    H85     1.110   .     S
C73    H246    1.106   .     S
C73    H248    1.111   .     S
C73    N260    1.452   .     S
C74    C78     1.414   .     A
C75    C79     1.388   .     A
C75    C556    1.424   1_554 S
C75    C562    1.429   1_554 S
C76    C77     1.392   .     A
C76    C552    1.409   .     S
C76    C561    1.429   .     S
C77    C78     1.382   .     A
C78    H91     1.077   .     S
C79    H89     1.073   .     S
C80    H135    1.084   .     S
H83    N260    1.031   .     S
H84    C397    1.106   1_545 S
H86    C397    1.111   1_545 S
H87    N96     1.029   .     S
H88    C552    1.081   .     S
H92    N97     1.032   .     S
H94    C396    1.106   1_545 S
N95    N96     1.298   .     D
N95    Zn108   2.020   .     S
N96    Zn107   2.020   .     S
N97    C225    1.435   .     S
N98    C385    1.429   1_545 S
N98    H407    1.031   1_545 S
N98    C397    1.452   1_545 S
O99    Zn107   1.970   .     S
O99    C113    1.271   .     S
O100   Zn108   1.987   .     S
O101   Zn107   1.961   .     S
O101   C116    1.294   .     S
O102   Zn108   1.914   .     S
O103   Zn107   1.987   .     S
O104   Zn108   1.970   .     S
O105   Zn107   1.914   .     S
O106   Zn108   1.961   .     S
Br109  N149    1.877   .     S
Br110  C131    1.926   .     S
Br111  C14     1.927   1_655 S
Br112  C125    1.925   .     S
C113   O154    1.295   .     A
C113   C115    1.409   .     S
C114   C116    1.467   .     S
C114   C122    1.412   .     A
C114   C128    1.417   .     A
C115   C225    1.356   .     S
C115   N314    1.429   .     S
C116   O156    1.301   .     A
C117   C118    1.409   .     S
C117   C331    1.356   1_645 S
C117   N475    1.435   1_545 S
C118   O157    1.288   .     A
C118   O50     1.279   1_655 S
C119   C121    1.439   .     S
C119   O159    1.299   .     A
C119   O52     1.287   1_655 S
C120   C134    1.385   .     A
C120   C616    1.409   1_554 S
C120   H628    1.081   1_554 S
C121   C133    1.381   .     A
C121   C134    1.393   .     A
C122   C609    1.382   .     S
C123   C125    1.391   .     A
C123   H144    1.084   .     S
C123   C608    1.382   1_554 S
C124   C128    1.414   .     A
C124   C611    1.436   .     S
C124   C615    1.424   .     S
C125   C610    1.436   1_554 S
C126   H147    1.110   .     S
C126   H136    1.106   .     S
C126   N151    1.450   .     S
C126   H310    1.106   .     S
C127   H139    1.110   .     S
C127   H300    1.106   .     S
C127   H302    1.111   .     S
C127   N314    1.452   .     S
C128   C132    1.414   .     A
C129   C133    1.388   .     A
C129   C610    1.424   1_554 S
C129   C616    1.429   1_554 S
C130   C131    1.392   .     A
C130   C606    1.409   .     S
C130   C615    1.429   .     S
C131   C132    1.382   .     A
C132   H145    1.077   .     S
C133   H143    1.073   .     S
C134   H27     1.084   1_655 S
H137   N314    1.031   .     S
H138   C451    1.106   1_545 S
H140   C451    1.111   1_545 S
H141   N150    1.029   .     S
H142   C606    1.081   .     S
H146   N151    1.032   .     S
H148   C450    1.106   1_545 S
N149   N150    1.298   .     D
N149   Zn162   2.020   .     S
N150   Zn161   2.020   .     S
N151   C279    1.435   .     S
N152   C439    1.429   1_545 S
N152   H461    1.031   1_545 S
N152   C451    1.452   1_545 S
O153   Zn161   1.970   .     S
O153   C5      1.271   1_655 S
O154   Zn162   1.987   .     S
O155   Zn161   1.961   .     S
O155   C8      1.294   1_655 S
O156   Zn162   1.914   .     S
O157   Zn161   1.987   .     S
O158   Zn162   1.970   .     S
O159   Zn161   1.914   .     S
O160   Zn162   1.961   .     S
Br163  N203    1.877   .     S
Br164  C185    1.926   .     S
Br165  C230    1.927   .     S
Br166  C179    1.925   .     S
C167   O208    1.295   .     A
C167   C169    1.409   .     S
C167   O315    1.271   1_455 S
C168   C170    1.467   .     S
C168   C176    1.412   .     A
C168   C182    1.417   .     A
C169   C441    1.356   1_455 S
C169   N368    1.429   .     S
C170   O210    1.301   .     A
C170   O317    1.294   1_455 S
C171   C172    1.409   .     S
C172   O211    1.288   .     A
C172   O266    1.279   .     S
C173   C175    1.439   .     S
C173   O213    1.299   .     A
C173   O268    1.287   .     S
C174   C188    1.385   .     A
C174   C670    1.409   1_554 S
C174   H682    1.081   1_554 S
C175   C187    1.381   .     A
C175   C188    1.393   .     A
C176   Br273   1.927   1_455 S
C176   C663    1.382   .     S
C177   C179    1.391   .     A
C177   H198    1.084   .     S
C177   C662    1.382   1_554 S
C178   C182    1.414   .     A
C178   C665    1.436   .     S
C178   C669    1.424   .     S
C179   C664    1.436   1_554 S
C180   H201    1.110   .     S
C180   H190    1.106   .     S
C180   N205    1.450   .     S
C180   H364    1.106   .     S
C181   H193    1.110   .     S
C181   H354    1.106   .     S
C181   H356    1.111   .     S
C181   N368    1.452   .     S
C182   C186    1.414   .     A
C183   C187    1.388   .     A
C183   C664    1.424   1_554 S
C183   C670    1.429   1_554 S
C184   C185    1.392   .     A
C184   C660    1.409   .     S
C184   C669    1.429   .     S
C185   C186    1.382   .     A
C186   H199    1.077   .     S
C187   H197    1.073   .     S
C188   H243    1.084   .     S
H189   C296    1.084   1_455 S
H191   N368    1.031   .     S
H195   N204    1.029   .     S
H196   C660    1.081   .     S
H200   N205    1.032   .     S
N203   N204    1.298   .     D
N203   Zn216   2.020   .     S
N204   Zn215   2.020   .     S
N205   C333    1.435   .     S
O207   Zn215   1.970   .     S
O207   C221    1.271   .     S
O208   Zn216   1.987   .     S
O209   Zn215   1.961   .     S
O209   C224    1.294   .     S
O210   Zn216   1.914   .     S
O211   Zn215   1.987   .     S
O212   Zn216   1.970   .     S
O212   C280    1.279   1_455 S
O213   Zn215   1.914   .     S
O214   Zn216   1.961   .     S
O214   C281    1.287   1_455 S
Br217  N257    1.877   .     S
Br218  C239    1.926   .     S
Br219  C284    1.927   .     S
Br220  C233    1.925   .     S
C221   O262    1.295   .     A
C221   C223    1.409   .     S
C222   C224    1.467   .     S
C222   C230    1.412   .     A
C222   C236    1.417   .     A
C223   C333    1.356   .     S
C223   N422    1.429   .     S
C224   O264    1.301   .     A
C225   C226    1.409   .     S
C226   O265    1.288   .     A
C226   O320    1.279   .     S
C227   C229    1.439   .     S
C227   O267    1.299   .     A
C227   O322    1.287   .     S
C228   C242    1.385   .     A
C228   C724    1.409   1_554 S
C228   H736    1.081   1_554 S
C229   C241    1.381   .     A
C229   C242    1.393   .     A
C230   C717    1.382   .     S
C231   C233    1.391   .     A
C231   H252    1.084   .     S
C231   C716    1.382   1_554 S
C232   C236    1.414   .     A
C232   C719    1.436   .     S
C232   C723    1.424   .     S
C233   C718    1.436   1_554 S
C234   H255    1.110   .     S
C234   H244    1.106   .     S
C234   N259    1.450   .     S
C234   H418    1.106   .     S
C235   H247    1.110   .     S
C235   H408    1.106   .     S
C235   H410    1.111   .     S
C235   N422    1.452   .     S
C236   C240    1.414   .     A
C237   C241    1.388   .     A
C237   C718    1.424   1_554 S
C237   C724    1.429   1_554 S
C238   C239    1.392   .     A
C238   C714    1.409   .     S
C238   C723    1.429   .     S
C239   C240    1.382   .     A
C240   H253    1.077   .     S
C241   H251    1.073   .     S
C242   H297    1.084   .     S
H245   N422    1.031   .     S
H249   N258    1.029   .     S
H250   C714    1.081   .     S
H254   N259    1.032   .     S
N257   N258    1.298   .     D
N257   Zn270   2.020   .     S
N258   Zn269   2.020   .     S
N259   C387    1.435   .     S
O261   Zn269   1.970   .     S
O261   C275    1.271   .     S
O262   Zn270   1.987   .     S
O263   Zn269   1.961   .     S
O263   C278    1.294   .     S
O264   Zn270   1.914   .     S
O265   Zn269   1.987   .     S
O266   Zn270   1.970   .     S
O267   Zn269   1.914   .     S
O268   Zn270   1.961   .     S
Br271  N311    1.877   .     S
Br272  C293    1.926   .     S
Br273  C176    1.927   1_655 S
Br274  C287    1.925   .     S
C275   O316    1.295   .     A
C275   C277    1.409   .     S
C276   C278    1.467   .     S
C276   C284    1.412   .     A
C276   C290    1.417   .     A
C277   C387    1.356   .     S
C277   N476    1.429   .     S
C278   O318    1.301   .     A
C279   C280    1.409   .     S
C279   C7      1.356   1_655 S
C280   O319    1.288   .     A
C280   O212    1.279   1_655 S
C281   C283    1.439   .     S
C281   O321    1.299   .     A
C281   O214    1.287   1_655 S
C282   C296    1.385   .     A
C282   C778    1.409   1_554 S
C282   H790    1.081   1_554 S
C283   C295    1.381   .     A
C283   C296    1.393   .     A
C284   C771    1.382   .     S
C285   C287    1.391   .     A
C285   H306    1.084   .     S
C285   C770    1.382   1_554 S
C286   C290    1.414   .     A
C286   C773    1.436   .     S
C286   C777    1.424   .     S
C287   C772    1.436   1_554 S
C288   H309    1.110   .     S
C288   H298    1.106   .     S
C288   N313    1.450   .     S
C288   H472    1.106   .     S
C289   H301    1.110   .     S
C289   H462    1.106   .     S
C289   H464    1.111   .     S
C289   N476    1.452   .     S
C290   C294    1.414   .     A
C291   C295    1.388   .     A
C291   C772    1.424   1_554 S
C291   C778    1.429   1_554 S
C292   C293    1.392   .     A
C292   C768    1.409   .     S
C292   C777    1.429   .     S
C293   C294    1.382   .     A
C294   H307    1.077   .     S
C295   H305    1.073   .     S
C296   H189    1.084   1_655 S
H299   N476    1.031   .     S
H303   N312    1.029   .     S
H304   C768    1.081   .     S
H308   N313    1.032   .     S
N311   N312    1.298   .     D
N311   Zn324   2.020   .     S
N312   Zn323   2.020   .     S
N313   C441    1.435   .     S
O315   Zn323   1.970   .     S
O315   C167    1.271   1_655 S
O316   Zn324   1.987   .     S
O317   Zn323   1.961   .     S
O317   C170    1.294   1_655 S
O318   Zn324   1.914   .     S
O319   Zn323   1.987   .     S
O320   Zn324   1.970   .     S
O321   Zn323   1.914   .     S
O322   Zn324   1.961   .     S
Br325  N365    1.877   .     S
Br326  C347    1.926   .     S
Br327  C392    1.927   .     S
Br328  C341    1.925   .     S
C329   O370    1.295   .     A
C329   C331    1.409   .     S
C329   O477    1.271   1_455 S
C330   C332    1.467   .     S
C330   C338    1.412   .     A
C330   C344    1.417   .     A
C331   C117    1.356   1_465 S
C331   N44     1.429   1_565 S
C332   O372    1.301   .     A
C332   O479    1.294   1_455 S
C333   C334    1.409   .     S
C334   O373    1.288   .     A
C334   O428    1.279   .     S
C335   C337    1.439   .     S
C335   O375    1.299   .     A
C335   O430    1.287   .     S
C336   C350    1.385   .     A
C336   C832    1.409   1_554 S
C336   H844    1.081   1_554 S
C337   C349    1.381   .     A
C337   C350    1.393   .     A
C338   Br435   1.927   1_455 S
C338   C825    1.382   .     S
C339   C341    1.391   .     A
C339   H360    1.084   .     S
C339   C824    1.382   1_554 S
C340   C344    1.414   .     A
C340   C827    1.436   .     S
C340   C831    1.424   .     S
C341   C826    1.436   1_554 S
C342   H363    1.110   .     S
C342   H352    1.106   .     S
C342   N367    1.450   .     S
C342   H40     1.106   1_565 S
C343   H355    1.110   .     S
C343   H30     1.106   1_565 S
C343   H32     1.111   1_565 S
C343   N44     1.452   1_565 S
C344   C348    1.414   .     A
C345   C349    1.388   .     A
C345   C826    1.424   1_554 S
C345   C832    1.429   1_554 S
C346   C347    1.392   .     A
C346   C822    1.409   .     S
C346   C831    1.429   .     S
C347   C348    1.382   .     A
C348   H361    1.077   .     S
C349   H359    1.073   .     S
C350   H405    1.084   .     S
H351   C458    1.084   1_455 S
H353   N44     1.031   1_565 S
H357   N366    1.029   .     S
H358   C822    1.081   .     S
H362   N367    1.032   .     S
N365   N366    1.298   .     D
N365   Zn378   2.020   .     S
N366   Zn377   2.020   .     S
N367   C9      1.435   1_565 S
O369   Zn377   1.970   .     S
O369   C383    1.271   .     S
O370   Zn378   1.987   .     S
O371   Zn377   1.961   .     S
O371   C386    1.294   .     S
O372   Zn378   1.914   .     S
O373   Zn377   1.987   .     S
O374   Zn378   1.970   .     S
O374   C442    1.279   1_455 S
O375   Zn377   1.914   .     S
O376   Zn378   1.961   .     S
O376   C443    1.287   1_455 S
Br379  N419    1.877   .     S
Br380  C401    1.926   .     S
Br381  C446    1.927   .     S
Br382  C395    1.925   .     S
C383   O424    1.295   .     A
C383   C385    1.409   .     S
C384   C386    1.467   .     S
C384   C392    1.412   .     A
C384   C398    1.417   .     A
C385   C9      1.356   1_565 S
C385   N98     1.429   1_565 S
C386   O426    1.301   .     A
C387   C388    1.409   .     S
C388   O427    1.288   .     A
C388   O482    1.279   .     S
C389   C391    1.439   .     S
C389   O429    1.299   .     A
C389   O484    1.287   .     S
C390   C404    1.385   .     A
C390   C886    1.409   1_554 S
C390   H898    1.081   1_554 S
C391   C403    1.381   .     A
C391   C404    1.393   .     A
C392   C879    1.382   .     S
C393   C395    1.391   .     A
C393   H414    1.084   .     S
C393   C878    1.382   1_554 S
C394   C398    1.414   .     A
C394   C881    1.436   .     S
C394   C885    1.424   .     S
C395   C880    1.436   1_554 S
C396   H417    1.110   .     S
C396   H406    1.106   .     S
C396   N421    1.450   .     S
C396   H94     1.106   1_565 S
C397   H409    1.110   .     S
C397   H84     1.106   1_565 S
C397   H86     1.111   1_565 S
C397   N98     1.452   1_565 S
C398   C402    1.414   .     A
C399   C403    1.388   .     A
C399   C880    1.424   1_554 S
C399   C886    1.429   1_554 S
C400   C401    1.392   .     A
C400   C876    1.409   .     S
C400   C885    1.429   .     S
C401   C402    1.382   .     A
C402   H415    1.077   .     S
C403   H413    1.073   .     S
C404   H459    1.084   .     S
H407   N98     1.031   1_565 S
H411   N420    1.029   .     S
H412   C876    1.081   .     S
H416   N421    1.032   .     S
N419   N420    1.298   .     D
N419   Zn432   2.020   .     S
N420   Zn431   2.020   .     S
N421   C63     1.435   1_565 S
O423   Zn431   1.970   .     S
O423   C437    1.271   .     S
O424   Zn432   1.987   .     S
O425   Zn431   1.961   .     S
O425   C440    1.294   .     S
O426   Zn432   1.914   .     S
O427   Zn431   1.987   .     S
O428   Zn432   1.970   .     S
O429   Zn431   1.914   .     S
O430   Zn432   1.961   .     S
Br433  N473    1.877   .     S
Br434  C455    1.926   .     S
Br435  C338    1.927   1_655 S
Br436  C449    1.925   .     S
C437   O478    1.295   .     A
C437   C439    1.409   .     S
C438   C440    1.467   .     S
C438   C446    1.412   .     A
C438   C452    1.417   .     A
C439   C63     1.356   1_565 S
C439   N152    1.429   1_565 S
C440   O480    1.301   .     A
C441   C442    1.409   .     S
C441   C169    1.356   1_655 S
C442   O481    1.288   .     A
C442   O374    1.279   1_655 S
C443   C445    1.439   .     S
C443   O483    1.299   .     A
C443   O376    1.287   1_655 S
C444   C458    1.385   .     A
C444   C940    1.409   1_554 S
C444   H952    1.081   1_554 S
C445   C457    1.381   .     A
C445   C458    1.393   .     A
C446   C933    1.382   .     S
C447   C449    1.391   .     A
C447   H468    1.084   .     S
C447   C932    1.382   1_554 S
C448   C452    1.414   .     A
C448   C935    1.436   .     S
C448   C939    1.424   .     S
C449   C934    1.436   1_554 S
C450   H471    1.110   .     S
C450   H460    1.106   .     S
C450   N475    1.450   .     S
C450   H148    1.106   1_565 S
C451   H463    1.110   .     S
C451   H138    1.106   1_565 S
C451   H140    1.111   1_565 S
C451   N152    1.452   1_565 S
C452   C456    1.414   .     A
C453   C457    1.388   .     A
C453   C934    1.424   1_554 S
C453   C940    1.429   1_554 S
C454   C455    1.392   .     A
C454   C930    1.409   .     S
C454   C939    1.429   .     S
C455   C456    1.382   .     A
C456   H469    1.077   .     S
C457   H467    1.073   .     S
C458   H351    1.084   1_655 S
H461   N152    1.031   1_565 S
H465   N474    1.029   .     S
H466   C930    1.081   .     S
H470   N475    1.032   .     S
N473   N474    1.298   .     D
N473   Zn486   2.020   .     S
N474   Zn485   2.020   .     S
N475   C117    1.435   1_565 S
O477   Zn485   1.970   .     S
O477   C329    1.271   1_655 S
O478   Zn486   1.987   .     S
O479   Zn485   1.961   .     S
O479   C332    1.294   1_655 S
O480   Zn486   1.914   .     S
O481   Zn485   1.987   .     S
O482   Zn486   1.970   .     S
O483   Zn485   1.914   .     S
O484   Zn486   1.961   .     S
Br487  N527    1.877   .     S
Br488  C509    1.926   .     S
Br489  C554    1.927   .     S
Br490  C503    1.925   .     S
C491   O532    1.295   .     A
C491   C493    1.409   .     S
C491   O639    1.271   1_455 S
C492   C494    1.467   .     S
C492   C500    1.412   .     A
C492   C506    1.417   .     A
C493   C765    1.356   1_455 S
C493   N692    1.429   .     S
C494   O534    1.301   .     A
C494   O641    1.294   1_455 S
C495   C496    1.409   .     S
C495   C871    1.356   1_545 S
C495   N853    1.435   1_545 S
C496   O535    1.288   .     A
C496   O590    1.279   .     S
C497   C499    1.439   .     S
C497   O537    1.299   .     A
C497   O592    1.287   .     S
C498   C512    1.385   .     A
C499   C511    1.381   .     A
C499   C512    1.393   .     A
C500   Br597   1.927   1_455 S
C500   C15     1.382   1_556 S
C501   C503    1.391   .     A
C501   H522    1.084   .     S
C502   C506    1.414   .     A
C502   C17     1.436   1_556 S
C502   C21     1.424   1_556 S
C504   H525    1.110   .     S
C504   H514    1.106   .     S
C504   N529    1.450   .     S
C504   H688    1.106   .     S
C505   H517    1.110   .     S
C505   H678    1.106   .     S
C505   H680    1.111   .     S
C505   N692    1.452   .     S
C506   C510    1.414   .     A
C507   C511    1.388   .     A
C508   C509    1.392   .     A
C508   C12     1.409   1_556 S
C508   C21     1.429   1_556 S
C509   C510    1.382   .     A
C510   H523    1.077   .     S
C511   H521    1.073   .     S
C512   H567    1.084   .     S
H513   C620    1.084   1_455 S
H515   N692    1.031   .     S
H516   C829    1.106   1_545 S
H518   C829    1.111   1_545 S
H519   N528    1.029   .     S
H520   C12     1.081   1_556 S
H524   N529    1.032   .     S
H526   C828    1.106   1_545 S
N527   N528    1.298   .     D
N527   Zn540   2.020   .     S
N528   Zn539   2.020   .     S
N529   C657    1.435   .     S
N530   C817    1.429   1_545 S
N530   H839    1.031   1_545 S
N530   C829    1.452   1_545 S
O531   Zn539   1.970   .     S
O531   C545    1.271   .     S
O532   Zn540   1.987   .     S
O533   Zn539   1.961   .     S
O533   C548    1.294   .     S
O534   Zn540   1.914   .     S
O535   Zn539   1.987   .     S
O536   Zn540   1.970   .     S
O536   C604    1.279   1_455 S
O537   Zn539   1.914   .     S
O538   Zn540   1.961   .     S
O538   C605    1.287   1_455 S
Br541  N581    1.877   .     S
Br542  C563    1.926   .     S
Br543  C608    1.927   .     S
Br544  C557    1.925   .     S
C545   O586    1.295   .     A
C545   C547    1.409   .     S
C546   C548    1.467   .     S
C546   C554    1.412   .     A
C546   C560    1.417   .     A
C547   C657    1.356   .     S
C547   N746    1.429   .     S
C548   O588    1.301   .     A
C549   C550    1.409   .     S
C549   C925    1.356   1_545 S
C549   N907    1.435   1_545 S
C550   O589    1.288   .     A
C550   O644    1.279   .     S
C551   C553    1.439   .     S
C551   O591    1.299   .     A
C551   O646    1.287   .     S
C552   C566    1.385   .     A
C553   C565    1.381   .     A
C553   C566    1.393   .     A
C554   C69     1.382   1_556 S
C555   C557    1.391   .     A
C555   H576    1.084   .     S
C556   C560    1.414   .     A
C556   C71     1.436   1_556 S
C556   C75     1.424   1_556 S
C558   H579    1.110   .     S
C558   H568    1.106   .     S
C558   N583    1.450   .     S
C558   H742    1.106   .     S
C559   H571    1.110   .     S
C559   H732    1.106   .     S
C559   H734    1.111   .     S
C559   N746    1.452   .     S
C560   C564    1.414   .     A
C561   C565    1.388   .     A
C562   C563    1.392   .     A
C562   C66     1.409   1_556 S
C562   C75     1.429   1_556 S
C563   C564    1.382   .     A
C564   H577    1.077   .     S
C565   H575    1.073   .     S
C566   H621    1.084   .     S
H569   N746    1.031   .     S
H570   C883    1.106   1_545 S
H572   C883    1.111   1_545 S
H573   N582    1.029   .     S
H574   C66     1.081   1_556 S
H578   N583    1.032   .     S
H580   C882    1.106   1_545 S
N581   N582    1.298   .     D
N581   Zn594   2.020   .     S
N582   Zn593   2.020   .     S
N583   C711    1.435   .     S
N584   C871    1.429   1_545 S
N584   H893    1.031   1_545 S
N584   C883    1.452   1_545 S
O585   Zn593   1.970   .     S
O585   C599    1.271   .     S
O586   Zn594   1.987   .     S
O587   Zn593   1.961   .     S
O587   C602    1.294   .     S
O588   Zn594   1.914   .     S
O589   Zn593   1.987   .     S
O590   Zn594   1.970   .     S
O591   Zn593   1.914   .     S
O592   Zn594   1.961   .     S
Br595  N635    1.877   .     S
Br596  C617    1.926   .     S
Br597  C500    1.927   1_655 S
Br598  C611    1.925   .     S
C599   O640    1.295   .     A
C599   C601    1.409   .     S
C600   C602    1.467   .     S
C600   C608    1.412   .     A
C600   C614    1.417   .     A
C601   C711    1.356   .     S
C601   N800    1.429   .     S
C602   O642    1.301   .     A
C603   C604    1.409   .     S
C603   C817    1.356   1_645 S
C603   N961    1.435   1_545 S
C604   O643    1.288   .     A
C604   O536    1.279   1_655 S
C605   C607    1.439   .     S
C605   O645    1.299   .     A
C605   O538    1.287   1_655 S
C606   C620    1.385   .     A
C607   C619    1.381   .     A
C607   C620    1.393   .     A
C608   C123    1.382   1_556 S
C609   C611    1.391   .     A
C609   H630    1.084   .     S
C610   C614    1.414   .     A
C610   C125    1.436   1_556 S
C610   C129    1.424   1_556 S
C612   H633    1.110   .     S
C612   H622    1.106   .     S
C612   N637    1.450   .     S
C612   H796    1.106   .     S
C613   H625    1.110   .     S
C613   H786    1.106   .     S
C613   H788    1.111   .     S
C613   N800    1.452   .     S
C614   C618    1.414   .     A
C615   C619    1.388   .     A
C616   C617    1.392   .     A
C616   C120    1.409   1_556 S
C616   C129    1.429   1_556 S
C617   C618    1.382   .     A
C618   H631    1.077   .     S
C619   H629    1.073   .     S
C620   H513    1.084   1_655 S
H623   N800    1.031   .     S
H624   C937    1.106   1_545 S
H626   C937    1.111   1_545 S
H627   N636    1.029   .     S
H628   C120    1.081   1_556 S
H632   N637    1.032   .     S
H634   C936    1.106   1_545 S
N635   N636    1.298   .     D
N635   Zn648   2.020   .     S
N636   Zn647   2.020   .     S
N637   C765    1.435   .     S
N638   C925    1.429   1_545 S
N638   H947    1.031   1_545 S
N638   C937    1.452   1_545 S
O639   Zn647   1.970   .     S
O639   C491    1.271   1_655 S
O640   Zn648   1.987   .     S
O641   Zn647   1.961   .     S
O641   C494    1.294   1_655 S
O642   Zn648   1.914   .     S
O643   Zn647   1.987   .     S
O644   Zn648   1.970   .     S
O645   Zn647   1.914   .     S
O646   Zn648   1.961   .     S
Br649  N689    1.877   .     S
Br650  C671    1.926   .     S
Br651  C716    1.927   .     S
Br652  C665    1.925   .     S
C653   O694    1.295   .     A
C653   C655    1.409   .     S
C653   O801    1.271   1_455 S
C654   C656    1.467   .     S
C654   C662    1.412   .     A
C654   C668    1.417   .     A
C655   C927    1.356   1_455 S
C655   N854    1.429   .     S
C656   O696    1.301   .     A
C656   O803    1.294   1_455 S
C657   C658    1.409   .     S
C658   O697    1.288   .     A
C658   O752    1.279   .     S
C659   C661    1.439   .     S
C659   O699    1.299   .     A
C659   O754    1.287   .     S
C660   C674    1.385   .     A
C661   C673    1.381   .     A
C661   C674    1.393   .     A
C662   Br759   1.927   1_455 S
C662   C177    1.382   1_556 S
C663   C665    1.391   .     A
C663   H684    1.084   .     S
C664   C668    1.414   .     A
C664   C179    1.436   1_556 S
C664   C183    1.424   1_556 S
C666   H687    1.110   .     S
C666   H676    1.106   .     S
C666   N691    1.450   .     S
C666   H850    1.106   .     S
C667   H679    1.110   .     S
C667   H840    1.106   .     S
C667   H842    1.111   .     S
C667   N854    1.452   .     S
C668   C672    1.414   .     A
C669   C673    1.388   .     A
C670   C671    1.392   .     A
C670   C174    1.409   1_556 S
C670   C183    1.429   1_556 S
C671   C672    1.382   .     A
C672   H685    1.077   .     S
C673   H683    1.073   .     S
C674   H729    1.084   .     S
H675   C782    1.084   1_455 S
H677   N854    1.031   .     S
H681   N690    1.029   .     S
H682   C174    1.081   1_556 S
H686   N691    1.032   .     S
N689   N690    1.298   .     D
N689   Zn702   2.020   .     S
N690   Zn701   2.020   .     S
N691   C819    1.435   .     S
O693   Zn701   1.970   .     S
O693   C707    1.271   .     S
O694   Zn702   1.987   .     S
O695   Zn701   1.961   .     S
O695   C710    1.294   .     S
O696   Zn702   1.914   .     S
O697   Zn701   1.987   .     S
O698   Zn702   1.970   .     S
O698   C766    1.279   1_455 S
O699   Zn701   1.914   .     S
O700   Zn702   1.961   .     S
O700   C767    1.287   1_455 S
Br703  N743    1.877   .     S
Br704  C725    1.926   .     S
Br705  C770    1.927   .     S
Br706  C719    1.925   .     S
C707   O748    1.295   .     A
C707   C709    1.409   .     S
C708   C710    1.467   .     S
C708   C716    1.412   .     A
C708   C722    1.417   .     A
C709   C819    1.356   .     S
C709   N908    1.429   .     S
C710   O750    1.301   .     A
C711   C712    1.409   .     S
C712   O751    1.288   .     A
C712   O806    1.279   .     S
C713   C715    1.439   .     S
C713   O753    1.299   .     A
C713   O808    1.287   .     S
C714   C728    1.385   .     A
C715   C727    1.381   .     A
C715   C728    1.393   .     A
C716   C231    1.382   1_556 S
C717   C719    1.391   .     A
C717   H738    1.084   .     S
C718   C722    1.414   .     A
C718   C233    1.436   1_556 S
C718   C237    1.424   1_556 S
C720   H741    1.110   .     S
C720   H730    1.106   .     S
C720   N745    1.450   .     S
C720   H904    1.106   .     S
C721   H733    1.110   .     S
C721   H894    1.106   .     S
C721   H896    1.111   .     S
C721   N908    1.452   .     S
C722   C726    1.414   .     A
C723   C727    1.388   .     A
C724   C725    1.392   .     A
C724   C228    1.409   1_556 S
C724   C237    1.429   1_556 S
C725   C726    1.382   .     A
C726   H739    1.077   .     S
C727   H737    1.073   .     S
C728   H783    1.084   .     S
H731   N908    1.031   .     S
H735   N744    1.029   .     S
H736   C228    1.081   1_556 S
H740   N745    1.032   .     S
N743   N744    1.298   .     D
N743   Zn756   2.020   .     S
N744   Zn755   2.020   .     S
N745   C873    1.435   .     S
O747   Zn755   1.970   .     S
O747   C761    1.271   .     S
O748   Zn756   1.987   .     S
O749   Zn755   1.961   .     S
O749   C764    1.294   .     S
O750   Zn756   1.914   .     S
O751   Zn755   1.987   .     S
O752   Zn756   1.970   .     S
O753   Zn755   1.914   .     S
O754   Zn756   1.961   .     S
Br757  N797    1.877   .     S
Br758  C779    1.926   .     S
Br759  C662    1.927   1_655 S
Br760  C773    1.925   .     S
C761   O802    1.295   .     A
C761   C763    1.409   .     S
C762   C764    1.467   .     S
C762   C770    1.412   .     A
C762   C776    1.417   .     A
C763   C873    1.356   .     S
C763   N962    1.429   .     S
C764   O804    1.301   .     A
C765   C766    1.409   .     S
C765   C493    1.356   1_655 S
C766   O805    1.288   .     A
C766   O698    1.279   1_655 S
C767   C769    1.439   .     S
C767   O807    1.299   .     A
C767   O700    1.287   1_655 S
C768   C782    1.385   .     A
C769   C781    1.381   .     A
C769   C782    1.393   .     A
C770   C285    1.382   1_556 S
C771   C773    1.391   .     A
C771   H792    1.084   .     S
C772   C776    1.414   .     A
C772   C287    1.436   1_556 S
C772   C291    1.424   1_556 S
C774   H795    1.110   .     S
C774   H784    1.106   .     S
C774   N799    1.450   .     S
C774   H958    1.106   .     S
C775   H787    1.110   .     S
C775   H948    1.106   .     S
C775   H950    1.111   .     S
C775   N962    1.452   .     S
C776   C780    1.414   .     A
C777   C781    1.388   .     A
C778   C779    1.392   .     A
C778   C282    1.409   1_556 S
C778   C291    1.429   1_556 S
C779   C780    1.382   .     A
C780   H793    1.077   .     S
C781   H791    1.073   .     S
C782   H675    1.084   1_655 S
H785   N962    1.031   .     S
H789   N798    1.029   .     S
H790   C282    1.081   1_556 S
H794   N799    1.032   .     S
N797   N798    1.298   .     D
N797   Zn810   2.020   .     S
N798   Zn809   2.020   .     S
N799   C927    1.435   .     S
O801   Zn809   1.970   .     S
O801   C653    1.271   1_655 S
O802   Zn810   1.987   .     S
O803   Zn809   1.961   .     S
O803   C656    1.294   1_655 S
O804   Zn810   1.914   .     S
O805   Zn809   1.987   .     S
O806   Zn810   1.970   .     S
O807   Zn809   1.914   .     S
O808   Zn810   1.961   .     S
Br811  N851    1.877   .     S
Br812  C833    1.926   .     S
Br813  C878    1.927   .     S
Br814  C827    1.925   .     S
C815   O856    1.295   .     A
C815   C817    1.409   .     S
C815   O963    1.271   1_455 S
C816   C818    1.467   .     S
C816   C824    1.412   .     A
C816   C830    1.417   .     A
C817   C603    1.356   1_465 S
C817   N530    1.429   1_565 S
C818   O858    1.301   .     A
C818   O965    1.294   1_455 S
C819   C820    1.409   .     S
C820   O859    1.288   .     A
C820   O914    1.279   .     S
C821   C823    1.439   .     S
C821   O861    1.299   .     A
C821   O916    1.287   .     S
C822   C836    1.385   .     A
C823   C835    1.381   .     A
C823   C836    1.393   .     A
C824   Br921   1.927   1_455 S
C824   C339    1.382   1_556 S
C825   C827    1.391   .     A
C825   H846    1.084   .     S
C826   C830    1.414   .     A
C826   C341    1.436   1_556 S
C826   C345    1.424   1_556 S
C828   H849    1.110   .     S
C828   H838    1.106   .     S
C828   N853    1.450   .     S
C828   H526    1.106   1_565 S
C829   H841    1.110   .     S
C829   H516    1.106   1_565 S
C829   H518    1.111   1_565 S
C829   N530    1.452   1_565 S
C830   C834    1.414   .     A
C831   C835    1.388   .     A
C832   C833    1.392   .     A
C832   C336    1.409   1_556 S
C832   C345    1.429   1_556 S
C833   C834    1.382   .     A
C834   H847    1.077   .     S
C835   H845    1.073   .     S
C836   H891    1.084   .     S
H837   C944    1.084   1_455 S
H839   N530    1.031   1_565 S
H843   N852    1.029   .     S
H844   C336    1.081   1_556 S
H848   N853    1.032   .     S
N851   N852    1.298   .     D
N851   Zn864   2.020   .     S
N852   Zn863   2.020   .     S
N853   C495    1.435   1_565 S
O855   Zn863   1.970   .     S
O855   C869    1.271   .     S
O856   Zn864   1.987   .     S
O857   Zn863   1.961   .     S
O857   C872    1.294   .     S
O858   Zn864   1.914   .     S
O859   Zn863   1.987   .     S
O860   Zn864   1.970   .     S
O860   C928    1.279   1_455 S
O861   Zn863   1.914   .     S
O862   Zn864   1.961   .     S
O862   C929    1.287   1_455 S
Br865  N905    1.877   .     S
Br866  C887    1.926   .     S
Br867  C932    1.927   .     S
Br868  C881    1.925   .     S
C869   O910    1.295   .     A
C869   C871    1.409   .     S
C870   C872    1.467   .     S
C870   C878    1.412   .     A
C870   C884    1.417   .     A
C871   C495    1.356   1_565 S
C871   N584    1.429   1_565 S
C872   O912    1.301   .     A
C873   C874    1.409   .     S
C874   O913    1.288   .     A
C874   O968    1.279   .     S
C875   C877    1.439   .     S
C875   O915    1.299   .     A
C875   O970    1.287   .     S
C876   C890    1.385   .     A
C877   C889    1.381   .     A
C877   C890    1.393   .     A
C878   C393    1.382   1_556 S
C879   C881    1.391   .     A
C879   H900    1.084   .     S
C880   C884    1.414   .     A
C880   C395    1.436   1_556 S
C880   C399    1.424   1_556 S
C882   H903    1.110   .     S
C882   H892    1.106   .     S
C882   N907    1.450   .     S
C882   H580    1.106   1_565 S
C883   H895    1.110   .     S
C883   H570    1.106   1_565 S
C883   H572    1.111   1_565 S
C883   N584    1.452   1_565 S
C884   C888    1.414   .     A
C885   C889    1.388   .     A
C886   C887    1.392   .     A
C886   C390    1.409   1_556 S
C886   C399    1.429   1_556 S
C887   C888    1.382   .     A
C888   H901    1.077   .     S
C889   H899    1.073   .     S
C890   H945    1.084   .     S
H893   N584    1.031   1_565 S
H897   N906    1.029   .     S
H898   C390    1.081   1_556 S
H902   N907    1.032   .     S
N905   N906    1.298   .     D
N905   Zn918   2.020   .     S
N906   Zn917   2.020   .     S
N907   C549    1.435   1_565 S
O909   Zn917   1.970   .     S
O909   C923    1.271   .     S
O910   Zn918   1.987   .     S
O911   Zn917   1.961   .     S
O911   C926    1.294   .     S
O912   Zn918   1.914   .     S
O913   Zn917   1.987   .     S
O914   Zn918   1.970   .     S
O915   Zn917   1.914   .     S
O916   Zn918   1.961   .     S
Br919  N959    1.877   .     S
Br920  C941    1.926   .     S
Br921  C824    1.927   1_655 S
Br922  C935    1.925   .     S
C923   O964    1.295   .     A
C923   C925    1.409   .     S
C924   C926    1.467   .     S
C924   C932    1.412   .     A
C924   C938    1.417   .     A
C925   C549    1.356   1_565 S
C925   N638    1.429   1_565 S
C926   O966    1.301   .     A
C927   C928    1.409   .     S
C927   C655    1.356   1_655 S
C928   O967    1.288   .     A
C928   O860    1.279   1_655 S
C929   C931    1.439   .     S
C929   O969    1.299   .     A
C929   O862    1.287   1_655 S
C930   C944    1.385   .     A
C931   C943    1.381   .     A
C931   C944    1.393   .     A
C932   C447    1.382   1_556 S
C933   C935    1.391   .     A
C933   H954    1.084   .     S
C934   C938    1.414   .     A
C934   C449    1.436   1_556 S
C934   C453    1.424   1_556 S
C936   H957    1.110   .     S
C936   H946    1.106   .     S
C936   N961    1.450   .     S
C936   H634    1.106   1_565 S
C937   H949    1.110   .     S
C937   H624    1.106   1_565 S
C937   H626    1.111   1_565 S
C937   N638    1.452   1_565 S
C938   C942    1.414   .     A
C939   C943    1.388   .     A
C940   C941    1.392   .     A
C940   C444    1.409   1_556 S
C940   C453    1.429   1_556 S
C941   C942    1.382   .     A
C942   H955    1.077   .     S
C943   H953    1.073   .     S
C944   H837    1.084   1_655 S
H947   N638    1.031   1_565 S
H951   N960    1.029   .     S
H952   C444    1.081   1_556 S
H956   N961    1.032   .     S
N959   N960    1.298   .     D
N959   Zn972   2.020   .     S
N960   Zn971   2.020   .     S
N961   C603    1.435   1_565 S
O963   Zn971   1.970   .     S
O963   C815    1.271   1_655 S
O964   Zn972   1.987   .     S
O965   Zn971   1.961   .     S
O965   C818    1.294   1_655 S
O966   Zn972   1.914   .     S
O967   Zn971   1.987   .     S
O968   Zn972   1.970   .     S
O969   Zn971   1.914   .     S
O970   Zn972   1.961   .     S
