data_str_m2_o1_o2_pcu_sym.138
_audit_creation_date              2020-01-03
_audit_creation_method            'Materials Studio'
_symmetry_space_group_name_H-M    'P1'
_symmetry_Int_Tables_number       1
_symmetry_cell_setting            triclinic
loop_
_symmetry_equiv_pos_as_xyz
  x,y,z
_cell_length_a                    32.4791
_cell_length_b                    28.7935
_cell_length_c                    30.2168
_cell_angle_alpha                 90.0006
_cell_angle_beta                  91.9537
_cell_angle_gamma                 89.9997
loop_
_atom_site_label
_atom_site_type_symbol
_atom_site_fract_x
_atom_site_fract_y
_atom_site_fract_z
_atom_site_U_iso_or_equiv
_atom_site_adp_type
_atom_site_occupancy
C1     C     0.08743   0.16667   0.24995   0.00000  Uiso   1.00
C2     C     0.24590   0.16667   0.25005   0.00000  Uiso   1.00
C3     C     0.16661   0.16669   0.16505   0.00000  Uiso   1.00
C4     C     0.16672   0.16669   0.33495   0.00000  Uiso   1.00
C5     C     0.14031   0.02466   0.22232   0.00000  Uiso   1.00
C6     C     0.19286   0.30862   0.27787   0.00000  Uiso   1.00
C7     C     0.19303   0.02467   0.27768   0.00000  Uiso   1.00
C8     C     0.14048   0.30862   0.22213   0.00000  Uiso   1.00
C9     C     0.02129   0.12448   0.25001   0.00000  Uiso   1.00
C10    C     0.31204   0.20887   0.25000   0.00000  Uiso   1.00
C11    C     0.31204   0.12447   0.24999   0.00000  Uiso   1.00
C12    C     0.02129   0.20887   0.25000   0.00000  Uiso   1.00
C13    C     0.18628   0.20314   0.04836   0.00000  Uiso   1.00
C14    C     0.18689   0.13105   0.45359   0.00000  Uiso   1.00
C15    C     0.14736   0.20334   0.45167   0.00000  Uiso   1.00
C16    C     0.14616   0.13126   0.04642   0.00000  Uiso   1.00
C17    C     0.18492   0.20357   0.09444   0.00000  Uiso   1.00
C18    C     0.18515   0.13028   0.40717   0.00000  Uiso   1.00
C19    C     0.14872   0.20376   0.40559   0.00000  Uiso   1.00
C20    C     0.14789   0.13047   0.09283   0.00000  Uiso   1.00
C21    C     0.16649   0.16688   0.11676   0.00000  Uiso   1.00
C22    C     0.16684   0.16688   0.38325   0.00000  Uiso   1.00
C23    C     0.16647   0.16719   0.02429   0.00000  Uiso   1.00
C24    C     0.16688   0.16718   0.47573   0.00000  Uiso   1.00
C25    C     0.29056   0.16667   0.25002   0.00000  Uiso   1.00
C26    C     0.04278   0.16667   0.24998   0.00000  Uiso   1.00
Cu27   Cu    0.16667   0.21355   0.25000   0.00000  Uiso   1.00
Cu28   Cu    0.16667   0.11978   0.25000   0.00000  Uiso   1.00
H29    H     0.19936   0.23193   0.11273   0.00000  Uiso   1.00
H30    H     0.19853   0.10150   0.38979   0.00000  Uiso   1.00
H31    H     0.13450   0.23227   0.38732   0.00000  Uiso   1.00
H32    H     0.13427   0.10184   0.11020   0.00000  Uiso   1.00
H33    H     0.03728   0.09146   0.25007   0.00000  Uiso   1.00
H34    H     0.29605   0.24188   0.24996   0.00000  Uiso   1.00
H35    H     0.29606   0.09146   0.24993   0.00000  Uiso   1.00
H36    H     0.03728   0.24188   0.25003   0.00000  Uiso   1.00
N37    N     0.16667   0.28402   0.25000   0.00000  Uiso   1.00
N38    N     0.16667   0.04931   0.25000   0.00000  Uiso   1.00
O39    O     0.10655   0.20625   0.24999   0.00000  Uiso   1.00
O40    O     0.22679   0.12709   0.25000   0.00000  Uiso   1.00
O41    O     0.22679   0.20625   0.25000   0.00000  Uiso   1.00
O42    O     0.10655   0.12709   0.24999   0.00000  Uiso   1.00
O43    O     0.16666   0.20626   0.18573   0.00000  Uiso   1.00
O44    O     0.16667   0.12707   0.31427   0.00000  Uiso   1.00
O45    O     0.16667   0.20626   0.31427   0.00000  Uiso   1.00
O46    O     0.16666   0.12707   0.18573   0.00000  Uiso   1.00
Cl47   Cl    0.10529   0.05377   0.18621   0.00000  Uiso   1.00
Cl48   Cl    0.22702   0.27937   0.31490   0.00000  Uiso   1.00
Cl49   Cl    0.22805   0.05377   0.31379   0.00000  Uiso   1.00
Cl50   Cl    0.10631   0.27937   0.18510   0.00000  Uiso   1.00
O51    O     0.20541   0.23904   0.02669   0.00000  Uiso   1.00
C52    C     0.24799   0.22965   0.02645   0.00000  Uiso   1.00
H53    H     0.25431   0.19622   0.00945   0.00000  Uiso   1.00
H54    H     0.26189   0.22943   0.06063   0.00000  Uiso   1.00
H55    H     0.26322   0.25762   0.00778   0.00000  Uiso   1.00
O56    O     0.20542   0.09548   0.47811   0.00000  Uiso   1.00
C57    C     0.24659   0.08911   0.46583   0.00000  Uiso   1.00
H58    H     0.26303   0.12267   0.46132   0.00000  Uiso   1.00
H59    H     0.24792   0.06752   0.43546   0.00000  Uiso   1.00
H60    H     0.26329   0.06997   0.49277   0.00000  Uiso   1.00
O61    O     0.12854   0.23944   0.47336   0.00000  Uiso   1.00
C62    C     0.08587   0.23055   0.47353   0.00000  Uiso   1.00
H63    H     0.07923   0.19716   0.49046   0.00000  Uiso   1.00
H64    H     0.07199   0.23056   0.43934   0.00000  Uiso   1.00
H65    H     0.07088   0.25866   0.49224   0.00000  Uiso   1.00
O66    O     0.12734   0.09589   0.02188   0.00000  Uiso   1.00
C67    C     0.08609   0.09002   0.03411   0.00000  Uiso   1.00
H68    H     0.06995   0.12378   0.03855   0.00000  Uiso   1.00
H69    H     0.08452   0.06851   0.06451   0.00000  Uiso   1.00
H70    H     0.06925   0.07103   0.00718   0.00000  Uiso   1.00
C71    C     0.42077   0.16667   0.24995   0.00000  Uiso   1.00
C72    C     0.57923   0.16667   0.25005   0.00000  Uiso   1.00
C73    C     0.49994   0.16669   0.16505   0.00000  Uiso   1.00
C74    C     0.50006   0.16669   0.33495   0.00000  Uiso   1.00
C75    C     0.47364   0.02466   0.22232   0.00000  Uiso   1.00
C76    C     0.52619   0.30862   0.27787   0.00000  Uiso   1.00
C77    C     0.52636   0.02467   0.27768   0.00000  Uiso   1.00
C78    C     0.47381   0.30862   0.22213   0.00000  Uiso   1.00
C79    C     0.35463   0.12448   0.25001   0.00000  Uiso   1.00
C80    C     0.64537   0.20887   0.25000   0.00000  Uiso   1.00
C81    C     0.64537   0.12447   0.24999   0.00000  Uiso   1.00
C82    C     0.35463   0.20887   0.25000   0.00000  Uiso   1.00
C83    C     0.51961   0.20314   0.04836   0.00000  Uiso   1.00
C84    C     0.52022   0.13105   0.45359   0.00000  Uiso   1.00
C85    C     0.48069   0.20334   0.45167   0.00000  Uiso   1.00
C86    C     0.47950   0.13126   0.04642   0.00000  Uiso   1.00
C87    C     0.51825   0.20357   0.09444   0.00000  Uiso   1.00
C88    C     0.51849   0.13028   0.40717   0.00000  Uiso   1.00
C89    C     0.48205   0.20376   0.40559   0.00000  Uiso   1.00
C90    C     0.48122   0.13047   0.09283   0.00000  Uiso   1.00
C91    C     0.49983   0.16688   0.11676   0.00000  Uiso   1.00
C92    C     0.50018   0.16688   0.38325   0.00000  Uiso   1.00
C93    C     0.49980   0.16719   0.02429   0.00000  Uiso   1.00
C94    C     0.50021   0.16718   0.47573   0.00000  Uiso   1.00
C95    C     0.62389   0.16667   0.25002   0.00000  Uiso   1.00
C96    C     0.37611   0.16667   0.24998   0.00000  Uiso   1.00
Cu97   Cu    0.50000   0.21355   0.25000   0.00000  Uiso   1.00
Cu98   Cu    0.50000   0.11978   0.25000   0.00000  Uiso   1.00
H99    H     0.53270   0.23193   0.11273   0.00000  Uiso   1.00
H100   H     0.53186   0.10150   0.38979   0.00000  Uiso   1.00
H101   H     0.46783   0.23227   0.38732   0.00000  Uiso   1.00
H102   H     0.46760   0.10184   0.11020   0.00000  Uiso   1.00
H103   H     0.37061   0.09146   0.25007   0.00000  Uiso   1.00
H104   H     0.62938   0.24188   0.24996   0.00000  Uiso   1.00
H105   H     0.62939   0.09146   0.24993   0.00000  Uiso   1.00
H106   H     0.37062   0.24188   0.25003   0.00000  Uiso   1.00
N107   N     0.50000   0.28402   0.25000   0.00000  Uiso   1.00
N108   N     0.50000   0.04931   0.25000   0.00000  Uiso   1.00
O109   O     0.43988   0.20625   0.24999   0.00000  Uiso   1.00
O110   O     0.56012   0.12709   0.25000   0.00000  Uiso   1.00
O111   O     0.56012   0.20625   0.25000   0.00000  Uiso   1.00
O112   O     0.43988   0.12709   0.24999   0.00000  Uiso   1.00
O113   O     0.50000   0.20626   0.18573   0.00000  Uiso   1.00
O114   O     0.50000   0.12707   0.31427   0.00000  Uiso   1.00
O115   O     0.50000   0.20626   0.31427   0.00000  Uiso   1.00
O116   O     0.50000   0.12707   0.18573   0.00000  Uiso   1.00
Cl117  Cl    0.43862   0.05377   0.18621   0.00000  Uiso   1.00
Cl118  Cl    0.56036   0.27937   0.31490   0.00000  Uiso   1.00
Cl119  Cl    0.56138   0.05377   0.31379   0.00000  Uiso   1.00
Cl120  Cl    0.43964   0.27937   0.18510   0.00000  Uiso   1.00
O121   O     0.53874   0.23904   0.02669   0.00000  Uiso   1.00
C122   C     0.58132   0.22965   0.02645   0.00000  Uiso   1.00
H123   H     0.58764   0.19622   0.00945   0.00000  Uiso   1.00
H124   H     0.59523   0.22943   0.06063   0.00000  Uiso   1.00
H125   H     0.59655   0.25762   0.00778   0.00000  Uiso   1.00
O126   O     0.53875   0.09548   0.47811   0.00000  Uiso   1.00
C127   C     0.57992   0.08911   0.46583   0.00000  Uiso   1.00
H128   H     0.59637   0.12267   0.46132   0.00000  Uiso   1.00
H129   H     0.58125   0.06752   0.43546   0.00000  Uiso   1.00
H130   H     0.59663   0.06997   0.49277   0.00000  Uiso   1.00
O131   O     0.46187   0.23944   0.47336   0.00000  Uiso   1.00
C132   C     0.41920   0.23055   0.47353   0.00000  Uiso   1.00
H133   H     0.41256   0.19716   0.49046   0.00000  Uiso   1.00
H134   H     0.40533   0.23056   0.43934   0.00000  Uiso   1.00
H135   H     0.40421   0.25866   0.49224   0.00000  Uiso   1.00
O136   O     0.46067   0.09589   0.02188   0.00000  Uiso   1.00
C137   C     0.41943   0.09002   0.03411   0.00000  Uiso   1.00
H138   H     0.40329   0.12378   0.03855   0.00000  Uiso   1.00
H139   H     0.41786   0.06851   0.06451   0.00000  Uiso   1.00
H140   H     0.40258   0.07103   0.00718   0.00000  Uiso   1.00
C141   C     0.75410   0.16667   0.24995   0.00000  Uiso   1.00
C142   C     0.91257   0.16667   0.25005   0.00000  Uiso   1.00
C143   C     0.83328   0.16669   0.16505   0.00000  Uiso   1.00
C144   C     0.83339   0.16669   0.33495   0.00000  Uiso   1.00
C145   C     0.80697   0.02466   0.22232   0.00000  Uiso   1.00
C146   C     0.85952   0.30862   0.27787   0.00000  Uiso   1.00
C147   C     0.85969   0.02467   0.27768   0.00000  Uiso   1.00
C148   C     0.80714   0.30862   0.22213   0.00000  Uiso   1.00
C149   C     0.68796   0.12448   0.25001   0.00000  Uiso   1.00
C150   C     0.97870   0.20887   0.25000   0.00000  Uiso   1.00
C151   C     0.97871   0.12447   0.24999   0.00000  Uiso   1.00
C152   C     0.68796   0.20887   0.25000   0.00000  Uiso   1.00
C153   C     0.85295   0.20314   0.04836   0.00000  Uiso   1.00
C154   C     0.85355   0.13105   0.45359   0.00000  Uiso   1.00
C155   C     0.81402   0.20334   0.45167   0.00000  Uiso   1.00
C156   C     0.81283   0.13126   0.04642   0.00000  Uiso   1.00
C157   C     0.85159   0.20357   0.09444   0.00000  Uiso   1.00
C158   C     0.85182   0.13028   0.40717   0.00000  Uiso   1.00
C159   C     0.81538   0.20376   0.40559   0.00000  Uiso   1.00
C160   C     0.81455   0.13047   0.09283   0.00000  Uiso   1.00
C161   C     0.83316   0.16688   0.11676   0.00000  Uiso   1.00
C162   C     0.83351   0.16688   0.38325   0.00000  Uiso   1.00
C163   C     0.83314   0.16719   0.02429   0.00000  Uiso   1.00
C164   C     0.83354   0.16718   0.47573   0.00000  Uiso   1.00
C165   C     0.95722   0.16667   0.25002   0.00000  Uiso   1.00
C166   C     0.70944   0.16667   0.24998   0.00000  Uiso   1.00
Cu167  Cu    0.83333   0.21355   0.25000   0.00000  Uiso   1.00
Cu168  Cu    0.83333   0.11978   0.25000   0.00000  Uiso   1.00
H169   H     0.86603   0.23193   0.11273   0.00000  Uiso   1.00
H170   H     0.86519   0.10150   0.38979   0.00000  Uiso   1.00
H171   H     0.80117   0.23227   0.38732   0.00000  Uiso   1.00
H172   H     0.80094   0.10184   0.11020   0.00000  Uiso   1.00
H173   H     0.70394   0.09146   0.25007   0.00000  Uiso   1.00
H174   H     0.96272   0.24188   0.24996   0.00000  Uiso   1.00
H175   H     0.96272   0.09146   0.24993   0.00000  Uiso   1.00
H176   H     0.70395   0.24188   0.25003   0.00000  Uiso   1.00
N177   N     0.83333   0.28402   0.25000   0.00000  Uiso   1.00
N178   N     0.83333   0.04931   0.25000   0.00000  Uiso   1.00
O179   O     0.77321   0.20625   0.24999   0.00000  Uiso   1.00
O180   O     0.89345   0.12709   0.25000   0.00000  Uiso   1.00
O181   O     0.89345   0.20625   0.25000   0.00000  Uiso   1.00
O182   O     0.77321   0.12709   0.24999   0.00000  Uiso   1.00
O183   O     0.83333   0.20626   0.18573   0.00000  Uiso   1.00
O184   O     0.83334   0.12707   0.31427   0.00000  Uiso   1.00
O185   O     0.83334   0.20626   0.31427   0.00000  Uiso   1.00
O186   O     0.83333   0.12707   0.18573   0.00000  Uiso   1.00
Cl187  Cl    0.77195   0.05377   0.18621   0.00000  Uiso   1.00
Cl188  Cl    0.89369   0.27937   0.31490   0.00000  Uiso   1.00
Cl189  Cl    0.89471   0.05377   0.31379   0.00000  Uiso   1.00
Cl190  Cl    0.77298   0.27937   0.18510   0.00000  Uiso   1.00
O191   O     0.87207   0.23904   0.02669   0.00000  Uiso   1.00
C192   C     0.91466   0.22965   0.02645   0.00000  Uiso   1.00
H193   H     0.92097   0.19622   0.00945   0.00000  Uiso   1.00
H194   H     0.92856   0.22943   0.06063   0.00000  Uiso   1.00
H195   H     0.92988   0.25762   0.00778   0.00000  Uiso   1.00
O196   O     0.87208   0.09548   0.47811   0.00000  Uiso   1.00
C197   C     0.91326   0.08911   0.46583   0.00000  Uiso   1.00
H198   H     0.92970   0.12267   0.46132   0.00000  Uiso   1.00
H199   H     0.91459   0.06752   0.43546   0.00000  Uiso   1.00
H200   H     0.92996   0.06997   0.49277   0.00000  Uiso   1.00
O201   O     0.79520   0.23944   0.47336   0.00000  Uiso   1.00
C202   C     0.75253   0.23055   0.47353   0.00000  Uiso   1.00
H203   H     0.74589   0.19716   0.49046   0.00000  Uiso   1.00
H204   H     0.73866   0.23056   0.43934   0.00000  Uiso   1.00
H205   H     0.73755   0.25866   0.49224   0.00000  Uiso   1.00
O206   O     0.79401   0.09589   0.02188   0.00000  Uiso   1.00
C207   C     0.75276   0.09002   0.03411   0.00000  Uiso   1.00
H208   H     0.73662   0.12378   0.03855   0.00000  Uiso   1.00
H209   H     0.75119   0.06851   0.06451   0.00000  Uiso   1.00
H210   H     0.73592   0.07103   0.00718   0.00000  Uiso   1.00
C211   C     0.08743   0.50000   0.24995   0.00000  Uiso   1.00
C212   C     0.24590   0.50000   0.25005   0.00000  Uiso   1.00
C213   C     0.16661   0.50003   0.16505   0.00000  Uiso   1.00
C214   C     0.16672   0.50003   0.33495   0.00000  Uiso   1.00
C215   C     0.14031   0.35800   0.22232   0.00000  Uiso   1.00
C216   C     0.19286   0.64196   0.27787   0.00000  Uiso   1.00
C217   C     0.19303   0.35800   0.27768   0.00000  Uiso   1.00
C218   C     0.14048   0.64195   0.22213   0.00000  Uiso   1.00
C219   C     0.02129   0.45781   0.25001   0.00000  Uiso   1.00
C220   C     0.31204   0.54221   0.25000   0.00000  Uiso   1.00
C221   C     0.31204   0.45781   0.24999   0.00000  Uiso   1.00
C222   C     0.02129   0.54221   0.25000   0.00000  Uiso   1.00
C223   C     0.18628   0.53647   0.04836   0.00000  Uiso   1.00
C224   C     0.18689   0.46438   0.45359   0.00000  Uiso   1.00
C225   C     0.14736   0.53667   0.45167   0.00000  Uiso   1.00
C226   C     0.14616   0.46459   0.04642   0.00000  Uiso   1.00
C227   C     0.18492   0.53691   0.09444   0.00000  Uiso   1.00
C228   C     0.18515   0.46361   0.40717   0.00000  Uiso   1.00
C229   C     0.14872   0.53709   0.40559   0.00000  Uiso   1.00
C230   C     0.14789   0.46381   0.09283   0.00000  Uiso   1.00
C231   C     0.16649   0.50022   0.11676   0.00000  Uiso   1.00
C232   C     0.16684   0.50022   0.38325   0.00000  Uiso   1.00
C233   C     0.16647   0.50052   0.02429   0.00000  Uiso   1.00
C234   C     0.16688   0.50052   0.47573   0.00000  Uiso   1.00
C235   C     0.29056   0.50001   0.25002   0.00000  Uiso   1.00
C236   C     0.04278   0.50001   0.24998   0.00000  Uiso   1.00
Cu237  Cu    0.16667   0.54689   0.25000   0.00000  Uiso   1.00
Cu238  Cu    0.16667   0.45311   0.25000   0.00000  Uiso   1.00
H239   H     0.19936   0.56526   0.11273   0.00000  Uiso   1.00
H240   H     0.19853   0.43483   0.38979   0.00000  Uiso   1.00
H241   H     0.13450   0.56560   0.38732   0.00000  Uiso   1.00
H242   H     0.13427   0.43517   0.11020   0.00000  Uiso   1.00
H243   H     0.03728   0.42480   0.25007   0.00000  Uiso   1.00
H244   H     0.29605   0.57522   0.24996   0.00000  Uiso   1.00
H245   H     0.29606   0.42480   0.24993   0.00000  Uiso   1.00
H246   H     0.03728   0.57522   0.25003   0.00000  Uiso   1.00
N247   N     0.16667   0.61736   0.25000   0.00000  Uiso   1.00
N248   N     0.16667   0.38264   0.25000   0.00000  Uiso   1.00
O249   O     0.10655   0.53958   0.24999   0.00000  Uiso   1.00
O250   O     0.22679   0.46042   0.25000   0.00000  Uiso   1.00
O251   O     0.22679   0.53958   0.25000   0.00000  Uiso   1.00
O252   O     0.10655   0.46042   0.24999   0.00000  Uiso   1.00
O253   O     0.16666   0.53959   0.18573   0.00000  Uiso   1.00
O254   O     0.16667   0.46041   0.31427   0.00000  Uiso   1.00
O255   O     0.16667   0.53959   0.31427   0.00000  Uiso   1.00
O256   O     0.16666   0.46041   0.18573   0.00000  Uiso   1.00
Cl257  Cl    0.10529   0.38711   0.18621   0.00000  Uiso   1.00
Cl258  Cl    0.22702   0.61271   0.31490   0.00000  Uiso   1.00
Cl259  Cl    0.22805   0.38711   0.31379   0.00000  Uiso   1.00
Cl260  Cl    0.10631   0.61271   0.18510   0.00000  Uiso   1.00
O261   O     0.20541   0.57237   0.02669   0.00000  Uiso   1.00
C262   C     0.24799   0.56298   0.02645   0.00000  Uiso   1.00
H263   H     0.25431   0.52955   0.00945   0.00000  Uiso   1.00
H264   H     0.26189   0.56277   0.06063   0.00000  Uiso   1.00
H265   H     0.26322   0.59095   0.00778   0.00000  Uiso   1.00
O266   O     0.20542   0.42881   0.47811   0.00000  Uiso   1.00
C267   C     0.24659   0.42244   0.46583   0.00000  Uiso   1.00
H268   H     0.26303   0.45600   0.46132   0.00000  Uiso   1.00
H269   H     0.24792   0.40085   0.43546   0.00000  Uiso   1.00
H270   H     0.26329   0.40331   0.49277   0.00000  Uiso   1.00
O271   O     0.12854   0.57277   0.47336   0.00000  Uiso   1.00
C272   C     0.08587   0.56388   0.47353   0.00000  Uiso   1.00
H273   H     0.07923   0.53050   0.49046   0.00000  Uiso   1.00
H274   H     0.07199   0.56389   0.43934   0.00000  Uiso   1.00
H275   H     0.07088   0.59199   0.49224   0.00000  Uiso   1.00
O276   O     0.12734   0.42922   0.02188   0.00000  Uiso   1.00
C277   C     0.08609   0.42336   0.03411   0.00000  Uiso   1.00
H278   H     0.06995   0.45711   0.03855   0.00000  Uiso   1.00
H279   H     0.08452   0.40184   0.06451   0.00000  Uiso   1.00
H280   H     0.06925   0.40436   0.00718   0.00000  Uiso   1.00
C281   C     0.42077   0.50000   0.24995   0.00000  Uiso   1.00
C282   C     0.57923   0.50000   0.25005   0.00000  Uiso   1.00
C283   C     0.49994   0.50003   0.16505   0.00000  Uiso   1.00
C284   C     0.50006   0.50003   0.33495   0.00000  Uiso   1.00
C285   C     0.47364   0.35800   0.22232   0.00000  Uiso   1.00
C286   C     0.52619   0.64196   0.27787   0.00000  Uiso   1.00
C287   C     0.52636   0.35800   0.27768   0.00000  Uiso   1.00
C288   C     0.47381   0.64195   0.22213   0.00000  Uiso   1.00
C289   C     0.35463   0.45781   0.25001   0.00000  Uiso   1.00
C290   C     0.64537   0.54221   0.25000   0.00000  Uiso   1.00
C291   C     0.64537   0.45781   0.24999   0.00000  Uiso   1.00
C292   C     0.35463   0.54221   0.25000   0.00000  Uiso   1.00
C293   C     0.51961   0.53647   0.04836   0.00000  Uiso   1.00
C294   C     0.52022   0.46438   0.45359   0.00000  Uiso   1.00
C295   C     0.48069   0.53667   0.45167   0.00000  Uiso   1.00
C296   C     0.47950   0.46459   0.04642   0.00000  Uiso   1.00
C297   C     0.51825   0.53691   0.09444   0.00000  Uiso   1.00
C298   C     0.51849   0.46361   0.40717   0.00000  Uiso   1.00
C299   C     0.48205   0.53709   0.40559   0.00000  Uiso   1.00
C300   C     0.48122   0.46381   0.09283   0.00000  Uiso   1.00
C301   C     0.49983   0.50022   0.11676   0.00000  Uiso   1.00
C302   C     0.50018   0.50022   0.38325   0.00000  Uiso   1.00
C303   C     0.49980   0.50052   0.02429   0.00000  Uiso   1.00
C304   C     0.50021   0.50052   0.47573   0.00000  Uiso   1.00
C305   C     0.62389   0.50001   0.25002   0.00000  Uiso   1.00
C306   C     0.37611   0.50001   0.24998   0.00000  Uiso   1.00
Cu307  Cu    0.50000   0.54689   0.25000   0.00000  Uiso   1.00
Cu308  Cu    0.50000   0.45311   0.25000   0.00000  Uiso   1.00
H309   H     0.53270   0.56526   0.11273   0.00000  Uiso   1.00
H310   H     0.53186   0.43483   0.38979   0.00000  Uiso   1.00
H311   H     0.46783   0.56560   0.38732   0.00000  Uiso   1.00
H312   H     0.46760   0.43517   0.11020   0.00000  Uiso   1.00
H313   H     0.37061   0.42480   0.25007   0.00000  Uiso   1.00
H314   H     0.62938   0.57522   0.24996   0.00000  Uiso   1.00
H315   H     0.62939   0.42480   0.24993   0.00000  Uiso   1.00
H316   H     0.37062   0.57522   0.25003   0.00000  Uiso   1.00
N317   N     0.50000   0.61736   0.25000   0.00000  Uiso   1.00
N318   N     0.50000   0.38264   0.25000   0.00000  Uiso   1.00
O319   O     0.43988   0.53958   0.24999   0.00000  Uiso   1.00
O320   O     0.56012   0.46042   0.25000   0.00000  Uiso   1.00
O321   O     0.56012   0.53958   0.25000   0.00000  Uiso   1.00
O322   O     0.43988   0.46042   0.24999   0.00000  Uiso   1.00
O323   O     0.50000   0.53959   0.18573   0.00000  Uiso   1.00
O324   O     0.50000   0.46041   0.31427   0.00000  Uiso   1.00
O325   O     0.50000   0.53959   0.31427   0.00000  Uiso   1.00
O326   O     0.50000   0.46041   0.18573   0.00000  Uiso   1.00
Cl327  Cl    0.43862   0.38711   0.18621   0.00000  Uiso   1.00
Cl328  Cl    0.56036   0.61271   0.31490   0.00000  Uiso   1.00
Cl329  Cl    0.56138   0.38711   0.31379   0.00000  Uiso   1.00
Cl330  Cl    0.43964   0.61271   0.18510   0.00000  Uiso   1.00
O331   O     0.53874   0.57237   0.02669   0.00000  Uiso   1.00
C332   C     0.58132   0.56298   0.02645   0.00000  Uiso   1.00
H333   H     0.58764   0.52955   0.00945   0.00000  Uiso   1.00
H334   H     0.59523   0.56277   0.06063   0.00000  Uiso   1.00
H335   H     0.59655   0.59095   0.00778   0.00000  Uiso   1.00
O336   O     0.53875   0.42881   0.47811   0.00000  Uiso   1.00
C337   C     0.57992   0.42244   0.46583   0.00000  Uiso   1.00
H338   H     0.59637   0.45600   0.46132   0.00000  Uiso   1.00
H339   H     0.58125   0.40085   0.43546   0.00000  Uiso   1.00
H340   H     0.59663   0.40331   0.49277   0.00000  Uiso   1.00
O341   O     0.46187   0.57277   0.47336   0.00000  Uiso   1.00
C342   C     0.41920   0.56388   0.47353   0.00000  Uiso   1.00
H343   H     0.41256   0.53050   0.49046   0.00000  Uiso   1.00
H344   H     0.40533   0.56389   0.43934   0.00000  Uiso   1.00
H345   H     0.40421   0.59199   0.49224   0.00000  Uiso   1.00
O346   O     0.46067   0.42922   0.02188   0.00000  Uiso   1.00
C347   C     0.41943   0.42336   0.03411   0.00000  Uiso   1.00
H348   H     0.40329   0.45711   0.03855   0.00000  Uiso   1.00
H349   H     0.41786   0.40184   0.06451   0.00000  Uiso   1.00
H350   H     0.40258   0.40436   0.00718   0.00000  Uiso   1.00
C351   C     0.75410   0.50000   0.24995   0.00000  Uiso   1.00
C352   C     0.91257   0.50000   0.25005   0.00000  Uiso   1.00
C353   C     0.83328   0.50003   0.16505   0.00000  Uiso   1.00
C354   C     0.83339   0.50003   0.33495   0.00000  Uiso   1.00
C355   C     0.80697   0.35800   0.22232   0.00000  Uiso   1.00
C356   C     0.85952   0.64196   0.27787   0.00000  Uiso   1.00
C357   C     0.85969   0.35800   0.27768   0.00000  Uiso   1.00
C358   C     0.80714   0.64195   0.22213   0.00000  Uiso   1.00
C359   C     0.68796   0.45781   0.25001   0.00000  Uiso   1.00
C360   C     0.97870   0.54221   0.25000   0.00000  Uiso   1.00
C361   C     0.97871   0.45781   0.24999   0.00000  Uiso   1.00
C362   C     0.68796   0.54221   0.25000   0.00000  Uiso   1.00
C363   C     0.85295   0.53647   0.04836   0.00000  Uiso   1.00
C364   C     0.85355   0.46438   0.45359   0.00000  Uiso   1.00
C365   C     0.81402   0.53667   0.45167   0.00000  Uiso   1.00
C366   C     0.81283   0.46459   0.04642   0.00000  Uiso   1.00
C367   C     0.85159   0.53691   0.09444   0.00000  Uiso   1.00
C368   C     0.85182   0.46361   0.40717   0.00000  Uiso   1.00
C369   C     0.81538   0.53709   0.40559   0.00000  Uiso   1.00
C370   C     0.81455   0.46381   0.09283   0.00000  Uiso   1.00
C371   C     0.83316   0.50022   0.11676   0.00000  Uiso   1.00
C372   C     0.83351   0.50022   0.38325   0.00000  Uiso   1.00
C373   C     0.83314   0.50052   0.02429   0.00000  Uiso   1.00
C374   C     0.83354   0.50052   0.47573   0.00000  Uiso   1.00
C375   C     0.95722   0.50001   0.25002   0.00000  Uiso   1.00
C376   C     0.70944   0.50001   0.24998   0.00000  Uiso   1.00
Cu377  Cu    0.83333   0.54689   0.25000   0.00000  Uiso   1.00
Cu378  Cu    0.83333   0.45311   0.25000   0.00000  Uiso   1.00
H379   H     0.86603   0.56526   0.11273   0.00000  Uiso   1.00
H380   H     0.86519   0.43483   0.38979   0.00000  Uiso   1.00
H381   H     0.80117   0.56560   0.38732   0.00000  Uiso   1.00
H382   H     0.80094   0.43517   0.11020   0.00000  Uiso   1.00
H383   H     0.70394   0.42480   0.25007   0.00000  Uiso   1.00
H384   H     0.96272   0.57522   0.24996   0.00000  Uiso   1.00
H385   H     0.96272   0.42480   0.24993   0.00000  Uiso   1.00
H386   H     0.70395   0.57522   0.25003   0.00000  Uiso   1.00
N387   N     0.83333   0.61736   0.25000   0.00000  Uiso   1.00
N388   N     0.83333   0.38264   0.25000   0.00000  Uiso   1.00
O389   O     0.77321   0.53958   0.24999   0.00000  Uiso   1.00
O390   O     0.89345   0.46042   0.25000   0.00000  Uiso   1.00
O391   O     0.89345   0.53958   0.25000   0.00000  Uiso   1.00
O392   O     0.77321   0.46042   0.24999   0.00000  Uiso   1.00
O393   O     0.83333   0.53959   0.18573   0.00000  Uiso   1.00
O394   O     0.83334   0.46041   0.31427   0.00000  Uiso   1.00
O395   O     0.83334   0.53959   0.31427   0.00000  Uiso   1.00
O396   O     0.83333   0.46041   0.18573   0.00000  Uiso   1.00
Cl397  Cl    0.77195   0.38711   0.18621   0.00000  Uiso   1.00
Cl398  Cl    0.89369   0.61271   0.31490   0.00000  Uiso   1.00
Cl399  Cl    0.89471   0.38711   0.31379   0.00000  Uiso   1.00
Cl400  Cl    0.77298   0.61271   0.18510   0.00000  Uiso   1.00
O401   O     0.87207   0.57237   0.02669   0.00000  Uiso   1.00
C402   C     0.91466   0.56298   0.02645   0.00000  Uiso   1.00
H403   H     0.92097   0.52955   0.00945   0.00000  Uiso   1.00
H404   H     0.92856   0.56277   0.06063   0.00000  Uiso   1.00
H405   H     0.92988   0.59095   0.00778   0.00000  Uiso   1.00
O406   O     0.87208   0.42881   0.47811   0.00000  Uiso   1.00
C407   C     0.91326   0.42244   0.46583   0.00000  Uiso   1.00
H408   H     0.92970   0.45600   0.46132   0.00000  Uiso   1.00
H409   H     0.91459   0.40085   0.43546   0.00000  Uiso   1.00
H410   H     0.92996   0.40331   0.49277   0.00000  Uiso   1.00
O411   O     0.79520   0.57277   0.47336   0.00000  Uiso   1.00
C412   C     0.75253   0.56388   0.47353   0.00000  Uiso   1.00
H413   H     0.74589   0.53050   0.49046   0.00000  Uiso   1.00
H414   H     0.73866   0.56389   0.43934   0.00000  Uiso   1.00
H415   H     0.73755   0.59199   0.49224   0.00000  Uiso   1.00
O416   O     0.79401   0.42922   0.02188   0.00000  Uiso   1.00
C417   C     0.75276   0.42336   0.03411   0.00000  Uiso   1.00
H418   H     0.73662   0.45711   0.03855   0.00000  Uiso   1.00
H419   H     0.75119   0.40184   0.06451   0.00000  Uiso   1.00
H420   H     0.73592   0.40436   0.00718   0.00000  Uiso   1.00
C421   C     0.08743   0.83333   0.24995   0.00000  Uiso   1.00
C422   C     0.24590   0.83333   0.25005   0.00000  Uiso   1.00
C423   C     0.16661   0.83336   0.16505   0.00000  Uiso   1.00
C424   C     0.16672   0.83336   0.33495   0.00000  Uiso   1.00
C425   C     0.14031   0.69133   0.22232   0.00000  Uiso   1.00
C426   C     0.19286   0.97529   0.27787   0.00000  Uiso   1.00
C427   C     0.19303   0.69133   0.27768   0.00000  Uiso   1.00
C428   C     0.14048   0.97529   0.22213   0.00000  Uiso   1.00
C429   C     0.02129   0.79114   0.25001   0.00000  Uiso   1.00
C430   C     0.31204   0.87554   0.25000   0.00000  Uiso   1.00
C431   C     0.31204   0.79114   0.24999   0.00000  Uiso   1.00
C432   C     0.02129   0.87554   0.25000   0.00000  Uiso   1.00
C433   C     0.18628   0.86981   0.04836   0.00000  Uiso   1.00
C434   C     0.18689   0.79771   0.45359   0.00000  Uiso   1.00
C435   C     0.14736   0.87001   0.45167   0.00000  Uiso   1.00
C436   C     0.14616   0.79793   0.04642   0.00000  Uiso   1.00
C437   C     0.18492   0.87024   0.09444   0.00000  Uiso   1.00
C438   C     0.18515   0.79695   0.40717   0.00000  Uiso   1.00
C439   C     0.14872   0.87042   0.40559   0.00000  Uiso   1.00
C440   C     0.14789   0.79714   0.09283   0.00000  Uiso   1.00
C441   C     0.16649   0.83355   0.11676   0.00000  Uiso   1.00
C442   C     0.16684   0.83355   0.38325   0.00000  Uiso   1.00
C443   C     0.16647   0.83385   0.02429   0.00000  Uiso   1.00
C444   C     0.16688   0.83385   0.47573   0.00000  Uiso   1.00
C445   C     0.29056   0.83334   0.25002   0.00000  Uiso   1.00
C446   C     0.04278   0.83334   0.24998   0.00000  Uiso   1.00
Cu447  Cu    0.16667   0.88022   0.25000   0.00000  Uiso   1.00
Cu448  Cu    0.16667   0.78645   0.25000   0.00000  Uiso   1.00
H449   H     0.19936   0.89860   0.11273   0.00000  Uiso   1.00
H450   H     0.19853   0.76817   0.38979   0.00000  Uiso   1.00
H451   H     0.13450   0.89893   0.38732   0.00000  Uiso   1.00
H452   H     0.13427   0.76851   0.11020   0.00000  Uiso   1.00
H453   H     0.03728   0.75813   0.25007   0.00000  Uiso   1.00
H454   H     0.29605   0.90855   0.24996   0.00000  Uiso   1.00
H455   H     0.29606   0.75813   0.24993   0.00000  Uiso   1.00
H456   H     0.03728   0.90855   0.25003   0.00000  Uiso   1.00
N457   N     0.16667   0.95069   0.25000   0.00000  Uiso   1.00
N458   N     0.16667   0.71598   0.25000   0.00000  Uiso   1.00
O459   O     0.10655   0.87291   0.24999   0.00000  Uiso   1.00
O460   O     0.22679   0.79375   0.25000   0.00000  Uiso   1.00
O461   O     0.22679   0.87291   0.25000   0.00000  Uiso   1.00
O462   O     0.10655   0.79375   0.24999   0.00000  Uiso   1.00
O463   O     0.16666   0.87293   0.18573   0.00000  Uiso   1.00
O464   O     0.16667   0.79374   0.31427   0.00000  Uiso   1.00
O465   O     0.16667   0.87293   0.31427   0.00000  Uiso   1.00
O466   O     0.16666   0.79374   0.18573   0.00000  Uiso   1.00
Cl467  Cl    0.10529   0.72044   0.18621   0.00000  Uiso   1.00
Cl468  Cl    0.22702   0.94604   0.31490   0.00000  Uiso   1.00
Cl469  Cl    0.22805   0.72044   0.31379   0.00000  Uiso   1.00
Cl470  Cl    0.10631   0.94604   0.18510   0.00000  Uiso   1.00
O471   O     0.20541   0.90571   0.02669   0.00000  Uiso   1.00
C472   C     0.24799   0.89632   0.02645   0.00000  Uiso   1.00
H473   H     0.25431   0.86288   0.00945   0.00000  Uiso   1.00
H474   H     0.26189   0.89610   0.06063   0.00000  Uiso   1.00
H475   H     0.26322   0.92428   0.00778   0.00000  Uiso   1.00
O476   O     0.20542   0.76214   0.47811   0.00000  Uiso   1.00
C477   C     0.24659   0.75578   0.46583   0.00000  Uiso   1.00
H478   H     0.26303   0.78933   0.46132   0.00000  Uiso   1.00
H479   H     0.24792   0.73419   0.43546   0.00000  Uiso   1.00
H480   H     0.26329   0.73664   0.49277   0.00000  Uiso   1.00
O481   O     0.12854   0.90611   0.47336   0.00000  Uiso   1.00
C482   C     0.08587   0.89722   0.47353   0.00000  Uiso   1.00
H483   H     0.07923   0.86383   0.49046   0.00000  Uiso   1.00
H484   H     0.07199   0.89722   0.43934   0.00000  Uiso   1.00
H485   H     0.07088   0.92533   0.49224   0.00000  Uiso   1.00
O486   O     0.12734   0.76255   0.02188   0.00000  Uiso   1.00
C487   C     0.08609   0.75669   0.03411   0.00000  Uiso   1.00
H488   H     0.06995   0.79045   0.03855   0.00000  Uiso   1.00
H489   H     0.08452   0.73517   0.06451   0.00000  Uiso   1.00
H490   H     0.06925   0.73770   0.00718   0.00000  Uiso   1.00
C491   C     0.42077   0.83333   0.24995   0.00000  Uiso   1.00
C492   C     0.57923   0.83333   0.25005   0.00000  Uiso   1.00
C493   C     0.49994   0.83336   0.16505   0.00000  Uiso   1.00
C494   C     0.50006   0.83336   0.33495   0.00000  Uiso   1.00
C495   C     0.47364   0.69133   0.22232   0.00000  Uiso   1.00
C496   C     0.52619   0.97529   0.27787   0.00000  Uiso   1.00
C497   C     0.52636   0.69133   0.27768   0.00000  Uiso   1.00
C498   C     0.47381   0.97529   0.22213   0.00000  Uiso   1.00
C499   C     0.35463   0.79114   0.25001   0.00000  Uiso   1.00
C500   C     0.64537   0.87554   0.25000   0.00000  Uiso   1.00
C501   C     0.64537   0.79114   0.24999   0.00000  Uiso   1.00
C502   C     0.35463   0.87554   0.25000   0.00000  Uiso   1.00
C503   C     0.51961   0.86981   0.04836   0.00000  Uiso   1.00
C504   C     0.52022   0.79771   0.45359   0.00000  Uiso   1.00
C505   C     0.48069   0.87001   0.45167   0.00000  Uiso   1.00
C506   C     0.47950   0.79793   0.04642   0.00000  Uiso   1.00
C507   C     0.51825   0.87024   0.09444   0.00000  Uiso   1.00
C508   C     0.51849   0.79695   0.40717   0.00000  Uiso   1.00
C509   C     0.48205   0.87042   0.40559   0.00000  Uiso   1.00
C510   C     0.48122   0.79714   0.09283   0.00000  Uiso   1.00
C511   C     0.49983   0.83355   0.11676   0.00000  Uiso   1.00
C512   C     0.50018   0.83355   0.38325   0.00000  Uiso   1.00
C513   C     0.49980   0.83385   0.02429   0.00000  Uiso   1.00
C514   C     0.50021   0.83385   0.47573   0.00000  Uiso   1.00
C515   C     0.62389   0.83334   0.25002   0.00000  Uiso   1.00
C516   C     0.37611   0.83334   0.24998   0.00000  Uiso   1.00
Cu517  Cu    0.50000   0.88022   0.25000   0.00000  Uiso   1.00
Cu518  Cu    0.50000   0.78645   0.25000   0.00000  Uiso   1.00
H519   H     0.53270   0.89860   0.11273   0.00000  Uiso   1.00
H520   H     0.53186   0.76817   0.38979   0.00000  Uiso   1.00
H521   H     0.46783   0.89893   0.38732   0.00000  Uiso   1.00
H522   H     0.46760   0.76851   0.11020   0.00000  Uiso   1.00
H523   H     0.37061   0.75813   0.25007   0.00000  Uiso   1.00
H524   H     0.62938   0.90855   0.24996   0.00000  Uiso   1.00
H525   H     0.62939   0.75813   0.24993   0.00000  Uiso   1.00
H526   H     0.37062   0.90855   0.25003   0.00000  Uiso   1.00
N527   N     0.50000   0.95069   0.25000   0.00000  Uiso   1.00
N528   N     0.50000   0.71598   0.25000   0.00000  Uiso   1.00
O529   O     0.43988   0.87291   0.24999   0.00000  Uiso   1.00
O530   O     0.56012   0.79375   0.25000   0.00000  Uiso   1.00
O531   O     0.56012   0.87291   0.25000   0.00000  Uiso   1.00
O532   O     0.43988   0.79375   0.24999   0.00000  Uiso   1.00
O533   O     0.50000   0.87293   0.18573   0.00000  Uiso   1.00
O534   O     0.50000   0.79374   0.31427   0.00000  Uiso   1.00
O535   O     0.50000   0.87293   0.31427   0.00000  Uiso   1.00
O536   O     0.50000   0.79374   0.18573   0.00000  Uiso   1.00
Cl537  Cl    0.43862   0.72044   0.18621   0.00000  Uiso   1.00
Cl538  Cl    0.56036   0.94604   0.31490   0.00000  Uiso   1.00
Cl539  Cl    0.56138   0.72044   0.31379   0.00000  Uiso   1.00
Cl540  Cl    0.43964   0.94604   0.18510   0.00000  Uiso   1.00
O541   O     0.53874   0.90571   0.02669   0.00000  Uiso   1.00
C542   C     0.58132   0.89632   0.02645   0.00000  Uiso   1.00
H543   H     0.58764   0.86288   0.00945   0.00000  Uiso   1.00
H544   H     0.59523   0.89610   0.06063   0.00000  Uiso   1.00
H545   H     0.59655   0.92428   0.00778   0.00000  Uiso   1.00
O546   O     0.53875   0.76214   0.47811   0.00000  Uiso   1.00
C547   C     0.57992   0.75578   0.46583   0.00000  Uiso   1.00
H548   H     0.59637   0.78933   0.46132   0.00000  Uiso   1.00
H549   H     0.58125   0.73419   0.43546   0.00000  Uiso   1.00
H550   H     0.59663   0.73664   0.49277   0.00000  Uiso   1.00
O551   O     0.46187   0.90611   0.47336   0.00000  Uiso   1.00
C552   C     0.41920   0.89722   0.47353   0.00000  Uiso   1.00
H553   H     0.41256   0.86383   0.49046   0.00000  Uiso   1.00
H554   H     0.40533   0.89722   0.43934   0.00000  Uiso   1.00
H555   H     0.40421   0.92533   0.49224   0.00000  Uiso   1.00
O556   O     0.46067   0.76255   0.02188   0.00000  Uiso   1.00
C557   C     0.41943   0.75669   0.03411   0.00000  Uiso   1.00
H558   H     0.40329   0.79045   0.03855   0.00000  Uiso   1.00
H559   H     0.41786   0.73517   0.06451   0.00000  Uiso   1.00
H560   H     0.40258   0.73770   0.00718   0.00000  Uiso   1.00
C561   C     0.75410   0.83333   0.24995   0.00000  Uiso   1.00
C562   C     0.91257   0.83333   0.25005   0.00000  Uiso   1.00
C563   C     0.83328   0.83336   0.16505   0.00000  Uiso   1.00
C564   C     0.83339   0.83336   0.33495   0.00000  Uiso   1.00
C565   C     0.80697   0.69133   0.22232   0.00000  Uiso   1.00
C566   C     0.85952   0.97529   0.27787   0.00000  Uiso   1.00
C567   C     0.85969   0.69133   0.27768   0.00000  Uiso   1.00
C568   C     0.80714   0.97529   0.22213   0.00000  Uiso   1.00
C569   C     0.68796   0.79114   0.25001   0.00000  Uiso   1.00
C570   C     0.97870   0.87554   0.25000   0.00000  Uiso   1.00
C571   C     0.97871   0.79114   0.24999   0.00000  Uiso   1.00
C572   C     0.68796   0.87554   0.25000   0.00000  Uiso   1.00
C573   C     0.85295   0.86981   0.04836   0.00000  Uiso   1.00
C574   C     0.85355   0.79771   0.45359   0.00000  Uiso   1.00
C575   C     0.81402   0.87001   0.45167   0.00000  Uiso   1.00
C576   C     0.81283   0.79793   0.04642   0.00000  Uiso   1.00
C577   C     0.85159   0.87024   0.09444   0.00000  Uiso   1.00
C578   C     0.85182   0.79695   0.40717   0.00000  Uiso   1.00
C579   C     0.81538   0.87042   0.40559   0.00000  Uiso   1.00
C580   C     0.81455   0.79714   0.09283   0.00000  Uiso   1.00
C581   C     0.83316   0.83355   0.11676   0.00000  Uiso   1.00
C582   C     0.83351   0.83355   0.38325   0.00000  Uiso   1.00
C583   C     0.83314   0.83385   0.02429   0.00000  Uiso   1.00
C584   C     0.83354   0.83385   0.47573   0.00000  Uiso   1.00
C585   C     0.95722   0.83334   0.25002   0.00000  Uiso   1.00
C586   C     0.70944   0.83334   0.24998   0.00000  Uiso   1.00
Cu587  Cu    0.83333   0.88022   0.25000   0.00000  Uiso   1.00
Cu588  Cu    0.83333   0.78645   0.25000   0.00000  Uiso   1.00
H589   H     0.86603   0.89860   0.11273   0.00000  Uiso   1.00
H590   H     0.86519   0.76817   0.38979   0.00000  Uiso   1.00
H591   H     0.80117   0.89893   0.38732   0.00000  Uiso   1.00
H592   H     0.80094   0.76851   0.11020   0.00000  Uiso   1.00
H593   H     0.70394   0.75813   0.25007   0.00000  Uiso   1.00
H594   H     0.96272   0.90855   0.24996   0.00000  Uiso   1.00
H595   H     0.96272   0.75813   0.24993   0.00000  Uiso   1.00
H596   H     0.70395   0.90855   0.25003   0.00000  Uiso   1.00
N597   N     0.83333   0.95069   0.25000   0.00000  Uiso   1.00
N598   N     0.83333   0.71598   0.25000   0.00000  Uiso   1.00
O599   O     0.77321   0.87291   0.24999   0.00000  Uiso   1.00
O600   O     0.89345   0.79375   0.25000   0.00000  Uiso   1.00
O601   O     0.89345   0.87291   0.25000   0.00000  Uiso   1.00
O602   O     0.77321   0.79375   0.24999   0.00000  Uiso   1.00
O603   O     0.83333   0.87293   0.18573   0.00000  Uiso   1.00
O604   O     0.83334   0.79374   0.31427   0.00000  Uiso   1.00
O605   O     0.83334   0.87293   0.31427   0.00000  Uiso   1.00
O606   O     0.83333   0.79374   0.18573   0.00000  Uiso   1.00
Cl607  Cl    0.77195   0.72044   0.18621   0.00000  Uiso   1.00
Cl608  Cl    0.89369   0.94604   0.31490   0.00000  Uiso   1.00
Cl609  Cl    0.89471   0.72044   0.31379   0.00000  Uiso   1.00
Cl610  Cl    0.77298   0.94604   0.18510   0.00000  Uiso   1.00
O611   O     0.87207   0.90571   0.02669   0.00000  Uiso   1.00
C612   C     0.91466   0.89632   0.02645   0.00000  Uiso   1.00
H613   H     0.92097   0.86288   0.00945   0.00000  Uiso   1.00
H614   H     0.92856   0.89610   0.06063   0.00000  Uiso   1.00
H615   H     0.92988   0.92428   0.00778   0.00000  Uiso   1.00
O616   O     0.87208   0.76214   0.47811   0.00000  Uiso   1.00
C617   C     0.91326   0.75578   0.46583   0.00000  Uiso   1.00
H618   H     0.92970   0.78933   0.46132   0.00000  Uiso   1.00
H619   H     0.91459   0.73419   0.43546   0.00000  Uiso   1.00
H620   H     0.92996   0.73664   0.49277   0.00000  Uiso   1.00
O621   O     0.79520   0.90611   0.47336   0.00000  Uiso   1.00
C622   C     0.75253   0.89722   0.47353   0.00000  Uiso   1.00
H623   H     0.74589   0.86383   0.49046   0.00000  Uiso   1.00
H624   H     0.73866   0.89722   0.43934   0.00000  Uiso   1.00
H625   H     0.73755   0.92533   0.49224   0.00000  Uiso   1.00
O626   O     0.79401   0.76255   0.02188   0.00000  Uiso   1.00
C627   C     0.75276   0.75669   0.03411   0.00000  Uiso   1.00
H628   H     0.73662   0.79045   0.03855   0.00000  Uiso   1.00
H629   H     0.75119   0.73517   0.06451   0.00000  Uiso   1.00
H630   H     0.73592   0.73770   0.00718   0.00000  Uiso   1.00
C631   C     0.08743   0.16667   0.74995   0.00000  Uiso   1.00
C632   C     0.24590   0.16667   0.75005   0.00000  Uiso   1.00
C633   C     0.16661   0.16669   0.66505   0.00000  Uiso   1.00
C634   C     0.16672   0.16669   0.83495   0.00000  Uiso   1.00
C635   C     0.14031   0.02466   0.72232   0.00000  Uiso   1.00
C636   C     0.19286   0.30862   0.77787   0.00000  Uiso   1.00
C637   C     0.19303   0.02467   0.77768   0.00000  Uiso   1.00
C638   C     0.14048   0.30862   0.72213   0.00000  Uiso   1.00
C639   C     0.02129   0.12448   0.75001   0.00000  Uiso   1.00
C640   C     0.31204   0.20887   0.75000   0.00000  Uiso   1.00
C641   C     0.31204   0.12447   0.74999   0.00000  Uiso   1.00
C642   C     0.02129   0.20887   0.75000   0.00000  Uiso   1.00
C643   C     0.18628   0.20314   0.54836   0.00000  Uiso   1.00
C644   C     0.18689   0.13105   0.95359   0.00000  Uiso   1.00
C645   C     0.14736   0.20334   0.95167   0.00000  Uiso   1.00
C646   C     0.14616   0.13126   0.54642   0.00000  Uiso   1.00
C647   C     0.18492   0.20357   0.59444   0.00000  Uiso   1.00
C648   C     0.18515   0.13028   0.90717   0.00000  Uiso   1.00
C649   C     0.14872   0.20376   0.90559   0.00000  Uiso   1.00
C650   C     0.14789   0.13047   0.59283   0.00000  Uiso   1.00
C651   C     0.16649   0.16688   0.61676   0.00000  Uiso   1.00
C652   C     0.16684   0.16688   0.88325   0.00000  Uiso   1.00
C653   C     0.16647   0.16719   0.52429   0.00000  Uiso   1.00
C654   C     0.16688   0.16718   0.97573   0.00000  Uiso   1.00
C655   C     0.29056   0.16667   0.75002   0.00000  Uiso   1.00
C656   C     0.04278   0.16667   0.74998   0.00000  Uiso   1.00
Cu657  Cu    0.16667   0.21355   0.75000   0.00000  Uiso   1.00
Cu658  Cu    0.16667   0.11978   0.75000   0.00000  Uiso   1.00
H659   H     0.19936   0.23193   0.61273   0.00000  Uiso   1.00
H660   H     0.19853   0.10150   0.88979   0.00000  Uiso   1.00
H661   H     0.13450   0.23227   0.88732   0.00000  Uiso   1.00
H662   H     0.13427   0.10184   0.61020   0.00000  Uiso   1.00
H663   H     0.03728   0.09146   0.75007   0.00000  Uiso   1.00
H664   H     0.29605   0.24188   0.74996   0.00000  Uiso   1.00
H665   H     0.29606   0.09146   0.74993   0.00000  Uiso   1.00
H666   H     0.03728   0.24188   0.75003   0.00000  Uiso   1.00
N667   N     0.16667   0.28402   0.75000   0.00000  Uiso   1.00
N668   N     0.16667   0.04931   0.75000   0.00000  Uiso   1.00
O669   O     0.10655   0.20625   0.74999   0.00000  Uiso   1.00
O670   O     0.22679   0.12709   0.75000   0.00000  Uiso   1.00
O671   O     0.22679   0.20625   0.75000   0.00000  Uiso   1.00
O672   O     0.10655   0.12709   0.74999   0.00000  Uiso   1.00
O673   O     0.16666   0.20626   0.68573   0.00000  Uiso   1.00
O674   O     0.16667   0.12707   0.81427   0.00000  Uiso   1.00
O675   O     0.16667   0.20626   0.81427   0.00000  Uiso   1.00
O676   O     0.16666   0.12707   0.68573   0.00000  Uiso   1.00
Cl677  Cl    0.10529   0.05377   0.68621   0.00000  Uiso   1.00
Cl678  Cl    0.22702   0.27937   0.81490   0.00000  Uiso   1.00
Cl679  Cl    0.22805   0.05377   0.81379   0.00000  Uiso   1.00
Cl680  Cl    0.10631   0.27937   0.68510   0.00000  Uiso   1.00
O681   O     0.20541   0.23904   0.52669   0.00000  Uiso   1.00
C682   C     0.24799   0.22965   0.52645   0.00000  Uiso   1.00
H683   H     0.25431   0.19622   0.50945   0.00000  Uiso   1.00
H684   H     0.26189   0.22943   0.56063   0.00000  Uiso   1.00
H685   H     0.26322   0.25762   0.50778   0.00000  Uiso   1.00
O686   O     0.20542   0.09548   0.97811   0.00000  Uiso   1.00
C687   C     0.24659   0.08911   0.96583   0.00000  Uiso   1.00
H688   H     0.26303   0.12267   0.96132   0.00000  Uiso   1.00
H689   H     0.24792   0.06752   0.93546   0.00000  Uiso   1.00
H690   H     0.26329   0.06997   0.99277   0.00000  Uiso   1.00
O691   O     0.12854   0.23944   0.97336   0.00000  Uiso   1.00
C692   C     0.08587   0.23055   0.97353   0.00000  Uiso   1.00
H693   H     0.07923   0.19716   0.99046   0.00000  Uiso   1.00
H694   H     0.07199   0.23056   0.93934   0.00000  Uiso   1.00
H695   H     0.07088   0.25866   0.99224   0.00000  Uiso   1.00
O696   O     0.12734   0.09589   0.52188   0.00000  Uiso   1.00
C697   C     0.08609   0.09002   0.53411   0.00000  Uiso   1.00
H698   H     0.06995   0.12378   0.53855   0.00000  Uiso   1.00
H699   H     0.08452   0.06851   0.56451   0.00000  Uiso   1.00
H700   H     0.06925   0.07103   0.50718   0.00000  Uiso   1.00
C701   C     0.42077   0.16667   0.74995   0.00000  Uiso   1.00
C702   C     0.57923   0.16667   0.75005   0.00000  Uiso   1.00
C703   C     0.49994   0.16669   0.66505   0.00000  Uiso   1.00
C704   C     0.50006   0.16669   0.83495   0.00000  Uiso   1.00
C705   C     0.47364   0.02466   0.72232   0.00000  Uiso   1.00
C706   C     0.52619   0.30862   0.77787   0.00000  Uiso   1.00
C707   C     0.52636   0.02467   0.77768   0.00000  Uiso   1.00
C708   C     0.47381   0.30862   0.72213   0.00000  Uiso   1.00
C709   C     0.35463   0.12448   0.75001   0.00000  Uiso   1.00
C710   C     0.64537   0.20887   0.75000   0.00000  Uiso   1.00
C711   C     0.64537   0.12447   0.74999   0.00000  Uiso   1.00
C712   C     0.35463   0.20887   0.75000   0.00000  Uiso   1.00
C713   C     0.51961   0.20314   0.54836   0.00000  Uiso   1.00
C714   C     0.52022   0.13105   0.95359   0.00000  Uiso   1.00
C715   C     0.48069   0.20334   0.95167   0.00000  Uiso   1.00
C716   C     0.47950   0.13126   0.54642   0.00000  Uiso   1.00
C717   C     0.51825   0.20357   0.59444   0.00000  Uiso   1.00
C718   C     0.51849   0.13028   0.90717   0.00000  Uiso   1.00
C719   C     0.48205   0.20376   0.90559   0.00000  Uiso   1.00
C720   C     0.48122   0.13047   0.59283   0.00000  Uiso   1.00
C721   C     0.49983   0.16688   0.61676   0.00000  Uiso   1.00
C722   C     0.50018   0.16688   0.88325   0.00000  Uiso   1.00
C723   C     0.49980   0.16719   0.52429   0.00000  Uiso   1.00
C724   C     0.50021   0.16718   0.97573   0.00000  Uiso   1.00
C725   C     0.62389   0.16667   0.75002   0.00000  Uiso   1.00
C726   C     0.37611   0.16667   0.74998   0.00000  Uiso   1.00
Cu727  Cu    0.50000   0.21355   0.75000   0.00000  Uiso   1.00
Cu728  Cu    0.50000   0.11978   0.75000   0.00000  Uiso   1.00
H729   H     0.53270   0.23193   0.61273   0.00000  Uiso   1.00
H730   H     0.53186   0.10150   0.88979   0.00000  Uiso   1.00
H731   H     0.46783   0.23227   0.88732   0.00000  Uiso   1.00
H732   H     0.46760   0.10184   0.61020   0.00000  Uiso   1.00
H733   H     0.37061   0.09146   0.75007   0.00000  Uiso   1.00
H734   H     0.62938   0.24188   0.74996   0.00000  Uiso   1.00
H735   H     0.62939   0.09146   0.74993   0.00000  Uiso   1.00
H736   H     0.37062   0.24188   0.75003   0.00000  Uiso   1.00
N737   N     0.50000   0.28402   0.75000   0.00000  Uiso   1.00
N738   N     0.50000   0.04931   0.75000   0.00000  Uiso   1.00
O739   O     0.43988   0.20625   0.74999   0.00000  Uiso   1.00
O740   O     0.56012   0.12709   0.75000   0.00000  Uiso   1.00
O741   O     0.56012   0.20625   0.75000   0.00000  Uiso   1.00
O742   O     0.43988   0.12709   0.74999   0.00000  Uiso   1.00
O743   O     0.50000   0.20626   0.68573   0.00000  Uiso   1.00
O744   O     0.50000   0.12707   0.81427   0.00000  Uiso   1.00
O745   O     0.50000   0.20626   0.81427   0.00000  Uiso   1.00
O746   O     0.50000   0.12707   0.68573   0.00000  Uiso   1.00
Cl747  Cl    0.43862   0.05377   0.68621   0.00000  Uiso   1.00
Cl748  Cl    0.56036   0.27937   0.81490   0.00000  Uiso   1.00
Cl749  Cl    0.56138   0.05377   0.81379   0.00000  Uiso   1.00
Cl750  Cl    0.43964   0.27937   0.68510   0.00000  Uiso   1.00
O751   O     0.53874   0.23904   0.52669   0.00000  Uiso   1.00
C752   C     0.58132   0.22965   0.52645   0.00000  Uiso   1.00
H753   H     0.58764   0.19622   0.50945   0.00000  Uiso   1.00
H754   H     0.59523   0.22943   0.56063   0.00000  Uiso   1.00
H755   H     0.59655   0.25762   0.50778   0.00000  Uiso   1.00
O756   O     0.53875   0.09548   0.97811   0.00000  Uiso   1.00
C757   C     0.57992   0.08911   0.96583   0.00000  Uiso   1.00
H758   H     0.59637   0.12267   0.96132   0.00000  Uiso   1.00
H759   H     0.58125   0.06752   0.93546   0.00000  Uiso   1.00
H760   H     0.59663   0.06997   0.99277   0.00000  Uiso   1.00
O761   O     0.46187   0.23944   0.97336   0.00000  Uiso   1.00
C762   C     0.41920   0.23055   0.97353   0.00000  Uiso   1.00
H763   H     0.41256   0.19716   0.99046   0.00000  Uiso   1.00
H764   H     0.40533   0.23056   0.93934   0.00000  Uiso   1.00
H765   H     0.40421   0.25866   0.99224   0.00000  Uiso   1.00
O766   O     0.46067   0.09589   0.52188   0.00000  Uiso   1.00
C767   C     0.41943   0.09002   0.53411   0.00000  Uiso   1.00
H768   H     0.40329   0.12378   0.53855   0.00000  Uiso   1.00
H769   H     0.41786   0.06851   0.56451   0.00000  Uiso   1.00
H770   H     0.40258   0.07103   0.50718   0.00000  Uiso   1.00
C771   C     0.75410   0.16667   0.74995   0.00000  Uiso   1.00
C772   C     0.91257   0.16667   0.75005   0.00000  Uiso   1.00
C773   C     0.83328   0.16669   0.66505   0.00000  Uiso   1.00
C774   C     0.83339   0.16669   0.83495   0.00000  Uiso   1.00
C775   C     0.80697   0.02466   0.72232   0.00000  Uiso   1.00
C776   C     0.85952   0.30862   0.77787   0.00000  Uiso   1.00
C777   C     0.85969   0.02467   0.77768   0.00000  Uiso   1.00
C778   C     0.80714   0.30862   0.72213   0.00000  Uiso   1.00
C779   C     0.68796   0.12448   0.75001   0.00000  Uiso   1.00
C780   C     0.97870   0.20887   0.75000   0.00000  Uiso   1.00
C781   C     0.97871   0.12447   0.74999   0.00000  Uiso   1.00
C782   C     0.68796   0.20887   0.75000   0.00000  Uiso   1.00
C783   C     0.85295   0.20314   0.54836   0.00000  Uiso   1.00
C784   C     0.85355   0.13105   0.95359   0.00000  Uiso   1.00
C785   C     0.81402   0.20334   0.95167   0.00000  Uiso   1.00
C786   C     0.81283   0.13126   0.54642   0.00000  Uiso   1.00
C787   C     0.85159   0.20357   0.59444   0.00000  Uiso   1.00
C788   C     0.85182   0.13028   0.90717   0.00000  Uiso   1.00
C789   C     0.81538   0.20376   0.90559   0.00000  Uiso   1.00
C790   C     0.81455   0.13047   0.59283   0.00000  Uiso   1.00
C791   C     0.83316   0.16688   0.61676   0.00000  Uiso   1.00
C792   C     0.83351   0.16688   0.88325   0.00000  Uiso   1.00
C793   C     0.83314   0.16719   0.52429   0.00000  Uiso   1.00
C794   C     0.83354   0.16718   0.97573   0.00000  Uiso   1.00
C795   C     0.95722   0.16667   0.75002   0.00000  Uiso   1.00
C796   C     0.70944   0.16667   0.74998   0.00000  Uiso   1.00
Cu797  Cu    0.83333   0.21355   0.75000   0.00000  Uiso   1.00
Cu798  Cu    0.83333   0.11978   0.75000   0.00000  Uiso   1.00
H799   H     0.86603   0.23193   0.61273   0.00000  Uiso   1.00
H800   H     0.86519   0.10150   0.88979   0.00000  Uiso   1.00
H801   H     0.80117   0.23227   0.88732   0.00000  Uiso   1.00
H802   H     0.80094   0.10184   0.61020   0.00000  Uiso   1.00
H803   H     0.70394   0.09146   0.75007   0.00000  Uiso   1.00
H804   H     0.96272   0.24188   0.74996   0.00000  Uiso   1.00
H805   H     0.96272   0.09146   0.74993   0.00000  Uiso   1.00
H806   H     0.70395   0.24188   0.75003   0.00000  Uiso   1.00
N807   N     0.83333   0.28402   0.75000   0.00000  Uiso   1.00
N808   N     0.83333   0.04931   0.75000   0.00000  Uiso   1.00
O809   O     0.77321   0.20625   0.74999   0.00000  Uiso   1.00
O810   O     0.89345   0.12709   0.75000   0.00000  Uiso   1.00
O811   O     0.89345   0.20625   0.75000   0.00000  Uiso   1.00
O812   O     0.77321   0.12709   0.74999   0.00000  Uiso   1.00
O813   O     0.83333   0.20626   0.68573   0.00000  Uiso   1.00
O814   O     0.83334   0.12707   0.81427   0.00000  Uiso   1.00
O815   O     0.83334   0.20626   0.81427   0.00000  Uiso   1.00
O816   O     0.83333   0.12707   0.68573   0.00000  Uiso   1.00
Cl817  Cl    0.77195   0.05377   0.68621   0.00000  Uiso   1.00
Cl818  Cl    0.89369   0.27937   0.81490   0.00000  Uiso   1.00
Cl819  Cl    0.89471   0.05377   0.81379   0.00000  Uiso   1.00
Cl820  Cl    0.77298   0.27937   0.68510   0.00000  Uiso   1.00
O821   O     0.87207   0.23904   0.52669   0.00000  Uiso   1.00
C822   C     0.91466   0.22965   0.52645   0.00000  Uiso   1.00
H823   H     0.92097   0.19622   0.50945   0.00000  Uiso   1.00
H824   H     0.92856   0.22943   0.56063   0.00000  Uiso   1.00
H825   H     0.92988   0.25762   0.50778   0.00000  Uiso   1.00
O826   O     0.87208   0.09548   0.97811   0.00000  Uiso   1.00
C827   C     0.91326   0.08911   0.96583   0.00000  Uiso   1.00
H828   H     0.92970   0.12267   0.96132   0.00000  Uiso   1.00
H829   H     0.91459   0.06752   0.93546   0.00000  Uiso   1.00
H830   H     0.92996   0.06997   0.99277   0.00000  Uiso   1.00
O831   O     0.79520   0.23944   0.97336   0.00000  Uiso   1.00
C832   C     0.75253   0.23055   0.97353   0.00000  Uiso   1.00
H833   H     0.74589   0.19716   0.99046   0.00000  Uiso   1.00
H834   H     0.73866   0.23056   0.93934   0.00000  Uiso   1.00
H835   H     0.73755   0.25866   0.99224   0.00000  Uiso   1.00
O836   O     0.79401   0.09589   0.52188   0.00000  Uiso   1.00
C837   C     0.75276   0.09002   0.53411   0.00000  Uiso   1.00
H838   H     0.73662   0.12378   0.53855   0.00000  Uiso   1.00
H839   H     0.75119   0.06851   0.56451   0.00000  Uiso   1.00
H840   H     0.73592   0.07103   0.50718   0.00000  Uiso   1.00
C841   C     0.08743   0.50000   0.74995   0.00000  Uiso   1.00
C842   C     0.24590   0.50000   0.75005   0.00000  Uiso   1.00
C843   C     0.16661   0.50003   0.66505   0.00000  Uiso   1.00
C844   C     0.16672   0.50003   0.83495   0.00000  Uiso   1.00
C845   C     0.14031   0.35800   0.72232   0.00000  Uiso   1.00
C846   C     0.19286   0.64196   0.77787   0.00000  Uiso   1.00
C847   C     0.19303   0.35800   0.77768   0.00000  Uiso   1.00
C848   C     0.14048   0.64195   0.72213   0.00000  Uiso   1.00
C849   C     0.02129   0.45781   0.75001   0.00000  Uiso   1.00
C850   C     0.31204   0.54221   0.75000   0.00000  Uiso   1.00
C851   C     0.31204   0.45781   0.74999   0.00000  Uiso   1.00
C852   C     0.02129   0.54221   0.75000   0.00000  Uiso   1.00
C853   C     0.18628   0.53647   0.54836   0.00000  Uiso   1.00
C854   C     0.18689   0.46438   0.95359   0.00000  Uiso   1.00
C855   C     0.14736   0.53667   0.95167   0.00000  Uiso   1.00
C856   C     0.14616   0.46459   0.54642   0.00000  Uiso   1.00
C857   C     0.18492   0.53691   0.59444   0.00000  Uiso   1.00
C858   C     0.18515   0.46361   0.90717   0.00000  Uiso   1.00
C859   C     0.14872   0.53709   0.90559   0.00000  Uiso   1.00
C860   C     0.14789   0.46381   0.59283   0.00000  Uiso   1.00
C861   C     0.16649   0.50022   0.61676   0.00000  Uiso   1.00
C862   C     0.16684   0.50022   0.88325   0.00000  Uiso   1.00
C863   C     0.16647   0.50052   0.52429   0.00000  Uiso   1.00
C864   C     0.16688   0.50052   0.97573   0.00000  Uiso   1.00
C865   C     0.29056   0.50001   0.75002   0.00000  Uiso   1.00
C866   C     0.04278   0.50001   0.74998   0.00000  Uiso   1.00
Cu867  Cu    0.16667   0.54689   0.75000   0.00000  Uiso   1.00
Cu868  Cu    0.16667   0.45311   0.75000   0.00000  Uiso   1.00
H869   H     0.19936   0.56526   0.61273   0.00000  Uiso   1.00
H870   H     0.19853   0.43483   0.88979   0.00000  Uiso   1.00
H871   H     0.13450   0.56560   0.88732   0.00000  Uiso   1.00
H872   H     0.13427   0.43517   0.61020   0.00000  Uiso   1.00
H873   H     0.03728   0.42480   0.75007   0.00000  Uiso   1.00
H874   H     0.29605   0.57522   0.74996   0.00000  Uiso   1.00
H875   H     0.29606   0.42480   0.74993   0.00000  Uiso   1.00
H876   H     0.03728   0.57522   0.75003   0.00000  Uiso   1.00
N877   N     0.16667   0.61736   0.75000   0.00000  Uiso   1.00
N878   N     0.16667   0.38264   0.75000   0.00000  Uiso   1.00
O879   O     0.10655   0.53958   0.74999   0.00000  Uiso   1.00
O880   O     0.22679   0.46042   0.75000   0.00000  Uiso   1.00
O881   O     0.22679   0.53958   0.75000   0.00000  Uiso   1.00
O882   O     0.10655   0.46042   0.74999   0.00000  Uiso   1.00
O883   O     0.16666   0.53959   0.68573   0.00000  Uiso   1.00
O884   O     0.16667   0.46041   0.81427   0.00000  Uiso   1.00
O885   O     0.16667   0.53959   0.81427   0.00000  Uiso   1.00
O886   O     0.16666   0.46041   0.68573   0.00000  Uiso   1.00
Cl887  Cl    0.10529   0.38711   0.68621   0.00000  Uiso   1.00
Cl888  Cl    0.22702   0.61271   0.81490   0.00000  Uiso   1.00
Cl889  Cl    0.22805   0.38711   0.81379   0.00000  Uiso   1.00
Cl890  Cl    0.10631   0.61271   0.68510   0.00000  Uiso   1.00
O891   O     0.20541   0.57237   0.52669   0.00000  Uiso   1.00
C892   C     0.24799   0.56298   0.52645   0.00000  Uiso   1.00
H893   H     0.25431   0.52955   0.50945   0.00000  Uiso   1.00
H894   H     0.26189   0.56277   0.56063   0.00000  Uiso   1.00
H895   H     0.26322   0.59095   0.50778   0.00000  Uiso   1.00
O896   O     0.20542   0.42881   0.97811   0.00000  Uiso   1.00
C897   C     0.24659   0.42244   0.96583   0.00000  Uiso   1.00
H898   H     0.26303   0.45600   0.96132   0.00000  Uiso   1.00
H899   H     0.24792   0.40085   0.93546   0.00000  Uiso   1.00
H900   H     0.26329   0.40331   0.99277   0.00000  Uiso   1.00
O901   O     0.12854   0.57277   0.97336   0.00000  Uiso   1.00
C902   C     0.08587   0.56388   0.97353   0.00000  Uiso   1.00
H903   H     0.07923   0.53050   0.99046   0.00000  Uiso   1.00
H904   H     0.07199   0.56389   0.93934   0.00000  Uiso   1.00
H905   H     0.07088   0.59199   0.99224   0.00000  Uiso   1.00
O906   O     0.12734   0.42922   0.52188   0.00000  Uiso   1.00
C907   C     0.08609   0.42336   0.53411   0.00000  Uiso   1.00
H908   H     0.06995   0.45711   0.53855   0.00000  Uiso   1.00
H909   H     0.08452   0.40184   0.56451   0.00000  Uiso   1.00
H910   H     0.06925   0.40436   0.50718   0.00000  Uiso   1.00
C911   C     0.42077   0.50000   0.74995   0.00000  Uiso   1.00
C912   C     0.57923   0.50000   0.75005   0.00000  Uiso   1.00
C913   C     0.49994   0.50003   0.66505   0.00000  Uiso   1.00
C914   C     0.50006   0.50003   0.83495   0.00000  Uiso   1.00
C915   C     0.47364   0.35800   0.72232   0.00000  Uiso   1.00
C916   C     0.52619   0.64196   0.77787   0.00000  Uiso   1.00
C917   C     0.52636   0.35800   0.77768   0.00000  Uiso   1.00
C918   C     0.47381   0.64195   0.72213   0.00000  Uiso   1.00
C919   C     0.35463   0.45781   0.75001   0.00000  Uiso   1.00
C920   C     0.64537   0.54221   0.75000   0.00000  Uiso   1.00
C921   C     0.64537   0.45781   0.74999   0.00000  Uiso   1.00
C922   C     0.35463   0.54221   0.75000   0.00000  Uiso   1.00
C923   C     0.51961   0.53647   0.54836   0.00000  Uiso   1.00
C924   C     0.52022   0.46438   0.95359   0.00000  Uiso   1.00
C925   C     0.48069   0.53667   0.95167   0.00000  Uiso   1.00
C926   C     0.47950   0.46459   0.54642   0.00000  Uiso   1.00
C927   C     0.51825   0.53691   0.59444   0.00000  Uiso   1.00
C928   C     0.51849   0.46361   0.90717   0.00000  Uiso   1.00
C929   C     0.48205   0.53709   0.90559   0.00000  Uiso   1.00
C930   C     0.48122   0.46381   0.59283   0.00000  Uiso   1.00
C931   C     0.49983   0.50022   0.61676   0.00000  Uiso   1.00
C932   C     0.50018   0.50022   0.88325   0.00000  Uiso   1.00
C933   C     0.49980   0.50052   0.52429   0.00000  Uiso   1.00
C934   C     0.50021   0.50052   0.97573   0.00000  Uiso   1.00
C935   C     0.62389   0.50001   0.75002   0.00000  Uiso   1.00
C936   C     0.37611   0.50001   0.74998   0.00000  Uiso   1.00
Cu937  Cu    0.50000   0.54689   0.75000   0.00000  Uiso   1.00
Cu938  Cu    0.50000   0.45311   0.75000   0.00000  Uiso   1.00
H939   H     0.53270   0.56526   0.61273   0.00000  Uiso   1.00
H940   H     0.53186   0.43483   0.88979   0.00000  Uiso   1.00
H941   H     0.46783   0.56560   0.88732   0.00000  Uiso   1.00
H942   H     0.46760   0.43517   0.61020   0.00000  Uiso   1.00
H943   H     0.37061   0.42480   0.75007   0.00000  Uiso   1.00
H944   H     0.62938   0.57522   0.74996   0.00000  Uiso   1.00
H945   H     0.62939   0.42480   0.74993   0.00000  Uiso   1.00
H946   H     0.37062   0.57522   0.75003   0.00000  Uiso   1.00
N947   N     0.50000   0.61736   0.75000   0.00000  Uiso   1.00
N948   N     0.50000   0.38264   0.75000   0.00000  Uiso   1.00
O949   O     0.43988   0.53958   0.74999   0.00000  Uiso   1.00
O950   O     0.56012   0.46042   0.75000   0.00000  Uiso   1.00
O951   O     0.56012   0.53958   0.75000   0.00000  Uiso   1.00
O952   O     0.43988   0.46042   0.74999   0.00000  Uiso   1.00
O953   O     0.50000   0.53959   0.68573   0.00000  Uiso   1.00
O954   O     0.50000   0.46041   0.81427   0.00000  Uiso   1.00
O955   O     0.50000   0.53959   0.81427   0.00000  Uiso   1.00
O956   O     0.50000   0.46041   0.68573   0.00000  Uiso   1.00
Cl957  Cl    0.43862   0.38711   0.68621   0.00000  Uiso   1.00
Cl958  Cl    0.56036   0.61271   0.81490   0.00000  Uiso   1.00
Cl959  Cl    0.56138   0.38711   0.81379   0.00000  Uiso   1.00
Cl960  Cl    0.43964   0.61271   0.68510   0.00000  Uiso   1.00
O961   O     0.53874   0.57237   0.52669   0.00000  Uiso   1.00
C962   C     0.58132   0.56298   0.52645   0.00000  Uiso   1.00
H963   H     0.58764   0.52955   0.50945   0.00000  Uiso   1.00
H964   H     0.59523   0.56277   0.56063   0.00000  Uiso   1.00
H965   H     0.59655   0.59095   0.50778   0.00000  Uiso   1.00
O966   O     0.53875   0.42881   0.97811   0.00000  Uiso   1.00
C967   C     0.57992   0.42244   0.96583   0.00000  Uiso   1.00
H968   H     0.59637   0.45600   0.96132   0.00000  Uiso   1.00
H969   H     0.58125   0.40085   0.93546   0.00000  Uiso   1.00
H970   H     0.59663   0.40331   0.99277   0.00000  Uiso   1.00
O971   O     0.46187   0.57277   0.97336   0.00000  Uiso   1.00
C972   C     0.41920   0.56388   0.97353   0.00000  Uiso   1.00
H973   H     0.41256   0.53050   0.99046   0.00000  Uiso   1.00
H974   H     0.40533   0.56389   0.93934   0.00000  Uiso   1.00
H975   H     0.40421   0.59199   0.99224   0.00000  Uiso   1.00
O976   O     0.46067   0.42922   0.52188   0.00000  Uiso   1.00
C977   C     0.41943   0.42336   0.53411   0.00000  Uiso   1.00
H978   H     0.40329   0.45711   0.53855   0.00000  Uiso   1.00
H979   H     0.41786   0.40184   0.56451   0.00000  Uiso   1.00
H980   H     0.40258   0.40436   0.50718   0.00000  Uiso   1.00
C981   C     0.75410   0.50000   0.74995   0.00000  Uiso   1.00
C982   C     0.91257   0.50000   0.75005   0.00000  Uiso   1.00
C983   C     0.83328   0.50003   0.66505   0.00000  Uiso   1.00
C984   C     0.83339   0.50003   0.83495   0.00000  Uiso   1.00
C985   C     0.80697   0.35800   0.72232   0.00000  Uiso   1.00
C986   C     0.85952   0.64196   0.77787   0.00000  Uiso   1.00
C987   C     0.85969   0.35800   0.77768   0.00000  Uiso   1.00
C988   C     0.80714   0.64195   0.72213   0.00000  Uiso   1.00
C989   C     0.68796   0.45781   0.75001   0.00000  Uiso   1.00
C990   C     0.97870   0.54221   0.75000   0.00000  Uiso   1.00
C991   C     0.97871   0.45781   0.74999   0.00000  Uiso   1.00
C992   C     0.68796   0.54221   0.75000   0.00000  Uiso   1.00
C993   C     0.85295   0.53647   0.54836   0.00000  Uiso   1.00
C994   C     0.85355   0.46438   0.95359   0.00000  Uiso   1.00
C995   C     0.81402   0.53667   0.95167   0.00000  Uiso   1.00
C996   C     0.81283   0.46459   0.54642   0.00000  Uiso   1.00
C997   C     0.85159   0.53691   0.59444   0.00000  Uiso   1.00
C998   C     0.85182   0.46361   0.90717   0.00000  Uiso   1.00
C999   C     0.81538   0.53709   0.90559   0.00000  Uiso   1.00
C1000  C     0.81455   0.46381   0.59283   0.00000  Uiso   1.00
C1001  C     0.83316   0.50022   0.61676   0.00000  Uiso   1.00
C1002  C     0.83351   0.50022   0.88325   0.00000  Uiso   1.00
C1003  C     0.83314   0.50052   0.52429   0.00000  Uiso   1.00
C1004  C     0.83354   0.50052   0.97573   0.00000  Uiso   1.00
C1005  C     0.95722   0.50001   0.75002   0.00000  Uiso   1.00
C1006  C     0.70944   0.50001   0.74998   0.00000  Uiso   1.00
Cu1007 Cu    0.83333   0.54689   0.75000   0.00000  Uiso   1.00
Cu1008 Cu    0.83333   0.45311   0.75000   0.00000  Uiso   1.00
H1009  H     0.86603   0.56526   0.61273   0.00000  Uiso   1.00
H1010  H     0.86519   0.43483   0.88979   0.00000  Uiso   1.00
H1011  H     0.80117   0.56560   0.88732   0.00000  Uiso   1.00
H1012  H     0.80094   0.43517   0.61020   0.00000  Uiso   1.00
H1013  H     0.70394   0.42480   0.75007   0.00000  Uiso   1.00
H1014  H     0.96272   0.57522   0.74996   0.00000  Uiso   1.00
H1015  H     0.96272   0.42480   0.74993   0.00000  Uiso   1.00
H1016  H     0.70395   0.57522   0.75003   0.00000  Uiso   1.00
N1017  N     0.83333   0.61736   0.75000   0.00000  Uiso   1.00
N1018  N     0.83333   0.38264   0.75000   0.00000  Uiso   1.00
O1019  O     0.77321   0.53958   0.74999   0.00000  Uiso   1.00
O1020  O     0.89345   0.46042   0.75000   0.00000  Uiso   1.00
O1021  O     0.89345   0.53958   0.75000   0.00000  Uiso   1.00
O1022  O     0.77321   0.46042   0.74999   0.00000  Uiso   1.00
O1023  O     0.83333   0.53959   0.68573   0.00000  Uiso   1.00
O1024  O     0.83334   0.46041   0.81427   0.00000  Uiso   1.00
O1025  O     0.83334   0.53959   0.81427   0.00000  Uiso   1.00
O1026  O     0.83333   0.46041   0.68573   0.00000  Uiso   1.00
Cl1027 Cl    0.77195   0.38711   0.68621   0.00000  Uiso   1.00
Cl1028 Cl    0.89369   0.61271   0.81490   0.00000  Uiso   1.00
Cl1029 Cl    0.89471   0.38711   0.81379   0.00000  Uiso   1.00
Cl1030 Cl    0.77298   0.61271   0.68510   0.00000  Uiso   1.00
O1031  O     0.87207   0.57237   0.52669   0.00000  Uiso   1.00
C1032  C     0.91466   0.56298   0.52645   0.00000  Uiso   1.00
H1033  H     0.92097   0.52955   0.50945   0.00000  Uiso   1.00
H1034  H     0.92856   0.56277   0.56063   0.00000  Uiso   1.00
H1035  H     0.92988   0.59095   0.50778   0.00000  Uiso   1.00
O1036  O     0.87208   0.42881   0.97811   0.00000  Uiso   1.00
C1037  C     0.91326   0.42244   0.96583   0.00000  Uiso   1.00
H1038  H     0.92970   0.45600   0.96132   0.00000  Uiso   1.00
H1039  H     0.91459   0.40085   0.93546   0.00000  Uiso   1.00
H1040  H     0.92996   0.40331   0.99277   0.00000  Uiso   1.00
O1041  O     0.79520   0.57277   0.97336   0.00000  Uiso   1.00
C1042  C     0.75253   0.56388   0.97353   0.00000  Uiso   1.00
H1043  H     0.74589   0.53050   0.99046   0.00000  Uiso   1.00
H1044  H     0.73866   0.56389   0.93934   0.00000  Uiso   1.00
H1045  H     0.73755   0.59199   0.99224   0.00000  Uiso   1.00
O1046  O     0.79401   0.42922   0.52188   0.00000  Uiso   1.00
C1047  C     0.75276   0.42336   0.53411   0.00000  Uiso   1.00
H1048  H     0.73662   0.45711   0.53855   0.00000  Uiso   1.00
H1049  H     0.75119   0.40184   0.56451   0.00000  Uiso   1.00
H1050  H     0.73592   0.40436   0.50718   0.00000  Uiso   1.00
C1051  C     0.08743   0.83333   0.74995   0.00000  Uiso   1.00
C1052  C     0.24590   0.83333   0.75005   0.00000  Uiso   1.00
C1053  C     0.16661   0.83336   0.66505   0.00000  Uiso   1.00
C1054  C     0.16672   0.83336   0.83495   0.00000  Uiso   1.00
C1055  C     0.14031   0.69133   0.72232   0.00000  Uiso   1.00
C1056  C     0.19286   0.97529   0.77787   0.00000  Uiso   1.00
C1057  C     0.19303   0.69133   0.77768   0.00000  Uiso   1.00
C1058  C     0.14048   0.97529   0.72213   0.00000  Uiso   1.00
C1059  C     0.02129   0.79114   0.75001   0.00000  Uiso   1.00
C1060  C     0.31204   0.87554   0.75000   0.00000  Uiso   1.00
C1061  C     0.31204   0.79114   0.74999   0.00000  Uiso   1.00
C1062  C     0.02129   0.87554   0.75000   0.00000  Uiso   1.00
C1063  C     0.18628   0.86981   0.54836   0.00000  Uiso   1.00
C1064  C     0.18689   0.79771   0.95359   0.00000  Uiso   1.00
C1065  C     0.14736   0.87001   0.95167   0.00000  Uiso   1.00
C1066  C     0.14616   0.79793   0.54642   0.00000  Uiso   1.00
C1067  C     0.18492   0.87024   0.59444   0.00000  Uiso   1.00
C1068  C     0.18515   0.79695   0.90717   0.00000  Uiso   1.00
C1069  C     0.14872   0.87042   0.90559   0.00000  Uiso   1.00
C1070  C     0.14789   0.79714   0.59283   0.00000  Uiso   1.00
C1071  C     0.16649   0.83355   0.61676   0.00000  Uiso   1.00
C1072  C     0.16684   0.83355   0.88325   0.00000  Uiso   1.00
C1073  C     0.16647   0.83385   0.52429   0.00000  Uiso   1.00
C1074  C     0.16688   0.83385   0.97573   0.00000  Uiso   1.00
C1075  C     0.29056   0.83334   0.75002   0.00000  Uiso   1.00
C1076  C     0.04278   0.83334   0.74998   0.00000  Uiso   1.00
Cu1077 Cu    0.16667   0.88022   0.75000   0.00000  Uiso   1.00
Cu1078 Cu    0.16667   0.78645   0.75000   0.00000  Uiso   1.00
H1079  H     0.19936   0.89860   0.61273   0.00000  Uiso   1.00
H1080  H     0.19853   0.76817   0.88979   0.00000  Uiso   1.00
H1081  H     0.13450   0.89893   0.88732   0.00000  Uiso   1.00
H1082  H     0.13427   0.76851   0.61020   0.00000  Uiso   1.00
H1083  H     0.03728   0.75813   0.75007   0.00000  Uiso   1.00
H1084  H     0.29605   0.90855   0.74996   0.00000  Uiso   1.00
H1085  H     0.29606   0.75813   0.74993   0.00000  Uiso   1.00
H1086  H     0.03728   0.90855   0.75003   0.00000  Uiso   1.00
N1087  N     0.16667   0.95069   0.75000   0.00000  Uiso   1.00
N1088  N     0.16667   0.71598   0.75000   0.00000  Uiso   1.00
O1089  O     0.10655   0.87291   0.74999   0.00000  Uiso   1.00
O1090  O     0.22679   0.79375   0.75000   0.00000  Uiso   1.00
O1091  O     0.22679   0.87291   0.75000   0.00000  Uiso   1.00
O1092  O     0.10655   0.79375   0.74999   0.00000  Uiso   1.00
O1093  O     0.16666   0.87293   0.68573   0.00000  Uiso   1.00
O1094  O     0.16667   0.79374   0.81427   0.00000  Uiso   1.00
O1095  O     0.16667   0.87293   0.81427   0.00000  Uiso   1.00
O1096  O     0.16666   0.79374   0.68573   0.00000  Uiso   1.00
Cl1097 Cl    0.10529   0.72044   0.68621   0.00000  Uiso   1.00
Cl1098 Cl    0.22702   0.94604   0.81490   0.00000  Uiso   1.00
Cl1099 Cl    0.22805   0.72044   0.81379   0.00000  Uiso   1.00
Cl1100 Cl    0.10631   0.94604   0.68510   0.00000  Uiso   1.00
O1101  O     0.20541   0.90571   0.52669   0.00000  Uiso   1.00
C1102  C     0.24799   0.89632   0.52645   0.00000  Uiso   1.00
H1103  H     0.25431   0.86288   0.50945   0.00000  Uiso   1.00
H1104  H     0.26189   0.89610   0.56063   0.00000  Uiso   1.00
H1105  H     0.26322   0.92428   0.50778   0.00000  Uiso   1.00
O1106  O     0.20542   0.76214   0.97811   0.00000  Uiso   1.00
C1107  C     0.24659   0.75578   0.96583   0.00000  Uiso   1.00
H1108  H     0.26303   0.78933   0.96132   0.00000  Uiso   1.00
H1109  H     0.24792   0.73419   0.93546   0.00000  Uiso   1.00
H1110  H     0.26329   0.73664   0.99277   0.00000  Uiso   1.00
O1111  O     0.12854   0.90611   0.97336   0.00000  Uiso   1.00
C1112  C     0.08587   0.89722   0.97353   0.00000  Uiso   1.00
H1113  H     0.07923   0.86383   0.99046   0.00000  Uiso   1.00
H1114  H     0.07199   0.89722   0.93934   0.00000  Uiso   1.00
H1115  H     0.07088   0.92533   0.99224   0.00000  Uiso   1.00
O1116  O     0.12734   0.76255   0.52188   0.00000  Uiso   1.00
C1117  C     0.08609   0.75669   0.53411   0.00000  Uiso   1.00
H1118  H     0.06995   0.79045   0.53855   0.00000  Uiso   1.00
H1119  H     0.08452   0.73517   0.56451   0.00000  Uiso   1.00
H1120  H     0.06925   0.73770   0.50718   0.00000  Uiso   1.00
C1121  C     0.42077   0.83333   0.74995   0.00000  Uiso   1.00
C1122  C     0.57923   0.83333   0.75005   0.00000  Uiso   1.00
C1123  C     0.49994   0.83336   0.66505   0.00000  Uiso   1.00
C1124  C     0.50006   0.83336   0.83495   0.00000  Uiso   1.00
C1125  C     0.47364   0.69133   0.72232   0.00000  Uiso   1.00
C1126  C     0.52619   0.97529   0.77787   0.00000  Uiso   1.00
C1127  C     0.52636   0.69133   0.77768   0.00000  Uiso   1.00
C1128  C     0.47381   0.97529   0.72213   0.00000  Uiso   1.00
C1129  C     0.35463   0.79114   0.75001   0.00000  Uiso   1.00
C1130  C     0.64537   0.87554   0.75000   0.00000  Uiso   1.00
C1131  C     0.64537   0.79114   0.74999   0.00000  Uiso   1.00
C1132  C     0.35463   0.87554   0.75000   0.00000  Uiso   1.00
C1133  C     0.51961   0.86981   0.54836   0.00000  Uiso   1.00
C1134  C     0.52022   0.79771   0.95359   0.00000  Uiso   1.00
C1135  C     0.48069   0.87001   0.95167   0.00000  Uiso   1.00
C1136  C     0.47950   0.79793   0.54642   0.00000  Uiso   1.00
C1137  C     0.51825   0.87024   0.59444   0.00000  Uiso   1.00
C1138  C     0.51849   0.79695   0.90717   0.00000  Uiso   1.00
C1139  C     0.48205   0.87042   0.90559   0.00000  Uiso   1.00
C1140  C     0.48122   0.79714   0.59283   0.00000  Uiso   1.00
C1141  C     0.49983   0.83355   0.61676   0.00000  Uiso   1.00
C1142  C     0.50018   0.83355   0.88325   0.00000  Uiso   1.00
C1143  C     0.49980   0.83385   0.52429   0.00000  Uiso   1.00
C1144  C     0.50021   0.83385   0.97573   0.00000  Uiso   1.00
C1145  C     0.62389   0.83334   0.75002   0.00000  Uiso   1.00
C1146  C     0.37611   0.83334   0.74998   0.00000  Uiso   1.00
Cu1147 Cu    0.50000   0.88022   0.75000   0.00000  Uiso   1.00
Cu1148 Cu    0.50000   0.78645   0.75000   0.00000  Uiso   1.00
H1149  H     0.53270   0.89860   0.61273   0.00000  Uiso   1.00
H1150  H     0.53186   0.76817   0.88979   0.00000  Uiso   1.00
H1151  H     0.46783   0.89893   0.88732   0.00000  Uiso   1.00
H1152  H     0.46760   0.76851   0.61020   0.00000  Uiso   1.00
H1153  H     0.37061   0.75813   0.75007   0.00000  Uiso   1.00
H1154  H     0.62938   0.90855   0.74996   0.00000  Uiso   1.00
H1155  H     0.62939   0.75813   0.74993   0.00000  Uiso   1.00
H1156  H     0.37062   0.90855   0.75003   0.00000  Uiso   1.00
N1157  N     0.50000   0.95069   0.75000   0.00000  Uiso   1.00
N1158  N     0.50000   0.71598   0.75000   0.00000  Uiso   1.00
O1159  O     0.43988   0.87291   0.74999   0.00000  Uiso   1.00
O1160  O     0.56012   0.79375   0.75000   0.00000  Uiso   1.00
O1161  O     0.56012   0.87291   0.75000   0.00000  Uiso   1.00
O1162  O     0.43988   0.79375   0.74999   0.00000  Uiso   1.00
O1163  O     0.50000   0.87293   0.68573   0.00000  Uiso   1.00
O1164  O     0.50000   0.79374   0.81427   0.00000  Uiso   1.00
O1165  O     0.50000   0.87293   0.81427   0.00000  Uiso   1.00
O1166  O     0.50000   0.79374   0.68573   0.00000  Uiso   1.00
Cl1167 Cl    0.43862   0.72044   0.68621   0.00000  Uiso   1.00
Cl1168 Cl    0.56036   0.94604   0.81490   0.00000  Uiso   1.00
Cl1169 Cl    0.56138   0.72044   0.81379   0.00000  Uiso   1.00
Cl1170 Cl    0.43964   0.94604   0.68510   0.00000  Uiso   1.00
O1171  O     0.53874   0.90571   0.52669   0.00000  Uiso   1.00
C1172  C     0.58132   0.89632   0.52645   0.00000  Uiso   1.00
H1173  H     0.58764   0.86288   0.50945   0.00000  Uiso   1.00
H1174  H     0.59523   0.89610   0.56063   0.00000  Uiso   1.00
H1175  H     0.59655   0.92428   0.50778   0.00000  Uiso   1.00
O1176  O     0.53875   0.76214   0.97811   0.00000  Uiso   1.00
C1177  C     0.57992   0.75578   0.96583   0.00000  Uiso   1.00
H1178  H     0.59637   0.78933   0.96132   0.00000  Uiso   1.00
H1179  H     0.58125   0.73419   0.93546   0.00000  Uiso   1.00
H1180  H     0.59663   0.73664   0.99277   0.00000  Uiso   1.00
O1181  O     0.46187   0.90611   0.97336   0.00000  Uiso   1.00
C1182  C     0.41920   0.89722   0.97353   0.00000  Uiso   1.00
H1183  H     0.41256   0.86383   0.99046   0.00000  Uiso   1.00
H1184  H     0.40533   0.89722   0.93934   0.00000  Uiso   1.00
H1185  H     0.40421   0.92533   0.99224   0.00000  Uiso   1.00
O1186  O     0.46067   0.76255   0.52188   0.00000  Uiso   1.00
C1187  C     0.41943   0.75669   0.53411   0.00000  Uiso   1.00
H1188  H     0.40329   0.79045   0.53855   0.00000  Uiso   1.00
H1189  H     0.41786   0.73517   0.56451   0.00000  Uiso   1.00
H1190  H     0.40258   0.73770   0.50718   0.00000  Uiso   1.00
C1191  C     0.75410   0.83333   0.74995   0.00000  Uiso   1.00
C1192  C     0.91257   0.83333   0.75005   0.00000  Uiso   1.00
C1193  C     0.83328   0.83336   0.66505   0.00000  Uiso   1.00
C1194  C     0.83339   0.83336   0.83495   0.00000  Uiso   1.00
C1195  C     0.80697   0.69133   0.72232   0.00000  Uiso   1.00
C1196  C     0.85952   0.97529   0.77787   0.00000  Uiso   1.00
C1197  C     0.85969   0.69133   0.77768   0.00000  Uiso   1.00
C1198  C     0.80714   0.97529   0.72213   0.00000  Uiso   1.00
C1199  C     0.68796   0.79114   0.75001   0.00000  Uiso   1.00
C1200  C     0.97870   0.87554   0.75000   0.00000  Uiso   1.00
C1201  C     0.97871   0.79114   0.74999   0.00000  Uiso   1.00
C1202  C     0.68796   0.87554   0.75000   0.00000  Uiso   1.00
C1203  C     0.85295   0.86981   0.54836   0.00000  Uiso   1.00
C1204  C     0.85355   0.79771   0.95359   0.00000  Uiso   1.00
C1205  C     0.81402   0.87001   0.95167   0.00000  Uiso   1.00
C1206  C     0.81283   0.79793   0.54642   0.00000  Uiso   1.00
C1207  C     0.85159   0.87024   0.59444   0.00000  Uiso   1.00
C1208  C     0.85182   0.79695   0.90717   0.00000  Uiso   1.00
C1209  C     0.81538   0.87042   0.90559   0.00000  Uiso   1.00
C1210  C     0.81455   0.79714   0.59283   0.00000  Uiso   1.00
C1211  C     0.83316   0.83355   0.61676   0.00000  Uiso   1.00
C1212  C     0.83351   0.83355   0.88325   0.00000  Uiso   1.00
C1213  C     0.83314   0.83385   0.52429   0.00000  Uiso   1.00
C1214  C     0.83354   0.83385   0.97573   0.00000  Uiso   1.00
C1215  C     0.95722   0.83334   0.75002   0.00000  Uiso   1.00
C1216  C     0.70944   0.83334   0.74998   0.00000  Uiso   1.00
Cu1217 Cu    0.83333   0.88022   0.75000   0.00000  Uiso   1.00
Cu1218 Cu    0.83333   0.78645   0.75000   0.00000  Uiso   1.00
H1219  H     0.86603   0.89860   0.61273   0.00000  Uiso   1.00
H1220  H     0.86519   0.76817   0.88979   0.00000  Uiso   1.00
H1221  H     0.80117   0.89893   0.88732   0.00000  Uiso   1.00
H1222  H     0.80094   0.76851   0.61020   0.00000  Uiso   1.00
H1223  H     0.70394   0.75813   0.75007   0.00000  Uiso   1.00
H1224  H     0.96272   0.90855   0.74996   0.00000  Uiso   1.00
H1225  H     0.96272   0.75813   0.74993   0.00000  Uiso   1.00
H1226  H     0.70395   0.90855   0.75003   0.00000  Uiso   1.00
N1227  N     0.83333   0.95069   0.75000   0.00000  Uiso   1.00
N1228  N     0.83333   0.71598   0.75000   0.00000  Uiso   1.00
O1229  O     0.77321   0.87291   0.74999   0.00000  Uiso   1.00
O1230  O     0.89345   0.79375   0.75000   0.00000  Uiso   1.00
O1231  O     0.89345   0.87291   0.75000   0.00000  Uiso   1.00
O1232  O     0.77321   0.79375   0.74999   0.00000  Uiso   1.00
O1233  O     0.83333   0.87293   0.68573   0.00000  Uiso   1.00
O1234  O     0.83334   0.79374   0.81427   0.00000  Uiso   1.00
O1235  O     0.83334   0.87293   0.81427   0.00000  Uiso   1.00
O1236  O     0.83333   0.79374   0.68573   0.00000  Uiso   1.00
Cl1237 Cl    0.77195   0.72044   0.68621   0.00000  Uiso   1.00
Cl1238 Cl    0.89369   0.94604   0.81490   0.00000  Uiso   1.00
Cl1239 Cl    0.89471   0.72044   0.81379   0.00000  Uiso   1.00
Cl1240 Cl    0.77298   0.94604   0.68510   0.00000  Uiso   1.00
O1241  O     0.87207   0.90571   0.52669   0.00000  Uiso   1.00
C1242  C     0.91466   0.89632   0.52645   0.00000  Uiso   1.00
H1243  H     0.92097   0.86288   0.50945   0.00000  Uiso   1.00
H1244  H     0.92856   0.89610   0.56063   0.00000  Uiso   1.00
H1245  H     0.92988   0.92428   0.50778   0.00000  Uiso   1.00
O1246  O     0.87208   0.76214   0.97811   0.00000  Uiso   1.00
C1247  C     0.91326   0.75578   0.96583   0.00000  Uiso   1.00
H1248  H     0.92970   0.78933   0.96132   0.00000  Uiso   1.00
H1249  H     0.91459   0.73419   0.93546   0.00000  Uiso   1.00
H1250  H     0.92996   0.73664   0.99277   0.00000  Uiso   1.00
O1251  O     0.79520   0.90611   0.97336   0.00000  Uiso   1.00
C1252  C     0.75253   0.89722   0.97353   0.00000  Uiso   1.00
H1253  H     0.74589   0.86383   0.99046   0.00000  Uiso   1.00
H1254  H     0.73866   0.89722   0.93934   0.00000  Uiso   1.00
H1255  H     0.73755   0.92533   0.99224   0.00000  Uiso   1.00
O1256  O     0.79401   0.76255   0.52188   0.00000  Uiso   1.00
C1257  C     0.75276   0.75669   0.53411   0.00000  Uiso   1.00
H1258  H     0.73662   0.79045   0.53855   0.00000  Uiso   1.00
H1259  H     0.75119   0.73517   0.56451   0.00000  Uiso   1.00
H1260  H     0.73592   0.73770   0.50718   0.00000  Uiso   1.00
loop_
_geom_bond_atom_site_label_1
_geom_bond_atom_site_label_2
_geom_bond_distance
_geom_bond_site_symmetry_2
_ccdc_geom_bond_type
C1     C26     1.450   .     S
C1     O39     1.298   .     A
C1     O42     1.298   .     A
C2     C25     1.450   .     S
C2     O41     1.298   .     A
C2     O40     1.298   .     A
C3     O46     1.301   .     A
C3     O43     1.299   .     A
C3     C21     1.459   .     S
C4     C22     1.459   .     S
C4     O45     1.299   .     A
C4     O44     1.301   .     A
C5     N38     1.374   .     A
C5     Cl47    1.761   .     S
C5     C428    1.422   1_545 S
C6     N37     1.373   .     A
C6     Cl48    1.763   .     S
C6     C217    1.422   .     S
C7     N38     1.374   .     A
C7     Cl49    1.761   .     S
C7     C426    1.422   1_545 S
C8     Cl50    1.763   .     S
C8     N37     1.373   .     A
C8     C215    1.422   .     S
C9     H33     1.083   .     S
C9     C26     1.401   .     A
C9     C151    1.383   1_455 S
C10    H34     1.083   .     S
C10    C25     1.401   .     A
C10    C82     1.383   .     S
C11    H35     1.083   .     S
C11    C25     1.401   .     A
C11    C79     1.383   .     S
C12    H36     1.083   .     S
C12    C26     1.401   .     A
C12    C150    1.383   1_455 S
C13    C17     1.395   .     A
C13    O51     1.382   .     S
C13    C23     1.408   .     A
C14    O56     1.389   .     S
C14    C18     1.402   .     A
C14    C24     1.408   .     A
C15    O61     1.382   .     S
C15    C19     1.395   .     A
C15    C24     1.408   .     A
C16    C20     1.402   .     A
C16    C23     1.408   .     A
C16    O66     1.389   .     S
C17    H29     1.084   .     S
C17    C21     1.399   .     A
C18    H30     1.080   .     S
C18    C22     1.399   .     A
C19    H31     1.084   .     S
C19    C22     1.399   .     A
C20    C21     1.399   .     A
C20    H32     1.080   .     S
C23    C654    1.468   1_554 S
C24    C653    1.468   .     S
Cu27   O45     1.953   .     S
Cu27   O39     1.964   .     S
Cu27   Cu28    2.700   .     S
Cu27   O43     1.953   .     S
Cu27   N37     2.029   .     S
Cu27   O41     1.964   .     S
Cu28   O40     1.964   .     S
Cu28   O46     1.953   .     S
Cu28   O42     1.964   .     S
Cu28   N38     2.029   .     S
Cu28   O44     1.953   .     S
O51    C52     1.409   .     S
C52    H55     1.109   .     S
C52    H54     1.113   .     S
C52    H53     1.113   .     S
O56    C57     1.412   .     S
C57    H58     1.115   .     S
C57    H59     1.111   .     S
C57    H60     1.109   .     S
O61    C62     1.409   .     S
C62    H63     1.113   .     S
C62    H64     1.113   .     S
C62    H65     1.109   .     S
O66    C67     1.412   .     S
C67    H70     1.109   .     S
C67    H68     1.115   .     S
C67    H69     1.111   .     S
C71    C96     1.450   .     S
C71    O109    1.298   .     A
C71    O112    1.298   .     A
C72    C95     1.450   .     S
C72    O111    1.298   .     A
C72    O110    1.298   .     A
C73    O116    1.301   .     A
C73    O113    1.299   .     A
C73    C91     1.459   .     S
C74    C92     1.459   .     S
C74    O115    1.299   .     A
C74    O114    1.301   .     A
C75    N108    1.374   .     A
C75    Cl117   1.761   .     S
C75    C498    1.422   1_545 S
C76    N107    1.373   .     A
C76    Cl118   1.763   .     S
C76    C287    1.422   .     S
C77    N108    1.374   .     A
C77    Cl119   1.761   .     S
C77    C496    1.422   1_545 S
C78    Cl120   1.763   .     S
C78    N107    1.373   .     A
C78    C285    1.422   .     S
C79    H103    1.083   .     S
C79    C96     1.401   .     A
C80    H104    1.083   .     S
C80    C95     1.401   .     A
C80    C152    1.383   .     S
C81    H105    1.083   .     S
C81    C95     1.401   .     A
C81    C149    1.383   .     S
C82    H106    1.083   .     S
C82    C96     1.401   .     A
C83    C87     1.395   .     A
C83    O121    1.382   .     S
C83    C93     1.408   .     A
C84    O126    1.389   .     S
C84    C88     1.402   .     A
C84    C94     1.408   .     A
C85    O131    1.382   .     S
C85    C89     1.395   .     A
C85    C94     1.408   .     A
C86    C90     1.402   .     A
C86    C93     1.408   .     A
C86    O136    1.389   .     S
C87    H99     1.084   .     S
C87    C91     1.399   .     A
C88    H100    1.080   .     S
C88    C92     1.399   .     A
C89    H101    1.084   .     S
C89    C92     1.399   .     A
C90    C91     1.399   .     A
C90    H102    1.080   .     S
C93    C724    1.468   1_554 S
C94    C723    1.468   .     S
Cu97   O115    1.953   .     S
Cu97   O109    1.964   .     S
Cu97   Cu98    2.700   .     S
Cu97   O113    1.953   .     S
Cu97   N107    2.029   .     S
Cu97   O111    1.964   .     S
Cu98   O110    1.964   .     S
Cu98   O116    1.953   .     S
Cu98   O112    1.964   .     S
Cu98   N108    2.029   .     S
Cu98   O114    1.953   .     S
O121   C122    1.409   .     S
C122   H125    1.109   .     S
C122   H124    1.113   .     S
C122   H123    1.113   .     S
O126   C127    1.412   .     S
C127   H128    1.115   .     S
C127   H129    1.111   .     S
C127   H130    1.109   .     S
O131   C132    1.409   .     S
C132   H133    1.113   .     S
C132   H134    1.113   .     S
C132   H135    1.109   .     S
O136   C137    1.412   .     S
C137   H140    1.109   .     S
C137   H138    1.115   .     S
C137   H139    1.111   .     S
C141   C166    1.450   .     S
C141   O179    1.298   .     A
C141   O182    1.298   .     A
C142   C165    1.450   .     S
C142   O181    1.298   .     A
C142   O180    1.298   .     A
C143   O186    1.301   .     A
C143   O183    1.299   .     A
C143   C161    1.459   .     S
C144   C162    1.459   .     S
C144   O185    1.299   .     A
C144   O184    1.301   .     A
C145   N178    1.374   .     A
C145   Cl187   1.761   .     S
C145   C568    1.422   1_545 S
C146   N177    1.373   .     A
C146   Cl188   1.763   .     S
C146   C357    1.422   .     S
C147   N178    1.374   .     A
C147   Cl189   1.761   .     S
C147   C566    1.422   1_545 S
C148   Cl190   1.763   .     S
C148   N177    1.373   .     A
C148   C355    1.422   .     S
C149   H173    1.083   .     S
C149   C166    1.401   .     A
C150   H174    1.083   .     S
C150   C165    1.401   .     A
C150   C12     1.383   1_655 S
C151   H175    1.083   .     S
C151   C165    1.401   .     A
C151   C9      1.383   1_655 S
C152   H176    1.083   .     S
C152   C166    1.401   .     A
C153   C157    1.395   .     A
C153   O191    1.382   .     S
C153   C163    1.408   .     A
C154   O196    1.389   .     S
C154   C158    1.402   .     A
C154   C164    1.408   .     A
C155   O201    1.382   .     S
C155   C159    1.395   .     A
C155   C164    1.408   .     A
C156   C160    1.402   .     A
C156   C163    1.408   .     A
C156   O206    1.389   .     S
C157   H169    1.084   .     S
C157   C161    1.399   .     A
C158   H170    1.080   .     S
C158   C162    1.399   .     A
C159   H171    1.084   .     S
C159   C162    1.399   .     A
C160   C161    1.399   .     A
C160   H172    1.080   .     S
C163   C794    1.468   1_554 S
C164   C793    1.468   .     S
Cu167  O185    1.953   .     S
Cu167  O179    1.964   .     S
Cu167  Cu168   2.700   .     S
Cu167  O183    1.953   .     S
Cu167  N177    2.029   .     S
Cu167  O181    1.964   .     S
Cu168  O180    1.964   .     S
Cu168  O186    1.953   .     S
Cu168  O182    1.964   .     S
Cu168  N178    2.029   .     S
Cu168  O184    1.953   .     S
O191   C192    1.409   .     S
C192   H195    1.109   .     S
C192   H194    1.113   .     S
C192   H193    1.113   .     S
O196   C197    1.412   .     S
C197   H198    1.115   .     S
C197   H199    1.111   .     S
C197   H200    1.109   .     S
O201   C202    1.409   .     S
C202   H203    1.113   .     S
C202   H204    1.113   .     S
C202   H205    1.109   .     S
O206   C207    1.412   .     S
C207   H210    1.109   .     S
C207   H208    1.115   .     S
C207   H209    1.111   .     S
C211   C236    1.450   .     S
C211   O249    1.298   .     A
C211   O252    1.298   .     A
C212   C235    1.450   .     S
C212   O251    1.298   .     A
C212   O250    1.298   .     A
C213   O256    1.301   .     A
C213   O253    1.299   .     A
C213   C231    1.459   .     S
C214   C232    1.459   .     S
C214   O255    1.299   .     A
C214   O254    1.301   .     A
C215   N248    1.374   .     A
C215   Cl257   1.761   .     S
C216   N247    1.373   .     A
C216   Cl258   1.763   .     S
C216   C427    1.422   .     S
C217   N248    1.374   .     A
C217   Cl259   1.761   .     S
C218   Cl260   1.763   .     S
C218   N247    1.373   .     A
C218   C425    1.422   .     S
C219   H243    1.083   .     S
C219   C236    1.401   .     A
C219   C361    1.383   1_455 S
C220   H244    1.083   .     S
C220   C235    1.401   .     A
C220   C292    1.383   .     S
C221   H245    1.083   .     S
C221   C235    1.401   .     A
C221   C289    1.383   .     S
C222   H246    1.083   .     S
C222   C236    1.401   .     A
C222   C360    1.383   1_455 S
C223   C227    1.395   .     A
C223   O261    1.382   .     S
C223   C233    1.408   .     A
C224   O266    1.389   .     S
C224   C228    1.402   .     A
C224   C234    1.408   .     A
C225   O271    1.382   .     S
C225   C229    1.395   .     A
C225   C234    1.408   .     A
C226   C230    1.402   .     A
C226   C233    1.408   .     A
C226   O276    1.389   .     S
C227   H239    1.084   .     S
C227   C231    1.399   .     A
C228   H240    1.080   .     S
C228   C232    1.399   .     A
C229   H241    1.084   .     S
C229   C232    1.399   .     A
C230   C231    1.399   .     A
C230   H242    1.080   .     S
C233   C864    1.468   1_554 S
C234   C863    1.468   .     S
Cu237  O255    1.953   .     S
Cu237  O249    1.964   .     S
Cu237  Cu238   2.700   .     S
Cu237  O253    1.953   .     S
Cu237  N247    2.029   .     S
Cu237  O251    1.964   .     S
Cu238  O250    1.964   .     S
Cu238  O256    1.953   .     S
Cu238  O252    1.964   .     S
Cu238  N248    2.029   .     S
Cu238  O254    1.953   .     S
O261   C262    1.409   .     S
C262   H265    1.109   .     S
C262   H264    1.113   .     S
C262   H263    1.113   .     S
O266   C267    1.412   .     S
C267   H268    1.115   .     S
C267   H269    1.111   .     S
C267   H270    1.109   .     S
O271   C272    1.409   .     S
C272   H273    1.113   .     S
C272   H274    1.113   .     S
C272   H275    1.109   .     S
O276   C277    1.412   .     S
C277   H280    1.109   .     S
C277   H278    1.115   .     S
C277   H279    1.111   .     S
C281   C306    1.450   .     S
C281   O319    1.298   .     A
C281   O322    1.298   .     A
C282   C305    1.450   .     S
C282   O321    1.298   .     A
C282   O320    1.298   .     A
C283   O326    1.301   .     A
C283   O323    1.299   .     A
C283   C301    1.459   .     S
C284   C302    1.459   .     S
C284   O325    1.299   .     A
C284   O324    1.301   .     A
C285   N318    1.374   .     A
C285   Cl327   1.761   .     S
C286   N317    1.373   .     A
C286   Cl328   1.763   .     S
C286   C497    1.422   .     S
C287   N318    1.374   .     A
C287   Cl329   1.761   .     S
C288   Cl330   1.763   .     S
C288   N317    1.373   .     A
C288   C495    1.422   .     S
C289   H313    1.083   .     S
C289   C306    1.401   .     A
C290   H314    1.083   .     S
C290   C305    1.401   .     A
C290   C362    1.383   .     S
C291   H315    1.083   .     S
C291   C305    1.401   .     A
C291   C359    1.383   .     S
C292   H316    1.083   .     S
C292   C306    1.401   .     A
C293   C297    1.395   .     A
C293   O331    1.382   .     S
C293   C303    1.408   .     A
C294   O336    1.389   .     S
C294   C298    1.402   .     A
C294   C304    1.408   .     A
C295   O341    1.382   .     S
C295   C299    1.395   .     A
C295   C304    1.408   .     A
C296   C300    1.402   .     A
C296   C303    1.408   .     A
C296   O346    1.389   .     S
C297   H309    1.084   .     S
C297   C301    1.399   .     A
C298   H310    1.080   .     S
C298   C302    1.399   .     A
C299   H311    1.084   .     S
C299   C302    1.399   .     A
C300   C301    1.399   .     A
C300   H312    1.080   .     S
C303   C934    1.468   1_554 S
C304   C933    1.468   .     S
Cu307  O325    1.953   .     S
Cu307  O319    1.964   .     S
Cu307  Cu308   2.700   .     S
Cu307  O323    1.953   .     S
Cu307  N317    2.029   .     S
Cu307  O321    1.964   .     S
Cu308  O320    1.964   .     S
Cu308  O326    1.953   .     S
Cu308  O322    1.964   .     S
Cu308  N318    2.029   .     S
Cu308  O324    1.953   .     S
O331   C332    1.409   .     S
C332   H335    1.109   .     S
C332   H334    1.113   .     S
C332   H333    1.113   .     S
O336   C337    1.412   .     S
C337   H338    1.115   .     S
C337   H339    1.111   .     S
C337   H340    1.109   .     S
O341   C342    1.409   .     S
C342   H343    1.113   .     S
C342   H344    1.113   .     S
C342   H345    1.109   .     S
O346   C347    1.412   .     S
C347   H350    1.109   .     S
C347   H348    1.115   .     S
C347   H349    1.111   .     S
C351   C376    1.450   .     S
C351   O389    1.298   .     A
C351   O392    1.298   .     A
C352   C375    1.450   .     S
C352   O391    1.298   .     A
C352   O390    1.298   .     A
C353   O396    1.301   .     A
C353   O393    1.299   .     A
C353   C371    1.459   .     S
C354   C372    1.459   .     S
C354   O395    1.299   .     A
C354   O394    1.301   .     A
C355   N388    1.374   .     A
C355   Cl397   1.761   .     S
C356   N387    1.373   .     A
C356   Cl398   1.763   .     S
C356   C567    1.422   .     S
C357   N388    1.374   .     A
C357   Cl399   1.761   .     S
C358   Cl400   1.763   .     S
C358   N387    1.373   .     A
C358   C565    1.422   .     S
C359   H383    1.083   .     S
C359   C376    1.401   .     A
C360   H384    1.083   .     S
C360   C375    1.401   .     A
C360   C222    1.383   1_655 S
C361   H385    1.083   .     S
C361   C375    1.401   .     A
C361   C219    1.383   1_655 S
C362   H386    1.083   .     S
C362   C376    1.401   .     A
C363   C367    1.395   .     A
C363   O401    1.382   .     S
C363   C373    1.408   .     A
C364   O406    1.389   .     S
C364   C368    1.402   .     A
C364   C374    1.408   .     A
C365   O411    1.382   .     S
C365   C369    1.395   .     A
C365   C374    1.408   .     A
C366   C370    1.402   .     A
C366   C373    1.408   .     A
C366   O416    1.389   .     S
C367   H379    1.084   .     S
C367   C371    1.399   .     A
C368   H380    1.080   .     S
C368   C372    1.399   .     A
C369   H381    1.084   .     S
C369   C372    1.399   .     A
C370   C371    1.399   .     A
C370   H382    1.080   .     S
C373   C1004   1.468   1_554 S
C374   C1003   1.468   .     S
Cu377  O395    1.953   .     S
Cu377  O389    1.964   .     S
Cu377  Cu378   2.700   .     S
Cu377  O393    1.953   .     S
Cu377  N387    2.029   .     S
Cu377  O391    1.964   .     S
Cu378  O390    1.964   .     S
Cu378  O396    1.953   .     S
Cu378  O392    1.964   .     S
Cu378  N388    2.029   .     S
Cu378  O394    1.953   .     S
O401   C402    1.409   .     S
C402   H405    1.109   .     S
C402   H404    1.113   .     S
C402   H403    1.113   .     S
O406   C407    1.412   .     S
C407   H408    1.115   .     S
C407   H409    1.111   .     S
C407   H410    1.109   .     S
O411   C412    1.409   .     S
C412   H413    1.113   .     S
C412   H414    1.113   .     S
C412   H415    1.109   .     S
O416   C417    1.412   .     S
C417   H420    1.109   .     S
C417   H418    1.115   .     S
C417   H419    1.111   .     S
C421   C446    1.450   .     S
C421   O459    1.298   .     A
C421   O462    1.298   .     A
C422   C445    1.450   .     S
C422   O461    1.298   .     A
C422   O460    1.298   .     A
C423   O466    1.301   .     A
C423   O463    1.299   .     A
C423   C441    1.459   .     S
C424   C442    1.459   .     S
C424   O465    1.299   .     A
C424   O464    1.301   .     A
C425   N458    1.374   .     A
C425   Cl467   1.761   .     S
C426   N457    1.373   .     A
C426   Cl468   1.763   .     S
C426   C7      1.422   1_565 S
C427   N458    1.374   .     A
C427   Cl469   1.761   .     S
C428   Cl470   1.763   .     S
C428   N457    1.373   .     A
C428   C5      1.422   1_565 S
C429   H453    1.083   .     S
C429   C446    1.401   .     A
C429   C571    1.383   1_455 S
C430   H454    1.083   .     S
C430   C445    1.401   .     A
C430   C502    1.383   .     S
C431   H455    1.083   .     S
C431   C445    1.401   .     A
C431   C499    1.383   .     S
C432   H456    1.083   .     S
C432   C446    1.401   .     A
C432   C570    1.383   1_455 S
C433   C437    1.395   .     A
C433   O471    1.382   .     S
C433   C443    1.408   .     A
C434   O476    1.389   .     S
C434   C438    1.402   .     A
C434   C444    1.408   .     A
C435   O481    1.382   .     S
C435   C439    1.395   .     A
C435   C444    1.408   .     A
C436   C440    1.402   .     A
C436   C443    1.408   .     A
C436   O486    1.389   .     S
C437   H449    1.084   .     S
C437   C441    1.399   .     A
C438   H450    1.080   .     S
C438   C442    1.399   .     A
C439   H451    1.084   .     S
C439   C442    1.399   .     A
C440   C441    1.399   .     A
C440   H452    1.080   .     S
C443   C1074   1.468   1_554 S
C444   C1073   1.468   .     S
Cu447  O465    1.953   .     S
Cu447  O459    1.964   .     S
Cu447  Cu448   2.700   .     S
Cu447  O463    1.953   .     S
Cu447  N457    2.029   .     S
Cu447  O461    1.964   .     S
Cu448  O460    1.964   .     S
Cu448  O466    1.953   .     S
Cu448  O462    1.964   .     S
Cu448  N458    2.029   .     S
Cu448  O464    1.953   .     S
O471   C472    1.409   .     S
C472   H475    1.109   .     S
C472   H474    1.113   .     S
C472   H473    1.113   .     S
O476   C477    1.412   .     S
C477   H478    1.115   .     S
C477   H479    1.111   .     S
C477   H480    1.109   .     S
O481   C482    1.409   .     S
C482   H483    1.113   .     S
C482   H484    1.113   .     S
C482   H485    1.109   .     S
O486   C487    1.412   .     S
C487   H490    1.109   .     S
C487   H488    1.115   .     S
C487   H489    1.111   .     S
C491   C516    1.450   .     S
C491   O529    1.298   .     A
C491   O532    1.298   .     A
C492   C515    1.450   .     S
C492   O531    1.298   .     A
C492   O530    1.298   .     A
C493   O536    1.301   .     A
C493   O533    1.299   .     A
C493   C511    1.459   .     S
C494   C512    1.459   .     S
C494   O535    1.299   .     A
C494   O534    1.301   .     A
C495   N528    1.374   .     A
C495   Cl537   1.761   .     S
C496   N527    1.373   .     A
C496   Cl538   1.763   .     S
C496   C77     1.422   1_565 S
C497   N528    1.374   .     A
C497   Cl539   1.761   .     S
C498   Cl540   1.763   .     S
C498   N527    1.373   .     A
C498   C75     1.422   1_565 S
C499   H523    1.083   .     S
C499   C516    1.401   .     A
C500   H524    1.083   .     S
C500   C515    1.401   .     A
C500   C572    1.383   .     S
C501   H525    1.083   .     S
C501   C515    1.401   .     A
C501   C569    1.383   .     S
C502   H526    1.083   .     S
C502   C516    1.401   .     A
C503   C507    1.395   .     A
C503   O541    1.382   .     S
C503   C513    1.408   .     A
C504   O546    1.389   .     S
C504   C508    1.402   .     A
C504   C514    1.408   .     A
C505   O551    1.382   .     S
C505   C509    1.395   .     A
C505   C514    1.408   .     A
C506   C510    1.402   .     A
C506   C513    1.408   .     A
C506   O556    1.389   .     S
C507   H519    1.084   .     S
C507   C511    1.399   .     A
C508   H520    1.080   .     S
C508   C512    1.399   .     A
C509   H521    1.084   .     S
C509   C512    1.399   .     A
C510   C511    1.399   .     A
C510   H522    1.080   .     S
C513   C1144   1.468   1_554 S
C514   C1143   1.468   .     S
Cu517  O535    1.953   .     S
Cu517  O529    1.964   .     S
Cu517  Cu518   2.700   .     S
Cu517  O533    1.953   .     S
Cu517  N527    2.029   .     S
Cu517  O531    1.964   .     S
Cu518  O530    1.964   .     S
Cu518  O536    1.953   .     S
Cu518  O532    1.964   .     S
Cu518  N528    2.029   .     S
Cu518  O534    1.953   .     S
O541   C542    1.409   .     S
C542   H545    1.109   .     S
C542   H544    1.113   .     S
C542   H543    1.113   .     S
O546   C547    1.412   .     S
C547   H548    1.115   .     S
C547   H549    1.111   .     S
C547   H550    1.109   .     S
O551   C552    1.409   .     S
C552   H553    1.113   .     S
C552   H554    1.113   .     S
C552   H555    1.109   .     S
O556   C557    1.412   .     S
C557   H560    1.109   .     S
C557   H558    1.115   .     S
C557   H559    1.111   .     S
C561   C586    1.450   .     S
C561   O599    1.298   .     A
C561   O602    1.298   .     A
C562   C585    1.450   .     S
C562   O601    1.298   .     A
C562   O600    1.298   .     A
C563   O606    1.301   .     A
C563   O603    1.299   .     A
C563   C581    1.459   .     S
C564   C582    1.459   .     S
C564   O605    1.299   .     A
C564   O604    1.301   .     A
C565   N598    1.374   .     A
C565   Cl607   1.761   .     S
C566   N597    1.373   .     A
C566   Cl608   1.763   .     S
C566   C147    1.422   1_565 S
C567   N598    1.374   .     A
C567   Cl609   1.761   .     S
C568   Cl610   1.763   .     S
C568   N597    1.373   .     A
C568   C145    1.422   1_565 S
C569   H593    1.083   .     S
C569   C586    1.401   .     A
C570   H594    1.083   .     S
C570   C585    1.401   .     A
C570   C432    1.383   1_655 S
C571   H595    1.083   .     S
C571   C585    1.401   .     A
C571   C429    1.383   1_655 S
C572   H596    1.083   .     S
C572   C586    1.401   .     A
C573   C577    1.395   .     A
C573   O611    1.382   .     S
C573   C583    1.408   .     A
C574   O616    1.389   .     S
C574   C578    1.402   .     A
C574   C584    1.408   .     A
C575   O621    1.382   .     S
C575   C579    1.395   .     A
C575   C584    1.408   .     A
C576   C580    1.402   .     A
C576   C583    1.408   .     A
C576   O626    1.389   .     S
C577   H589    1.084   .     S
C577   C581    1.399   .     A
C578   H590    1.080   .     S
C578   C582    1.399   .     A
C579   H591    1.084   .     S
C579   C582    1.399   .     A
C580   C581    1.399   .     A
C580   H592    1.080   .     S
C583   C1214   1.468   1_554 S
C584   C1213   1.468   .     S
Cu587  O605    1.953   .     S
Cu587  O599    1.964   .     S
Cu587  Cu588   2.700   .     S
Cu587  O603    1.953   .     S
Cu587  N597    2.029   .     S
Cu587  O601    1.964   .     S
Cu588  O600    1.964   .     S
Cu588  O606    1.953   .     S
Cu588  O602    1.964   .     S
Cu588  N598    2.029   .     S
Cu588  O604    1.953   .     S
O611   C612    1.409   .     S
C612   H615    1.109   .     S
C612   H614    1.113   .     S
C612   H613    1.113   .     S
O616   C617    1.412   .     S
C617   H618    1.115   .     S
C617   H619    1.111   .     S
C617   H620    1.109   .     S
O621   C622    1.409   .     S
C622   H623    1.113   .     S
C622   H624    1.113   .     S
C622   H625    1.109   .     S
O626   C627    1.412   .     S
C627   H630    1.109   .     S
C627   H628    1.115   .     S
C627   H629    1.111   .     S
C631   C656    1.450   .     S
C631   O669    1.298   .     A
C631   O672    1.298   .     A
C632   C655    1.450   .     S
C632   O671    1.298   .     A
C632   O670    1.298   .     A
C633   O676    1.301   .     A
C633   O673    1.299   .     A
C633   C651    1.459   .     S
C634   C652    1.459   .     S
C634   O675    1.299   .     A
C634   O674    1.301   .     A
C635   N668    1.374   .     A
C635   Cl677   1.761   .     S
C635   C1058   1.422   1_545 S
C636   N667    1.373   .     A
C636   Cl678   1.763   .     S
C636   C847    1.422   .     S
C637   N668    1.374   .     A
C637   Cl679   1.761   .     S
C637   C1056   1.422   1_545 S
C638   Cl680   1.763   .     S
C638   N667    1.373   .     A
C638   C845    1.422   .     S
C639   H663    1.083   .     S
C639   C656    1.401   .     A
C639   C781    1.383   1_455 S
C640   H664    1.083   .     S
C640   C655    1.401   .     A
C640   C712    1.383   .     S
C641   H665    1.083   .     S
C641   C655    1.401   .     A
C641   C709    1.383   .     S
C642   H666    1.083   .     S
C642   C656    1.401   .     A
C642   C780    1.383   1_455 S
C643   C647    1.395   .     A
C643   O681    1.382   .     S
C643   C653    1.408   .     A
C644   O686    1.389   .     S
C644   C648    1.402   .     A
C644   C654    1.408   .     A
C645   O691    1.382   .     S
C645   C649    1.395   .     A
C645   C654    1.408   .     A
C646   C650    1.402   .     A
C646   C653    1.408   .     A
C646   O696    1.389   .     S
C647   H659    1.084   .     S
C647   C651    1.399   .     A
C648   H660    1.080   .     S
C648   C652    1.399   .     A
C649   H661    1.084   .     S
C649   C652    1.399   .     A
C650   C651    1.399   .     A
C650   H662    1.080   .     S
C654   C23     1.468   1_556 S
Cu657  O675    1.953   .     S
Cu657  O669    1.964   .     S
Cu657  Cu658   2.700   .     S
Cu657  O673    1.953   .     S
Cu657  N667    2.029   .     S
Cu657  O671    1.964   .     S
Cu658  O670    1.964   .     S
Cu658  O676    1.953   .     S
Cu658  O672    1.964   .     S
Cu658  N668    2.029   .     S
Cu658  O674    1.953   .     S
O681   C682    1.409   .     S
C682   H685    1.109   .     S
C682   H684    1.113   .     S
C682   H683    1.113   .     S
O686   C687    1.412   .     S
C687   H688    1.115   .     S
C687   H689    1.111   .     S
C687   H690    1.109   .     S
O691   C692    1.409   .     S
C692   H693    1.113   .     S
C692   H694    1.113   .     S
C692   H695    1.109   .     S
O696   C697    1.412   .     S
C697   H700    1.109   .     S
C697   H698    1.115   .     S
C697   H699    1.111   .     S
C701   C726    1.450   .     S
C701   O739    1.298   .     A
C701   O742    1.298   .     A
C702   C725    1.450   .     S
C702   O741    1.298   .     A
C702   O740    1.298   .     A
C703   O746    1.301   .     A
C703   O743    1.299   .     A
C703   C721    1.459   .     S
C704   C722    1.459   .     S
C704   O745    1.299   .     A
C704   O744    1.301   .     A
C705   N738    1.374   .     A
C705   Cl747   1.761   .     S
C705   C1128   1.422   1_545 S
C706   N737    1.373   .     A
C706   Cl748   1.763   .     S
C706   C917    1.422   .     S
C707   N738    1.374   .     A
C707   Cl749   1.761   .     S
C707   C1126   1.422   1_545 S
C708   Cl750   1.763   .     S
C708   N737    1.373   .     A
C708   C915    1.422   .     S
C709   H733    1.083   .     S
C709   C726    1.401   .     A
C710   H734    1.083   .     S
C710   C725    1.401   .     A
C710   C782    1.383   .     S
C711   H735    1.083   .     S
C711   C725    1.401   .     A
C711   C779    1.383   .     S
C712   H736    1.083   .     S
C712   C726    1.401   .     A
C713   C717    1.395   .     A
C713   O751    1.382   .     S
C713   C723    1.408   .     A
C714   O756    1.389   .     S
C714   C718    1.402   .     A
C714   C724    1.408   .     A
C715   O761    1.382   .     S
C715   C719    1.395   .     A
C715   C724    1.408   .     A
C716   C720    1.402   .     A
C716   C723    1.408   .     A
C716   O766    1.389   .     S
C717   H729    1.084   .     S
C717   C721    1.399   .     A
C718   H730    1.080   .     S
C718   C722    1.399   .     A
C719   H731    1.084   .     S
C719   C722    1.399   .     A
C720   C721    1.399   .     A
C720   H732    1.080   .     S
C724   C93     1.468   1_556 S
Cu727  O745    1.953   .     S
Cu727  O739    1.964   .     S
Cu727  Cu728   2.700   .     S
Cu727  O743    1.953   .     S
Cu727  N737    2.029   .     S
Cu727  O741    1.964   .     S
Cu728  O740    1.964   .     S
Cu728  O746    1.953   .     S
Cu728  O742    1.964   .     S
Cu728  N738    2.029   .     S
Cu728  O744    1.953   .     S
O751   C752    1.409   .     S
C752   H755    1.109   .     S
C752   H754    1.113   .     S
C752   H753    1.113   .     S
O756   C757    1.412   .     S
C757   H758    1.115   .     S
C757   H759    1.111   .     S
C757   H760    1.109   .     S
O761   C762    1.409   .     S
C762   H763    1.113   .     S
C762   H764    1.113   .     S
C762   H765    1.109   .     S
O766   C767    1.412   .     S
C767   H770    1.109   .     S
C767   H768    1.115   .     S
C767   H769    1.111   .     S
C771   C796    1.450   .     S
C771   O809    1.298   .     A
C771   O812    1.298   .     A
C772   C795    1.450   .     S
C772   O811    1.298   .     A
C772   O810    1.298   .     A
C773   O816    1.301   .     A
C773   O813    1.299   .     A
C773   C791    1.459   .     S
C774   C792    1.459   .     S
C774   O815    1.299   .     A
C774   O814    1.301   .     A
C775   N808    1.374   .     A
C775   Cl817   1.761   .     S
C775   C1198   1.422   1_545 S
C776   N807    1.373   .     A
C776   Cl818   1.763   .     S
C776   C987    1.422   .     S
C777   N808    1.374   .     A
C777   Cl819   1.761   .     S
C777   C1196   1.422   1_545 S
C778   Cl820   1.763   .     S
C778   N807    1.373   .     A
C778   C985    1.422   .     S
C779   H803    1.083   .     S
C779   C796    1.401   .     A
C780   H804    1.083   .     S
C780   C795    1.401   .     A
C780   C642    1.383   1_655 S
C781   H805    1.083   .     S
C781   C795    1.401   .     A
C781   C639    1.383   1_655 S
C782   H806    1.083   .     S
C782   C796    1.401   .     A
C783   C787    1.395   .     A
C783   O821    1.382   .     S
C783   C793    1.408   .     A
C784   O826    1.389   .     S
C784   C788    1.402   .     A
C784   C794    1.408   .     A
C785   O831    1.382   .     S
C785   C789    1.395   .     A
C785   C794    1.408   .     A
C786   C790    1.402   .     A
C786   C793    1.408   .     A
C786   O836    1.389   .     S
C787   H799    1.084   .     S
C787   C791    1.399   .     A
C788   H800    1.080   .     S
C788   C792    1.399   .     A
C789   H801    1.084   .     S
C789   C792    1.399   .     A
C790   C791    1.399   .     A
C790   H802    1.080   .     S
C794   C163    1.468   1_556 S
Cu797  O815    1.953   .     S
Cu797  O809    1.964   .     S
Cu797  Cu798   2.700   .     S
Cu797  O813    1.953   .     S
Cu797  N807    2.029   .     S
Cu797  O811    1.964   .     S
Cu798  O810    1.964   .     S
Cu798  O816    1.953   .     S
Cu798  O812    1.964   .     S
Cu798  N808    2.029   .     S
Cu798  O814    1.953   .     S
O821   C822    1.409   .     S
C822   H825    1.109   .     S
C822   H824    1.113   .     S
C822   H823    1.113   .     S
O826   C827    1.412   .     S
C827   H828    1.115   .     S
C827   H829    1.111   .     S
C827   H830    1.109   .     S
O831   C832    1.409   .     S
C832   H833    1.113   .     S
C832   H834    1.113   .     S
C832   H835    1.109   .     S
O836   C837    1.412   .     S
C837   H840    1.109   .     S
C837   H838    1.115   .     S
C837   H839    1.111   .     S
C841   C866    1.450   .     S
C841   O879    1.298   .     A
C841   O882    1.298   .     A
C842   C865    1.450   .     S
C842   O881    1.298   .     A
C842   O880    1.298   .     A
C843   O886    1.301   .     A
C843   O883    1.299   .     A
C843   C861    1.459   .     S
C844   C862    1.459   .     S
C844   O885    1.299   .     A
C844   O884    1.301   .     A
C845   N878    1.374   .     A
C845   Cl887   1.761   .     S
C846   N877    1.373   .     A
C846   Cl888   1.763   .     S
C846   C1057   1.422   .     S
C847   N878    1.374   .     A
C847   Cl889   1.761   .     S
C848   Cl890   1.763   .     S
C848   N877    1.373   .     A
C848   C1055   1.422   .     S
C849   H873    1.083   .     S
C849   C866    1.401   .     A
C849   C991    1.383   1_455 S
C850   H874    1.083   .     S
C850   C865    1.401   .     A
C850   C922    1.383   .     S
C851   H875    1.083   .     S
C851   C865    1.401   .     A
C851   C919    1.383   .     S
C852   H876    1.083   .     S
C852   C866    1.401   .     A
C852   C990    1.383   1_455 S
C853   C857    1.395   .     A
C853   O891    1.382   .     S
C853   C863    1.408   .     A
C854   O896    1.389   .     S
C854   C858    1.402   .     A
C854   C864    1.408   .     A
C855   O901    1.382   .     S
C855   C859    1.395   .     A
C855   C864    1.408   .     A
C856   C860    1.402   .     A
C856   C863    1.408   .     A
C856   O906    1.389   .     S
C857   H869    1.084   .     S
C857   C861    1.399   .     A
C858   H870    1.080   .     S
C858   C862    1.399   .     A
C859   H871    1.084   .     S
C859   C862    1.399   .     A
C860   C861    1.399   .     A
C860   H872    1.080   .     S
C864   C233    1.468   1_556 S
Cu867  O885    1.953   .     S
Cu867  O879    1.964   .     S
Cu867  Cu868   2.700   .     S
Cu867  O883    1.953   .     S
Cu867  N877    2.029   .     S
Cu867  O881    1.964   .     S
Cu868  O880    1.964   .     S
Cu868  O886    1.953   .     S
Cu868  O882    1.964   .     S
Cu868  N878    2.029   .     S
Cu868  O884    1.953   .     S
O891   C892    1.409   .     S
C892   H895    1.109   .     S
C892   H894    1.113   .     S
C892   H893    1.113   .     S
O896   C897    1.412   .     S
C897   H898    1.115   .     S
C897   H899    1.111   .     S
C897   H900    1.109   .     S
O901   C902    1.409   .     S
C902   H903    1.113   .     S
C902   H904    1.113   .     S
C902   H905    1.109   .     S
O906   C907    1.412   .     S
C907   H910    1.109   .     S
C907   H908    1.115   .     S
C907   H909    1.111   .     S
C911   C936    1.450   .     S
C911   O949    1.298   .     A
C911   O952    1.298   .     A
C912   C935    1.450   .     S
C912   O951    1.298   .     A
C912   O950    1.298   .     A
C913   O956    1.301   .     A
C913   O953    1.299   .     A
C913   C931    1.459   .     S
C914   C932    1.459   .     S
C914   O955    1.299   .     A
C914   O954    1.301   .     A
C915   N948    1.374   .     A
C915   Cl957   1.761   .     S
C916   N947    1.373   .     A
C916   Cl958   1.763   .     S
C916   C1127   1.422   .     S
C917   N948    1.374   .     A
C917   Cl959   1.761   .     S
C918   Cl960   1.763   .     S
C918   N947    1.373   .     A
C918   C1125   1.422   .     S
C919   H943    1.083   .     S
C919   C936    1.401   .     A
C920   H944    1.083   .     S
C920   C935    1.401   .     A
C920   C992    1.383   .     S
C921   H945    1.083   .     S
C921   C935    1.401   .     A
C921   C989    1.383   .     S
C922   H946    1.083   .     S
C922   C936    1.401   .     A
C923   C927    1.395   .     A
C923   O961    1.382   .     S
C923   C933    1.408   .     A
C924   O966    1.389   .     S
C924   C928    1.402   .     A
C924   C934    1.408   .     A
C925   O971    1.382   .     S
C925   C929    1.395   .     A
C925   C934    1.408   .     A
C926   C930    1.402   .     A
C926   C933    1.408   .     A
C926   O976    1.389   .     S
C927   H939    1.084   .     S
C927   C931    1.399   .     A
C928   H940    1.080   .     S
C928   C932    1.399   .     A
C929   H941    1.084   .     S
C929   C932    1.399   .     A
C930   C931    1.399   .     A
C930   H942    1.080   .     S
C934   C303    1.468   1_556 S
Cu937  O955    1.953   .     S
Cu937  O949    1.964   .     S
Cu937  Cu938   2.700   .     S
Cu937  O953    1.953   .     S
Cu937  N947    2.029   .     S
Cu937  O951    1.964   .     S
Cu938  O950    1.964   .     S
Cu938  O956    1.953   .     S
Cu938  O952    1.964   .     S
Cu938  N948    2.029   .     S
Cu938  O954    1.953   .     S
O961   C962    1.409   .     S
C962   H965    1.109   .     S
C962   H964    1.113   .     S
C962   H963    1.113   .     S
O966   C967    1.412   .     S
C967   H968    1.115   .     S
C967   H969    1.111   .     S
C967   H970    1.109   .     S
O971   C972    1.409   .     S
C972   H973    1.113   .     S
C972   H974    1.113   .     S
C972   H975    1.109   .     S
O976   C977    1.412   .     S
C977   H980    1.109   .     S
C977   H978    1.115   .     S
C977   H979    1.111   .     S
C981   C1006   1.450   .     S
C981   O1019   1.298   .     A
C981   O1022   1.298   .     A
C982   C1005   1.450   .     S
C982   O1021   1.298   .     A
C982   O1020   1.298   .     A
C983   O1026   1.301   .     A
C983   O1023   1.299   .     A
C983   C1001   1.459   .     S
C984   C1002   1.459   .     S
C984   O1025   1.299   .     A
C984   O1024   1.301   .     A
C985   N1018   1.374   .     A
C985   Cl1027  1.761   .     S
C986   N1017   1.373   .     A
C986   Cl1028  1.763   .     S
C986   C1197   1.422   .     S
C987   N1018   1.374   .     A
C987   Cl1029  1.761   .     S
C988   Cl1030  1.763   .     S
C988   N1017   1.373   .     A
C988   C1195   1.422   .     S
C989   H1013   1.083   .     S
C989   C1006   1.401   .     A
C990   H1014   1.083   .     S
C990   C1005   1.401   .     A
C990   C852    1.383   1_655 S
C991   H1015   1.083   .     S
C991   C1005   1.401   .     A
C991   C849    1.383   1_655 S
C992   H1016   1.083   .     S
C992   C1006   1.401   .     A
C993   C997    1.395   .     A
C993   O1031   1.382   .     S
C993   C1003   1.408   .     A
C994   O1036   1.389   .     S
C994   C998    1.402   .     A
C994   C1004   1.408   .     A
C995   O1041   1.382   .     S
C995   C999    1.395   .     A
C995   C1004   1.408   .     A
C996   C1000   1.402   .     A
C996   C1003   1.408   .     A
C996   O1046   1.389   .     S
C997   H1009   1.084   .     S
C997   C1001   1.399   .     A
C998   H1010   1.080   .     S
C998   C1002   1.399   .     A
C999   H1011   1.084   .     S
C999   C1002   1.399   .     A
C1000  C1001   1.399   .     A
C1000  H1012   1.080   .     S
C1004  C373    1.468   1_556 S
Cu1007 O1025   1.953   .     S
Cu1007 O1019   1.964   .     S
Cu1007 Cu1008  2.700   .     S
Cu1007 O1023   1.953   .     S
Cu1007 N1017   2.029   .     S
Cu1007 O1021   1.964   .     S
Cu1008 O1020   1.964   .     S
Cu1008 O1026   1.953   .     S
Cu1008 O1022   1.964   .     S
Cu1008 N1018   2.029   .     S
Cu1008 O1024   1.953   .     S
O1031  C1032   1.409   .     S
C1032  H1035   1.109   .     S
C1032  H1034   1.113   .     S
C1032  H1033   1.113   .     S
O1036  C1037   1.412   .     S
C1037  H1038   1.115   .     S
C1037  H1039   1.111   .     S
C1037  H1040   1.109   .     S
O1041  C1042   1.409   .     S
C1042  H1043   1.113   .     S
C1042  H1044   1.113   .     S
C1042  H1045   1.109   .     S
O1046  C1047   1.412   .     S
C1047  H1050   1.109   .     S
C1047  H1048   1.115   .     S
C1047  H1049   1.111   .     S
C1051  C1076   1.450   .     S
C1051  O1089   1.298   .     A
C1051  O1092   1.298   .     A
C1052  C1075   1.450   .     S
C1052  O1091   1.298   .     A
C1052  O1090   1.298   .     A
C1053  O1096   1.301   .     A
C1053  O1093   1.299   .     A
C1053  C1071   1.459   .     S
C1054  C1072   1.459   .     S
C1054  O1095   1.299   .     A
C1054  O1094   1.301   .     A
C1055  N1088   1.374   .     A
C1055  Cl1097  1.761   .     S
C1056  N1087   1.373   .     A
C1056  Cl1098  1.763   .     S
C1056  C637    1.422   1_565 S
C1057  N1088   1.374   .     A
C1057  Cl1099  1.761   .     S
C1058  Cl1100  1.763   .     S
C1058  N1087   1.373   .     A
C1058  C635    1.422   1_565 S
C1059  H1083   1.083   .     S
C1059  C1076   1.401   .     A
C1059  C1201   1.383   1_455 S
C1060  H1084   1.083   .     S
C1060  C1075   1.401   .     A
C1060  C1132   1.383   .     S
C1061  H1085   1.083   .     S
C1061  C1075   1.401   .     A
C1061  C1129   1.383   .     S
C1062  H1086   1.083   .     S
C1062  C1076   1.401   .     A
C1062  C1200   1.383   1_455 S
C1063  C1067   1.395   .     A
C1063  O1101   1.382   .     S
C1063  C1073   1.408   .     A
C1064  O1106   1.389   .     S
C1064  C1068   1.402   .     A
C1064  C1074   1.408   .     A
C1065  O1111   1.382   .     S
C1065  C1069   1.395   .     A
C1065  C1074   1.408   .     A
C1066  C1070   1.402   .     A
C1066  C1073   1.408   .     A
C1066  O1116   1.389   .     S
C1067  H1079   1.084   .     S
C1067  C1071   1.399   .     A
C1068  H1080   1.080   .     S
C1068  C1072   1.399   .     A
C1069  H1081   1.084   .     S
C1069  C1072   1.399   .     A
C1070  C1071   1.399   .     A
C1070  H1082   1.080   .     S
C1074  C443    1.468   1_556 S
Cu1077 O1095   1.953   .     S
Cu1077 O1089   1.964   .     S
Cu1077 Cu1078  2.700   .     S
Cu1077 O1093   1.953   .     S
Cu1077 N1087   2.029   .     S
Cu1077 O1091   1.964   .     S
Cu1078 O1090   1.964   .     S
Cu1078 O1096   1.953   .     S
Cu1078 O1092   1.964   .     S
Cu1078 N1088   2.029   .     S
Cu1078 O1094   1.953   .     S
O1101  C1102   1.409   .     S
C1102  H1105   1.109   .     S
C1102  H1104   1.113   .     S
C1102  H1103   1.113   .     S
O1106  C1107   1.412   .     S
C1107  H1108   1.115   .     S
C1107  H1109   1.111   .     S
C1107  H1110   1.109   .     S
O1111  C1112   1.409   .     S
C1112  H1113   1.113   .     S
C1112  H1114   1.113   .     S
C1112  H1115   1.109   .     S
O1116  C1117   1.412   .     S
C1117  H1120   1.109   .     S
C1117  H1118   1.115   .     S
C1117  H1119   1.111   .     S
C1121  C1146   1.450   .     S
C1121  O1159   1.298   .     A
C1121  O1162   1.298   .     A
C1122  C1145   1.450   .     S
C1122  O1161   1.298   .     A
C1122  O1160   1.298   .     A
C1123  O1166   1.301   .     A
C1123  O1163   1.299   .     A
C1123  C1141   1.459   .     S
C1124  C1142   1.459   .     S
C1124  O1165   1.299   .     A
C1124  O1164   1.301   .     A
C1125  N1158   1.374   .     A
C1125  Cl1167  1.761   .     S
C1126  N1157   1.373   .     A
C1126  Cl1168  1.763   .     S
C1126  C707    1.422   1_565 S
C1127  N1158   1.374   .     A
C1127  Cl1169  1.761   .     S
C1128  Cl1170  1.763   .     S
C1128  N1157   1.373   .     A
C1128  C705    1.422   1_565 S
C1129  H1153   1.083   .     S
C1129  C1146   1.401   .     A
C1130  H1154   1.083   .     S
C1130  C1145   1.401   .     A
C1130  C1202   1.383   .     S
C1131  H1155   1.083   .     S
C1131  C1145   1.401   .     A
C1131  C1199   1.383   .     S
C1132  H1156   1.083   .     S
C1132  C1146   1.401   .     A
C1133  C1137   1.395   .     A
C1133  O1171   1.382   .     S
C1133  C1143   1.408   .     A
C1134  O1176   1.389   .     S
C1134  C1138   1.402   .     A
C1134  C1144   1.408   .     A
C1135  O1181   1.382   .     S
C1135  C1139   1.395   .     A
C1135  C1144   1.408   .     A
C1136  C1140   1.402   .     A
C1136  C1143   1.408   .     A
C1136  O1186   1.389   .     S
C1137  H1149   1.084   .     S
C1137  C1141   1.399   .     A
C1138  H1150   1.080   .     S
C1138  C1142   1.399   .     A
C1139  H1151   1.084   .     S
C1139  C1142   1.399   .     A
C1140  C1141   1.399   .     A
C1140  H1152   1.080   .     S
C1144  C513    1.468   1_556 S
Cu1147 O1165   1.953   .     S
Cu1147 O1159   1.964   .     S
Cu1147 Cu1148  2.700   .     S
Cu1147 O1163   1.953   .     S
Cu1147 N1157   2.029   .     S
Cu1147 O1161   1.964   .     S
Cu1148 O1160   1.964   .     S
Cu1148 O1166   1.953   .     S
Cu1148 O1162   1.964   .     S
Cu1148 N1158   2.029   .     S
Cu1148 O1164   1.953   .     S
O1171  C1172   1.409   .     S
C1172  H1175   1.109   .     S
C1172  H1174   1.113   .     S
C1172  H1173   1.113   .     S
O1176  C1177   1.412   .     S
C1177  H1178   1.115   .     S
C1177  H1179   1.111   .     S
C1177  H1180   1.109   .     S
O1181  C1182   1.409   .     S
C1182  H1183   1.113   .     S
C1182  H1184   1.113   .     S
C1182  H1185   1.109   .     S
O1186  C1187   1.412   .     S
C1187  H1190   1.109   .     S
C1187  H1188   1.115   .     S
C1187  H1189   1.111   .     S
C1191  C1216   1.450   .     S
C1191  O1229   1.298   .     A
C1191  O1232   1.298   .     A
C1192  C1215   1.450   .     S
C1192  O1231   1.298   .     A
C1192  O1230   1.298   .     A
C1193  O1236   1.301   .     A
C1193  O1233   1.299   .     A
C1193  C1211   1.459   .     S
C1194  C1212   1.459   .     S
C1194  O1235   1.299   .     A
C1194  O1234   1.301   .     A
C1195  N1228   1.374   .     A
C1195  Cl1237  1.761   .     S
C1196  N1227   1.373   .     A
C1196  Cl1238  1.763   .     S
C1196  C777    1.422   1_565 S
C1197  N1228   1.374   .     A
C1197  Cl1239  1.761   .     S
C1198  Cl1240  1.763   .     S
C1198  N1227   1.373   .     A
C1198  C775    1.422   1_565 S
C1199  H1223   1.083   .     S
C1199  C1216   1.401   .     A
C1200  H1224   1.083   .     S
C1200  C1215   1.401   .     A
C1200  C1062   1.383   1_655 S
C1201  H1225   1.083   .     S
C1201  C1215   1.401   .     A
C1201  C1059   1.383   1_655 S
C1202  H1226   1.083   .     S
C1202  C1216   1.401   .     A
C1203  C1207   1.395   .     A
C1203  O1241   1.382   .     S
C1203  C1213   1.408   .     A
C1204  O1246   1.389   .     S
C1204  C1208   1.402   .     A
C1204  C1214   1.408   .     A
C1205  O1251   1.382   .     S
C1205  C1209   1.395   .     A
C1205  C1214   1.408   .     A
C1206  C1210   1.402   .     A
C1206  C1213   1.408   .     A
C1206  O1256   1.389   .     S
C1207  H1219   1.084   .     S
C1207  C1211   1.399   .     A
C1208  H1220   1.080   .     S
C1208  C1212   1.399   .     A
C1209  H1221   1.084   .     S
C1209  C1212   1.399   .     A
C1210  C1211   1.399   .     A
C1210  H1222   1.080   .     S
C1214  C583    1.468   1_556 S
Cu1217 O1235   1.953   .     S
Cu1217 O1229   1.964   .     S
Cu1217 Cu1218  2.700   .     S
Cu1217 O1233   1.953   .     S
Cu1217 N1227   2.029   .     S
Cu1217 O1231   1.964   .     S
Cu1218 O1230   1.964   .     S
Cu1218 O1236   1.953   .     S
Cu1218 O1232   1.964   .     S
Cu1218 N1228   2.029   .     S
Cu1218 O1234   1.953   .     S
O1241  C1242   1.409   .     S
C1242  H1245   1.109   .     S
C1242  H1244   1.113   .     S
C1242  H1243   1.113   .     S
O1246  C1247   1.412   .     S
C1247  H1248   1.115   .     S
C1247  H1249   1.111   .     S
C1247  H1250   1.109   .     S
O1251  C1252   1.409   .     S
C1252  H1253   1.113   .     S
C1252  H1254   1.113   .     S
C1252  H1255   1.109   .     S
O1256  C1257   1.412   .     S
C1257  H1260   1.109   .     S
C1257  H1258   1.115   .     S
C1257  H1259   1.111   .     S
