data_str_m3_o1_o16_pcu_sym.55
_audit_creation_date              2020-01-03
_audit_creation_method            'Materials Studio'
_symmetry_space_group_name_H-M    'P1'
_symmetry_Int_Tables_number       1
_symmetry_cell_setting            triclinic
loop_
_symmetry_equiv_pos_as_xyz
  x,y,z
_cell_length_a                    29.5048
_cell_length_b                    32.1039
_cell_length_c                    26.3727
_cell_angle_alpha                 90.1939
_cell_angle_beta                  71.0796
_cell_angle_gamma                 90.1353
loop_
_atom_site_label
_atom_site_type_symbol
_atom_site_fract_x
_atom_site_fract_y
_atom_site_fract_z
_atom_site_U_iso_or_equiv
_atom_site_adp_type
_atom_site_occupancy
C1     C     0.16672   0.24671   0.24994   0.00000  Uiso   1.00
C2     C     0.12488   0.16049   0.40984   0.00000  Uiso   1.00
C3     C     0.21046   0.31206   0.23377   0.00000  Uiso   1.00
C4     C     0.14057   0.16414   0.35171   0.00000  Uiso   1.00
C5     C     0.21044   0.02141   0.23377   0.00000  Uiso   1.00
C6     C     0.16670   0.04250   0.24942   0.00000  Uiso   1.00
C7     C     0.12299   0.02129   0.26482   0.00000  Uiso   1.00
C8     C     0.12301   0.31195   0.26502   0.00000  Uiso   1.00
C9     C     0.16676   0.29085   0.24964   0.00000  Uiso   1.00
C10    C     0.31721   0.13681   0.22280   0.00000  Uiso   1.00
C11    C     0.03170   0.13677   0.22301   0.00000  Uiso   1.00
C12    C     0.14635   0.15230   0.49083   0.00000  Uiso   1.00
C13    C     0.01610   0.19611   0.27812   0.00000  Uiso   1.00
C14    C     0.30096   0.19667   0.27792   0.00000  Uiso   1.00
C15    C     0.16667   0.08663   0.24979   0.00000  Uiso   1.00
C16    C     0.19285   0.16241   0.14831   0.00000  Uiso   1.00
C17    C     0.26532   0.12891   0.00525   0.00000  Uiso   1.00
C18    C     0.20784   0.14982   0.09137   0.00000  Uiso   1.00
C19    C     0.08183   0.17968   0.43956   0.00000  Uiso   1.00
C20    C     0.07168   0.18663   0.49397   0.00000  Uiso   1.00
C21    C     0.10392   0.17405   0.01933   0.00000  Uiso   1.00
C22    C     0.29686   0.14496   0.08181   0.00000  Uiso   1.00
C23    C     0.15625   0.14437   0.43581   0.00000  Uiso   1.00
C24    C     0.28618   0.26510   0.30752   0.00000  Uiso   1.00
C25    C     0.31799   0.07550   0.47912   0.00000  Uiso   1.00
C26    C     0.12350   0.08618   0.10228   0.00000  Uiso   1.00
C27    C     0.18155   0.14205   0.01444   0.00000  Uiso   1.00
C28    C     0.22809   0.13030   0.48255   0.00000  Uiso   1.00
C29    C     0.23551   0.11843   0.42951   0.00000  Uiso   1.00
C30    C     0.19865   0.12243   0.40783   0.00000  Uiso   1.00
C31    C     0.17109   0.14205   0.06956   0.00000  Uiso   1.00
C32    C     0.25611   0.14217   0.05902   0.00000  Uiso   1.00
H33    H     0.24441   0.03779   0.22119   0.00000  Uiso   1.00
H34    H     0.03981   0.20375   0.01608   0.00000  Uiso   1.00
H35    H     0.20483   0.10968   0.36819   0.00000  Uiso   1.00
H36    H     0.24442   0.29576   0.22100   0.00000  Uiso   1.00
H37    H     0.29986   0.17720   0.09573   0.00000  Uiso   1.00
H38    H     0.29067   0.12269   0.11544   0.00000  Uiso   1.00
H39    H     0.33189   0.13673   0.05227   0.00000  Uiso   1.00
H40    H     0.25598   0.28753   0.31945   0.00000  Uiso   1.00
H41    H     0.30974   0.27413   0.26671   0.00000  Uiso   1.00
H42    H     0.30541   0.26808   0.33724   0.00000  Uiso   1.00
H43    H     0.29268   0.05657   0.46513   0.00000  Uiso   1.00
H44    H     0.08900   0.03757   0.27727   0.00000  Uiso   1.00
H45    H     0.31428   0.06728   0.02125   0.00000  Uiso   1.00
H46    H     0.02156   0.06716   0.45385   0.00000  Uiso   1.00
H47    H     0.08604   0.07630   0.12291   0.00000  Uiso   1.00
H48    H     0.14635   0.07309   0.12461   0.00000  Uiso   1.00
H49    H     0.13386   0.07270   0.06113   0.00000  Uiso   1.00
H50    H     0.08902   0.29558   0.27761   0.00000  Uiso   1.00
H51    H     0.30529   0.11268   0.20135   0.00000  Uiso   1.00
H52    H     0.05584   0.11251   0.20225   0.00000  Uiso   1.00
H53    H     0.02856   0.21854   0.30126   0.00000  Uiso   1.00
H54    H     0.26942   0.10562   0.40476   0.00000  Uiso   1.00
H55    H     0.05765   0.19210   0.42002   0.00000  Uiso   1.00
H56    H     0.09623   0.18367   0.06055   0.00000  Uiso   1.00
N57    N     0.04760   0.16668   0.25002   0.00000  Uiso   1.00
N58    N     0.28573   0.16665   0.25000   0.00000  Uiso   1.00
O59    O     0.12846   0.22775   0.25000   0.00000  Uiso   1.00
O60    O     0.31130   0.11852   0.47352   0.00000  Uiso   1.00
O61    O     0.12569   0.13015   0.10176   0.00000  Uiso   1.00
O62    O     0.20490   0.22774   0.25000   0.00000  Uiso   1.00
O63    O     0.10947   0.16666   0.32681   0.00000  Uiso   1.00
O64    O     0.18591   0.16665   0.32681   0.00000  Uiso   1.00
O65    O     0.12843   0.10559   0.24999   0.00000  Uiso   1.00
O66    O     0.20488   0.10558   0.24999   0.00000  Uiso   1.00
O67    O     0.14742   0.16668   0.17319   0.00000  Uiso   1.00
O68    O     0.22387   0.16667   0.17319   0.00000  Uiso   1.00
O69    O     0.26715   0.22459   0.30870   0.00000  Uiso   1.00
Zn70   Zn    0.11562   0.16667   0.25000   0.00000  Uiso   1.00
Zn71   Zn    0.21771   0.16666   0.25000   0.00000  Uiso   1.00
C72    C     0.50006   0.24671   0.24994   0.00000  Uiso   1.00
C73    C     0.45821   0.16049   0.40984   0.00000  Uiso   1.00
C74    C     0.54379   0.31206   0.23377   0.00000  Uiso   1.00
C75    C     0.47391   0.16414   0.35171   0.00000  Uiso   1.00
C76    C     0.54377   0.02141   0.23377   0.00000  Uiso   1.00
C77    C     0.50003   0.04250   0.24942   0.00000  Uiso   1.00
C78    C     0.45632   0.02129   0.26482   0.00000  Uiso   1.00
C79    C     0.45635   0.31195   0.26502   0.00000  Uiso   1.00
C80    C     0.50009   0.29085   0.24964   0.00000  Uiso   1.00
C81    C     0.65054   0.13681   0.22280   0.00000  Uiso   1.00
C82    C     0.36503   0.13677   0.22301   0.00000  Uiso   1.00
C83    C     0.47968   0.15230   0.49083   0.00000  Uiso   1.00
C84    C     0.34943   0.19611   0.27812   0.00000  Uiso   1.00
C85    C     0.63429   0.19667   0.27792   0.00000  Uiso   1.00
C86    C     0.50000   0.08663   0.24979   0.00000  Uiso   1.00
C87    C     0.52619   0.16241   0.14831   0.00000  Uiso   1.00
C88    C     0.59865   0.12891   0.00525   0.00000  Uiso   1.00
C89    C     0.54117   0.14982   0.09137   0.00000  Uiso   1.00
C90    C     0.41516   0.17968   0.43956   0.00000  Uiso   1.00
C91    C     0.40502   0.18663   0.49397   0.00000  Uiso   1.00
C92    C     0.43725   0.17405   0.01933   0.00000  Uiso   1.00
C93    C     0.63019   0.14496   0.08181   0.00000  Uiso   1.00
C94    C     0.48958   0.14437   0.43581   0.00000  Uiso   1.00
C95    C     0.61951   0.26510   0.30752   0.00000  Uiso   1.00
C96    C     0.65133   0.07550   0.47912   0.00000  Uiso   1.00
C97    C     0.45683   0.08618   0.10228   0.00000  Uiso   1.00
C98    C     0.51488   0.14205   0.01444   0.00000  Uiso   1.00
C99    C     0.56142   0.13030   0.48255   0.00000  Uiso   1.00
C100   C     0.56885   0.11843   0.42951   0.00000  Uiso   1.00
C101   C     0.53199   0.12243   0.40783   0.00000  Uiso   1.00
C102   C     0.50442   0.14205   0.06956   0.00000  Uiso   1.00
C103   C     0.58944   0.14217   0.05902   0.00000  Uiso   1.00
H104   H     0.57775   0.03779   0.22119   0.00000  Uiso   1.00
H105   H     0.37314   0.20375   0.01608   0.00000  Uiso   1.00
H106   H     0.53817   0.10968   0.36819   0.00000  Uiso   1.00
H107   H     0.57775   0.29576   0.22100   0.00000  Uiso   1.00
H108   H     0.63319   0.17720   0.09573   0.00000  Uiso   1.00
H109   H     0.62400   0.12269   0.11544   0.00000  Uiso   1.00
H110   H     0.66522   0.13673   0.05227   0.00000  Uiso   1.00
H111   H     0.58932   0.28753   0.31945   0.00000  Uiso   1.00
H112   H     0.64308   0.27413   0.26671   0.00000  Uiso   1.00
H113   H     0.63875   0.26808   0.33724   0.00000  Uiso   1.00
H114   H     0.62601   0.05657   0.46513   0.00000  Uiso   1.00
H115   H     0.42233   0.03757   0.27727   0.00000  Uiso   1.00
H116   H     0.64761   0.06728   0.02125   0.00000  Uiso   1.00
H117   H     0.35489   0.06716   0.45385   0.00000  Uiso   1.00
H118   H     0.41937   0.07630   0.12291   0.00000  Uiso   1.00
H119   H     0.47968   0.07309   0.12461   0.00000  Uiso   1.00
H120   H     0.46719   0.07270   0.06113   0.00000  Uiso   1.00
H121   H     0.42235   0.29558   0.27761   0.00000  Uiso   1.00
H122   H     0.63862   0.11268   0.20135   0.00000  Uiso   1.00
H123   H     0.38917   0.11251   0.20225   0.00000  Uiso   1.00
H124   H     0.36189   0.21854   0.30126   0.00000  Uiso   1.00
H125   H     0.60275   0.10562   0.40476   0.00000  Uiso   1.00
H126   H     0.39099   0.19210   0.42002   0.00000  Uiso   1.00
H127   H     0.42956   0.18367   0.06055   0.00000  Uiso   1.00
N128   N     0.38093   0.16668   0.25002   0.00000  Uiso   1.00
N129   N     0.61906   0.16665   0.25000   0.00000  Uiso   1.00
O130   O     0.46179   0.22775   0.25000   0.00000  Uiso   1.00
O131   O     0.64463   0.11852   0.47352   0.00000  Uiso   1.00
O132   O     0.45902   0.13015   0.10176   0.00000  Uiso   1.00
O133   O     0.53823   0.22774   0.25000   0.00000  Uiso   1.00
O134   O     0.44280   0.16666   0.32681   0.00000  Uiso   1.00
O135   O     0.51924   0.16665   0.32681   0.00000  Uiso   1.00
O136   O     0.46177   0.10559   0.24999   0.00000  Uiso   1.00
O137   O     0.53821   0.10558   0.24999   0.00000  Uiso   1.00
O138   O     0.48076   0.16668   0.17319   0.00000  Uiso   1.00
O139   O     0.55720   0.16667   0.17319   0.00000  Uiso   1.00
O140   O     0.60049   0.22459   0.30870   0.00000  Uiso   1.00
Zn141  Zn    0.44896   0.16667   0.25000   0.00000  Uiso   1.00
Zn142  Zn    0.55104   0.16666   0.25000   0.00000  Uiso   1.00
C143   C     0.83339   0.24671   0.24994   0.00000  Uiso   1.00
C144   C     0.79155   0.16049   0.40984   0.00000  Uiso   1.00
C145   C     0.87712   0.31206   0.23377   0.00000  Uiso   1.00
C146   C     0.80724   0.16414   0.35171   0.00000  Uiso   1.00
C147   C     0.87710   0.02141   0.23377   0.00000  Uiso   1.00
C148   C     0.83336   0.04250   0.24942   0.00000  Uiso   1.00
C149   C     0.78966   0.02129   0.26482   0.00000  Uiso   1.00
C150   C     0.78968   0.31195   0.26502   0.00000  Uiso   1.00
C151   C     0.83342   0.29085   0.24964   0.00000  Uiso   1.00
C152   C     0.98388   0.13681   0.22280   0.00000  Uiso   1.00
C153   C     0.69836   0.13677   0.22301   0.00000  Uiso   1.00
C154   C     0.81301   0.15230   0.49083   0.00000  Uiso   1.00
C155   C     0.68277   0.19611   0.27812   0.00000  Uiso   1.00
C156   C     0.96763   0.19667   0.27792   0.00000  Uiso   1.00
C157   C     0.83334   0.08663   0.24979   0.00000  Uiso   1.00
C158   C     0.85952   0.16241   0.14831   0.00000  Uiso   1.00
C159   C     0.93198   0.12891   0.00525   0.00000  Uiso   1.00
C160   C     0.87451   0.14982   0.09137   0.00000  Uiso   1.00
C161   C     0.74849   0.17968   0.43956   0.00000  Uiso   1.00
C162   C     0.73835   0.18663   0.49397   0.00000  Uiso   1.00
C163   C     0.77059   0.17405   0.01933   0.00000  Uiso   1.00
C164   C     0.96352   0.14496   0.08181   0.00000  Uiso   1.00
C165   C     0.82291   0.14437   0.43581   0.00000  Uiso   1.00
C166   C     0.95284   0.26510   0.30752   0.00000  Uiso   1.00
C167   C     0.98466   0.07550   0.47912   0.00000  Uiso   1.00
C168   C     0.79016   0.08618   0.10228   0.00000  Uiso   1.00
C169   C     0.84822   0.14205   0.01444   0.00000  Uiso   1.00
C170   C     0.89476   0.13030   0.48255   0.00000  Uiso   1.00
C171   C     0.90218   0.11843   0.42951   0.00000  Uiso   1.00
C172   C     0.86532   0.12243   0.40783   0.00000  Uiso   1.00
C173   C     0.83776   0.14205   0.06956   0.00000  Uiso   1.00
C174   C     0.92278   0.14217   0.05902   0.00000  Uiso   1.00
H175   H     0.91108   0.03779   0.22119   0.00000  Uiso   1.00
H176   H     0.70647   0.20375   0.01608   0.00000  Uiso   1.00
H177   H     0.87150   0.10968   0.36819   0.00000  Uiso   1.00
H178   H     0.91109   0.29576   0.22100   0.00000  Uiso   1.00
H179   H     0.96653   0.17720   0.09573   0.00000  Uiso   1.00
H180   H     0.95733   0.12269   0.11544   0.00000  Uiso   1.00
H181   H     0.99856   0.13673   0.05227   0.00000  Uiso   1.00
H182   H     0.92265   0.28753   0.31945   0.00000  Uiso   1.00
H183   H     0.97641   0.27413   0.26671   0.00000  Uiso   1.00
H184   H     0.97208   0.26808   0.33724   0.00000  Uiso   1.00
H185   H     0.95935   0.05657   0.46513   0.00000  Uiso   1.00
H186   H     0.75566   0.03757   0.27727   0.00000  Uiso   1.00
H187   H     0.98095   0.06728   0.02125   0.00000  Uiso   1.00
H188   H     0.68823   0.06716   0.45385   0.00000  Uiso   1.00
H189   H     0.75270   0.07630   0.12291   0.00000  Uiso   1.00
H190   H     0.81302   0.07309   0.12461   0.00000  Uiso   1.00
H191   H     0.80053   0.07270   0.06113   0.00000  Uiso   1.00
H192   H     0.75569   0.29558   0.27761   0.00000  Uiso   1.00
H193   H     0.97195   0.11268   0.20135   0.00000  Uiso   1.00
H194   H     0.72250   0.11251   0.20225   0.00000  Uiso   1.00
H195   H     0.69522   0.21854   0.30126   0.00000  Uiso   1.00
H196   H     0.93608   0.10562   0.40476   0.00000  Uiso   1.00
H197   H     0.72432   0.19210   0.42002   0.00000  Uiso   1.00
H198   H     0.76289   0.18367   0.06055   0.00000  Uiso   1.00
N199   N     0.71426   0.16668   0.25002   0.00000  Uiso   1.00
N200   N     0.95239   0.16665   0.25000   0.00000  Uiso   1.00
O201   O     0.79512   0.22775   0.25000   0.00000  Uiso   1.00
O202   O     0.97797   0.11852   0.47352   0.00000  Uiso   1.00
O203   O     0.79236   0.13015   0.10176   0.00000  Uiso   1.00
O204   O     0.87157   0.22774   0.25000   0.00000  Uiso   1.00
O205   O     0.77613   0.16666   0.32681   0.00000  Uiso   1.00
O206   O     0.85258   0.16665   0.32681   0.00000  Uiso   1.00
O207   O     0.79510   0.10559   0.24999   0.00000  Uiso   1.00
O208   O     0.87154   0.10558   0.24999   0.00000  Uiso   1.00
O209   O     0.81409   0.16668   0.17319   0.00000  Uiso   1.00
O210   O     0.89053   0.16667   0.17319   0.00000  Uiso   1.00
O211   O     0.93382   0.22459   0.30870   0.00000  Uiso   1.00
Zn212  Zn    0.78229   0.16667   0.25000   0.00000  Uiso   1.00
Zn213  Zn    0.88438   0.16666   0.25000   0.00000  Uiso   1.00
C214   C     0.16672   0.58004   0.24994   0.00000  Uiso   1.00
C215   C     0.12488   0.49383   0.40984   0.00000  Uiso   1.00
C216   C     0.21046   0.64539   0.23377   0.00000  Uiso   1.00
C217   C     0.14057   0.49748   0.35171   0.00000  Uiso   1.00
C218   C     0.21044   0.35474   0.23377   0.00000  Uiso   1.00
C219   C     0.16670   0.37583   0.24942   0.00000  Uiso   1.00
C220   C     0.12299   0.35462   0.26482   0.00000  Uiso   1.00
C221   C     0.12301   0.64528   0.26502   0.00000  Uiso   1.00
C222   C     0.16676   0.62418   0.24964   0.00000  Uiso   1.00
C223   C     0.31721   0.47014   0.22280   0.00000  Uiso   1.00
C224   C     0.03170   0.47011   0.22301   0.00000  Uiso   1.00
C225   C     0.14635   0.48563   0.49083   0.00000  Uiso   1.00
C226   C     0.01610   0.52944   0.27812   0.00000  Uiso   1.00
C227   C     0.30096   0.53001   0.27792   0.00000  Uiso   1.00
C228   C     0.16667   0.41996   0.24979   0.00000  Uiso   1.00
C229   C     0.19285   0.49575   0.14831   0.00000  Uiso   1.00
C230   C     0.26532   0.46224   0.00525   0.00000  Uiso   1.00
C231   C     0.20784   0.48315   0.09137   0.00000  Uiso   1.00
C232   C     0.08183   0.51301   0.43956   0.00000  Uiso   1.00
C233   C     0.07168   0.51996   0.49397   0.00000  Uiso   1.00
C234   C     0.10392   0.50738   0.01933   0.00000  Uiso   1.00
C235   C     0.29686   0.47829   0.08181   0.00000  Uiso   1.00
C236   C     0.15625   0.47770   0.43581   0.00000  Uiso   1.00
C237   C     0.28618   0.59844   0.30752   0.00000  Uiso   1.00
C238   C     0.31799   0.40883   0.47912   0.00000  Uiso   1.00
C239   C     0.12350   0.41951   0.10228   0.00000  Uiso   1.00
C240   C     0.18155   0.47539   0.01444   0.00000  Uiso   1.00
C241   C     0.22809   0.46363   0.48255   0.00000  Uiso   1.00
C242   C     0.23551   0.45176   0.42951   0.00000  Uiso   1.00
C243   C     0.19865   0.45576   0.40783   0.00000  Uiso   1.00
C244   C     0.17109   0.47538   0.06956   0.00000  Uiso   1.00
C245   C     0.25611   0.47550   0.05902   0.00000  Uiso   1.00
H246   H     0.24441   0.37113   0.22119   0.00000  Uiso   1.00
H247   H     0.03981   0.53709   0.01608   0.00000  Uiso   1.00
H248   H     0.20483   0.44302   0.36819   0.00000  Uiso   1.00
H249   H     0.24442   0.62909   0.22100   0.00000  Uiso   1.00
H250   H     0.29986   0.51053   0.09573   0.00000  Uiso   1.00
H251   H     0.29067   0.45602   0.11544   0.00000  Uiso   1.00
H252   H     0.33189   0.47006   0.05227   0.00000  Uiso   1.00
H253   H     0.25598   0.62086   0.31945   0.00000  Uiso   1.00
H254   H     0.30974   0.60746   0.26671   0.00000  Uiso   1.00
H255   H     0.30541   0.60142   0.33724   0.00000  Uiso   1.00
H256   H     0.29268   0.38990   0.46513   0.00000  Uiso   1.00
H257   H     0.08900   0.37090   0.27727   0.00000  Uiso   1.00
H258   H     0.31428   0.40061   0.02125   0.00000  Uiso   1.00
H259   H     0.02156   0.40050   0.45385   0.00000  Uiso   1.00
H260   H     0.08604   0.40964   0.12291   0.00000  Uiso   1.00
H261   H     0.14635   0.40642   0.12461   0.00000  Uiso   1.00
H262   H     0.13386   0.40603   0.06113   0.00000  Uiso   1.00
H263   H     0.08902   0.62891   0.27761   0.00000  Uiso   1.00
H264   H     0.30529   0.44601   0.20135   0.00000  Uiso   1.00
H265   H     0.05584   0.44584   0.20225   0.00000  Uiso   1.00
H266   H     0.02856   0.55187   0.30126   0.00000  Uiso   1.00
H267   H     0.26942   0.43895   0.40476   0.00000  Uiso   1.00
H268   H     0.05765   0.52543   0.42002   0.00000  Uiso   1.00
H269   H     0.09623   0.51701   0.06055   0.00000  Uiso   1.00
N270   N     0.04760   0.50001   0.25002   0.00000  Uiso   1.00
N271   N     0.28573   0.49998   0.25000   0.00000  Uiso   1.00
O272   O     0.12846   0.56108   0.25000   0.00000  Uiso   1.00
O273   O     0.31130   0.45186   0.47352   0.00000  Uiso   1.00
O274   O     0.12569   0.46348   0.10176   0.00000  Uiso   1.00
O275   O     0.20490   0.56107   0.25000   0.00000  Uiso   1.00
O276   O     0.10947   0.50000   0.32681   0.00000  Uiso   1.00
O277   O     0.18591   0.49999   0.32681   0.00000  Uiso   1.00
O278   O     0.12843   0.43893   0.24999   0.00000  Uiso   1.00
O279   O     0.20488   0.43892   0.24999   0.00000  Uiso   1.00
O280   O     0.14742   0.50001   0.17319   0.00000  Uiso   1.00
O281   O     0.22387   0.50000   0.17319   0.00000  Uiso   1.00
O282   O     0.26715   0.55793   0.30870   0.00000  Uiso   1.00
Zn283  Zn    0.11562   0.50001   0.25000   0.00000  Uiso   1.00
Zn284  Zn    0.21771   0.49999   0.25000   0.00000  Uiso   1.00
C285   C     0.50006   0.58004   0.24994   0.00000  Uiso   1.00
C286   C     0.45821   0.49383   0.40984   0.00000  Uiso   1.00
C287   C     0.54379   0.64539   0.23377   0.00000  Uiso   1.00
C288   C     0.47391   0.49748   0.35171   0.00000  Uiso   1.00
C289   C     0.54377   0.35474   0.23377   0.00000  Uiso   1.00
C290   C     0.50003   0.37583   0.24942   0.00000  Uiso   1.00
C291   C     0.45632   0.35462   0.26482   0.00000  Uiso   1.00
C292   C     0.45635   0.64528   0.26502   0.00000  Uiso   1.00
C293   C     0.50009   0.62418   0.24964   0.00000  Uiso   1.00
C294   C     0.65054   0.47014   0.22280   0.00000  Uiso   1.00
C295   C     0.36503   0.47011   0.22301   0.00000  Uiso   1.00
C296   C     0.47968   0.48563   0.49083   0.00000  Uiso   1.00
C297   C     0.34943   0.52944   0.27812   0.00000  Uiso   1.00
C298   C     0.63429   0.53001   0.27792   0.00000  Uiso   1.00
C299   C     0.50000   0.41996   0.24979   0.00000  Uiso   1.00
C300   C     0.52619   0.49575   0.14831   0.00000  Uiso   1.00
C301   C     0.59865   0.46224   0.00525   0.00000  Uiso   1.00
C302   C     0.54117   0.48315   0.09137   0.00000  Uiso   1.00
C303   C     0.41516   0.51301   0.43956   0.00000  Uiso   1.00
C304   C     0.40502   0.51996   0.49397   0.00000  Uiso   1.00
C305   C     0.43725   0.50738   0.01933   0.00000  Uiso   1.00
C306   C     0.63019   0.47829   0.08181   0.00000  Uiso   1.00
C307   C     0.48958   0.47770   0.43581   0.00000  Uiso   1.00
C308   C     0.61951   0.59844   0.30752   0.00000  Uiso   1.00
C309   C     0.65133   0.40883   0.47912   0.00000  Uiso   1.00
C310   C     0.45683   0.41951   0.10228   0.00000  Uiso   1.00
C311   C     0.51488   0.47539   0.01444   0.00000  Uiso   1.00
C312   C     0.56142   0.46363   0.48255   0.00000  Uiso   1.00
C313   C     0.56885   0.45176   0.42951   0.00000  Uiso   1.00
C314   C     0.53199   0.45576   0.40783   0.00000  Uiso   1.00
C315   C     0.50442   0.47538   0.06956   0.00000  Uiso   1.00
C316   C     0.58944   0.47550   0.05902   0.00000  Uiso   1.00
H317   H     0.57775   0.37113   0.22119   0.00000  Uiso   1.00
H318   H     0.37314   0.53709   0.01608   0.00000  Uiso   1.00
H319   H     0.53817   0.44302   0.36819   0.00000  Uiso   1.00
H320   H     0.57775   0.62909   0.22100   0.00000  Uiso   1.00
H321   H     0.63319   0.51053   0.09573   0.00000  Uiso   1.00
H322   H     0.62400   0.45602   0.11544   0.00000  Uiso   1.00
H323   H     0.66522   0.47006   0.05227   0.00000  Uiso   1.00
H324   H     0.58932   0.62086   0.31945   0.00000  Uiso   1.00
H325   H     0.64308   0.60746   0.26671   0.00000  Uiso   1.00
H326   H     0.63875   0.60142   0.33724   0.00000  Uiso   1.00
H327   H     0.62601   0.38990   0.46513   0.00000  Uiso   1.00
H328   H     0.42233   0.37090   0.27727   0.00000  Uiso   1.00
H329   H     0.64761   0.40061   0.02125   0.00000  Uiso   1.00
H330   H     0.35489   0.40050   0.45385   0.00000  Uiso   1.00
H331   H     0.41937   0.40964   0.12291   0.00000  Uiso   1.00
H332   H     0.47968   0.40642   0.12461   0.00000  Uiso   1.00
H333   H     0.46719   0.40603   0.06113   0.00000  Uiso   1.00
H334   H     0.42235   0.62891   0.27761   0.00000  Uiso   1.00
H335   H     0.63862   0.44601   0.20135   0.00000  Uiso   1.00
H336   H     0.38917   0.44584   0.20225   0.00000  Uiso   1.00
H337   H     0.36189   0.55187   0.30126   0.00000  Uiso   1.00
H338   H     0.60275   0.43895   0.40476   0.00000  Uiso   1.00
H339   H     0.39099   0.52543   0.42002   0.00000  Uiso   1.00
H340   H     0.42956   0.51701   0.06055   0.00000  Uiso   1.00
N341   N     0.38093   0.50001   0.25002   0.00000  Uiso   1.00
N342   N     0.61906   0.49998   0.25000   0.00000  Uiso   1.00
O343   O     0.46179   0.56108   0.25000   0.00000  Uiso   1.00
O344   O     0.64463   0.45186   0.47352   0.00000  Uiso   1.00
O345   O     0.45902   0.46348   0.10176   0.00000  Uiso   1.00
O346   O     0.53823   0.56107   0.25000   0.00000  Uiso   1.00
O347   O     0.44280   0.50000   0.32681   0.00000  Uiso   1.00
O348   O     0.51924   0.49999   0.32681   0.00000  Uiso   1.00
O349   O     0.46177   0.43893   0.24999   0.00000  Uiso   1.00
O350   O     0.53821   0.43892   0.24999   0.00000  Uiso   1.00
O351   O     0.48076   0.50001   0.17319   0.00000  Uiso   1.00
O352   O     0.55720   0.50000   0.17319   0.00000  Uiso   1.00
O353   O     0.60049   0.55793   0.30870   0.00000  Uiso   1.00
Zn354  Zn    0.44896   0.50001   0.25000   0.00000  Uiso   1.00
Zn355  Zn    0.55104   0.49999   0.25000   0.00000  Uiso   1.00
C356   C     0.83339   0.58004   0.24994   0.00000  Uiso   1.00
C357   C     0.79155   0.49383   0.40984   0.00000  Uiso   1.00
C358   C     0.87712   0.64539   0.23377   0.00000  Uiso   1.00
C359   C     0.80724   0.49748   0.35171   0.00000  Uiso   1.00
C360   C     0.87710   0.35474   0.23377   0.00000  Uiso   1.00
C361   C     0.83336   0.37583   0.24942   0.00000  Uiso   1.00
C362   C     0.78966   0.35462   0.26482   0.00000  Uiso   1.00
C363   C     0.78968   0.64528   0.26502   0.00000  Uiso   1.00
C364   C     0.83342   0.62418   0.24964   0.00000  Uiso   1.00
C365   C     0.98388   0.47014   0.22280   0.00000  Uiso   1.00
C366   C     0.69836   0.47011   0.22301   0.00000  Uiso   1.00
C367   C     0.81301   0.48563   0.49083   0.00000  Uiso   1.00
C368   C     0.68277   0.52944   0.27812   0.00000  Uiso   1.00
C369   C     0.96763   0.53001   0.27792   0.00000  Uiso   1.00
C370   C     0.83334   0.41996   0.24979   0.00000  Uiso   1.00
C371   C     0.85952   0.49575   0.14831   0.00000  Uiso   1.00
C372   C     0.93198   0.46224   0.00525   0.00000  Uiso   1.00
C373   C     0.87451   0.48315   0.09137   0.00000  Uiso   1.00
C374   C     0.74849   0.51301   0.43956   0.00000  Uiso   1.00
C375   C     0.73835   0.51996   0.49397   0.00000  Uiso   1.00
C376   C     0.77059   0.50738   0.01933   0.00000  Uiso   1.00
C377   C     0.96352   0.47829   0.08181   0.00000  Uiso   1.00
C378   C     0.82291   0.47770   0.43581   0.00000  Uiso   1.00
C379   C     0.95284   0.59844   0.30752   0.00000  Uiso   1.00
C380   C     0.98466   0.40883   0.47912   0.00000  Uiso   1.00
C381   C     0.79016   0.41951   0.10228   0.00000  Uiso   1.00
C382   C     0.84822   0.47539   0.01444   0.00000  Uiso   1.00
C383   C     0.89476   0.46363   0.48255   0.00000  Uiso   1.00
C384   C     0.90218   0.45176   0.42951   0.00000  Uiso   1.00
C385   C     0.86532   0.45576   0.40783   0.00000  Uiso   1.00
C386   C     0.83776   0.47538   0.06956   0.00000  Uiso   1.00
C387   C     0.92278   0.47550   0.05902   0.00000  Uiso   1.00
H388   H     0.91108   0.37113   0.22119   0.00000  Uiso   1.00
H389   H     0.70647   0.53709   0.01608   0.00000  Uiso   1.00
H390   H     0.87150   0.44302   0.36819   0.00000  Uiso   1.00
H391   H     0.91109   0.62909   0.22100   0.00000  Uiso   1.00
H392   H     0.96653   0.51053   0.09573   0.00000  Uiso   1.00
H393   H     0.95733   0.45602   0.11544   0.00000  Uiso   1.00
H394   H     0.99856   0.47006   0.05227   0.00000  Uiso   1.00
H395   H     0.92265   0.62086   0.31945   0.00000  Uiso   1.00
H396   H     0.97641   0.60746   0.26671   0.00000  Uiso   1.00
H397   H     0.97208   0.60142   0.33724   0.00000  Uiso   1.00
H398   H     0.95935   0.38990   0.46513   0.00000  Uiso   1.00
H399   H     0.75566   0.37090   0.27727   0.00000  Uiso   1.00
H400   H     0.98095   0.40061   0.02125   0.00000  Uiso   1.00
H401   H     0.68823   0.40050   0.45385   0.00000  Uiso   1.00
H402   H     0.75270   0.40964   0.12291   0.00000  Uiso   1.00
H403   H     0.81302   0.40642   0.12461   0.00000  Uiso   1.00
H404   H     0.80053   0.40603   0.06113   0.00000  Uiso   1.00
H405   H     0.75569   0.62891   0.27761   0.00000  Uiso   1.00
H406   H     0.97195   0.44601   0.20135   0.00000  Uiso   1.00
H407   H     0.72250   0.44584   0.20225   0.00000  Uiso   1.00
H408   H     0.69522   0.55187   0.30126   0.00000  Uiso   1.00
H409   H     0.93608   0.43895   0.40476   0.00000  Uiso   1.00
H410   H     0.72432   0.52543   0.42002   0.00000  Uiso   1.00
H411   H     0.76289   0.51701   0.06055   0.00000  Uiso   1.00
N412   N     0.71426   0.50001   0.25002   0.00000  Uiso   1.00
N413   N     0.95239   0.49998   0.25000   0.00000  Uiso   1.00
O414   O     0.79512   0.56108   0.25000   0.00000  Uiso   1.00
O415   O     0.97797   0.45186   0.47352   0.00000  Uiso   1.00
O416   O     0.79236   0.46348   0.10176   0.00000  Uiso   1.00
O417   O     0.87157   0.56107   0.25000   0.00000  Uiso   1.00
O418   O     0.77613   0.50000   0.32681   0.00000  Uiso   1.00
O419   O     0.85258   0.49999   0.32681   0.00000  Uiso   1.00
O420   O     0.79510   0.43893   0.24999   0.00000  Uiso   1.00
O421   O     0.87154   0.43892   0.24999   0.00000  Uiso   1.00
O422   O     0.81409   0.50001   0.17319   0.00000  Uiso   1.00
O423   O     0.89053   0.50000   0.17319   0.00000  Uiso   1.00
O424   O     0.93382   0.55793   0.30870   0.00000  Uiso   1.00
Zn425  Zn    0.78229   0.50001   0.25000   0.00000  Uiso   1.00
Zn426  Zn    0.88438   0.49999   0.25000   0.00000  Uiso   1.00
C427   C     0.16672   0.91337   0.24994   0.00000  Uiso   1.00
C428   C     0.12488   0.82716   0.40984   0.00000  Uiso   1.00
C429   C     0.21046   0.97872   0.23377   0.00000  Uiso   1.00
C430   C     0.14057   0.83081   0.35171   0.00000  Uiso   1.00
C431   C     0.21044   0.68808   0.23377   0.00000  Uiso   1.00
C432   C     0.16670   0.70917   0.24942   0.00000  Uiso   1.00
C433   C     0.12299   0.68795   0.26482   0.00000  Uiso   1.00
C434   C     0.12301   0.97861   0.26502   0.00000  Uiso   1.00
C435   C     0.16676   0.95751   0.24964   0.00000  Uiso   1.00
C436   C     0.31721   0.80347   0.22280   0.00000  Uiso   1.00
C437   C     0.03170   0.80344   0.22301   0.00000  Uiso   1.00
C438   C     0.14635   0.81897   0.49083   0.00000  Uiso   1.00
C439   C     0.01610   0.86278   0.27812   0.00000  Uiso   1.00
C440   C     0.30096   0.86334   0.27792   0.00000  Uiso   1.00
C441   C     0.16667   0.75329   0.24979   0.00000  Uiso   1.00
C442   C     0.19285   0.82908   0.14831   0.00000  Uiso   1.00
C443   C     0.26532   0.79557   0.00525   0.00000  Uiso   1.00
C444   C     0.20784   0.81649   0.09137   0.00000  Uiso   1.00
C445   C     0.08183   0.84635   0.43956   0.00000  Uiso   1.00
C446   C     0.07168   0.85330   0.49397   0.00000  Uiso   1.00
C447   C     0.10392   0.84072   0.01933   0.00000  Uiso   1.00
C448   C     0.29686   0.81163   0.08181   0.00000  Uiso   1.00
C449   C     0.15625   0.81103   0.43581   0.00000  Uiso   1.00
C450   C     0.28618   0.93177   0.30752   0.00000  Uiso   1.00
C451   C     0.31799   0.74217   0.47912   0.00000  Uiso   1.00
C452   C     0.12350   0.75284   0.10228   0.00000  Uiso   1.00
C453   C     0.18155   0.80872   0.01444   0.00000  Uiso   1.00
C454   C     0.22809   0.79697   0.48255   0.00000  Uiso   1.00
C455   C     0.23551   0.78510   0.42951   0.00000  Uiso   1.00
C456   C     0.19865   0.78909   0.40783   0.00000  Uiso   1.00
C457   C     0.17109   0.80872   0.06956   0.00000  Uiso   1.00
C458   C     0.25611   0.80883   0.05902   0.00000  Uiso   1.00
H459   H     0.24441   0.70446   0.22119   0.00000  Uiso   1.00
H460   H     0.03981   0.87042   0.01608   0.00000  Uiso   1.00
H461   H     0.20483   0.77635   0.36819   0.00000  Uiso   1.00
H462   H     0.24442   0.96242   0.22100   0.00000  Uiso   1.00
H463   H     0.29986   0.84387   0.09573   0.00000  Uiso   1.00
H464   H     0.29067   0.78935   0.11544   0.00000  Uiso   1.00
H465   H     0.33189   0.80340   0.05227   0.00000  Uiso   1.00
H466   H     0.25598   0.95419   0.31945   0.00000  Uiso   1.00
H467   H     0.30974   0.94080   0.26671   0.00000  Uiso   1.00
H468   H     0.30541   0.93475   0.33724   0.00000  Uiso   1.00
H469   H     0.29268   0.72323   0.46513   0.00000  Uiso   1.00
H470   H     0.08900   0.70424   0.27727   0.00000  Uiso   1.00
H471   H     0.31428   0.73395   0.02125   0.00000  Uiso   1.00
H472   H     0.02156   0.73383   0.45385   0.00000  Uiso   1.00
H473   H     0.08604   0.74297   0.12291   0.00000  Uiso   1.00
H474   H     0.14635   0.73975   0.12461   0.00000  Uiso   1.00
H475   H     0.13386   0.73937   0.06113   0.00000  Uiso   1.00
H476   H     0.08902   0.96225   0.27761   0.00000  Uiso   1.00
H477   H     0.30529   0.77935   0.20135   0.00000  Uiso   1.00
H478   H     0.05584   0.77918   0.20225   0.00000  Uiso   1.00
H479   H     0.02856   0.88521   0.30126   0.00000  Uiso   1.00
H480   H     0.26942   0.77229   0.40476   0.00000  Uiso   1.00
H481   H     0.05765   0.85877   0.42002   0.00000  Uiso   1.00
H482   H     0.09623   0.85034   0.06055   0.00000  Uiso   1.00
N483   N     0.04760   0.83334   0.25002   0.00000  Uiso   1.00
N484   N     0.28573   0.83331   0.25000   0.00000  Uiso   1.00
O485   O     0.12846   0.89442   0.25000   0.00000  Uiso   1.00
O486   O     0.31130   0.78519   0.47352   0.00000  Uiso   1.00
O487   O     0.12569   0.79681   0.10176   0.00000  Uiso   1.00
O488   O     0.20490   0.89441   0.25000   0.00000  Uiso   1.00
O489   O     0.10947   0.83333   0.32681   0.00000  Uiso   1.00
O490   O     0.18591   0.83332   0.32681   0.00000  Uiso   1.00
O491   O     0.12843   0.77226   0.24999   0.00000  Uiso   1.00
O492   O     0.20488   0.77225   0.24999   0.00000  Uiso   1.00
O493   O     0.14742   0.83335   0.17319   0.00000  Uiso   1.00
O494   O     0.22387   0.83334   0.17319   0.00000  Uiso   1.00
O495   O     0.26715   0.89126   0.30870   0.00000  Uiso   1.00
Zn496  Zn    0.11562   0.83334   0.25000   0.00000  Uiso   1.00
Zn497  Zn    0.21771   0.83333   0.25000   0.00000  Uiso   1.00
C498   C     0.50006   0.91337   0.24994   0.00000  Uiso   1.00
C499   C     0.45821   0.82716   0.40984   0.00000  Uiso   1.00
C500   C     0.54379   0.97872   0.23377   0.00000  Uiso   1.00
C501   C     0.47391   0.83081   0.35171   0.00000  Uiso   1.00
C502   C     0.54377   0.68808   0.23377   0.00000  Uiso   1.00
C503   C     0.50003   0.70917   0.24942   0.00000  Uiso   1.00
C504   C     0.45632   0.68795   0.26482   0.00000  Uiso   1.00
C505   C     0.45635   0.97861   0.26502   0.00000  Uiso   1.00
C506   C     0.50009   0.95751   0.24964   0.00000  Uiso   1.00
C507   C     0.65054   0.80347   0.22280   0.00000  Uiso   1.00
C508   C     0.36503   0.80344   0.22301   0.00000  Uiso   1.00
C509   C     0.47968   0.81897   0.49083   0.00000  Uiso   1.00
C510   C     0.34943   0.86278   0.27812   0.00000  Uiso   1.00
C511   C     0.63429   0.86334   0.27792   0.00000  Uiso   1.00
C512   C     0.50000   0.75329   0.24979   0.00000  Uiso   1.00
C513   C     0.52619   0.82908   0.14831   0.00000  Uiso   1.00
C514   C     0.59865   0.79557   0.00525   0.00000  Uiso   1.00
C515   C     0.54117   0.81649   0.09137   0.00000  Uiso   1.00
C516   C     0.41516   0.84635   0.43956   0.00000  Uiso   1.00
C517   C     0.40502   0.85330   0.49397   0.00000  Uiso   1.00
C518   C     0.43725   0.84072   0.01933   0.00000  Uiso   1.00
C519   C     0.63019   0.81163   0.08181   0.00000  Uiso   1.00
C520   C     0.48958   0.81103   0.43581   0.00000  Uiso   1.00
C521   C     0.61951   0.93177   0.30752   0.00000  Uiso   1.00
C522   C     0.65133   0.74217   0.47912   0.00000  Uiso   1.00
C523   C     0.45683   0.75284   0.10228   0.00000  Uiso   1.00
C524   C     0.51488   0.80872   0.01444   0.00000  Uiso   1.00
C525   C     0.56142   0.79697   0.48255   0.00000  Uiso   1.00
C526   C     0.56885   0.78510   0.42951   0.00000  Uiso   1.00
C527   C     0.53199   0.78909   0.40783   0.00000  Uiso   1.00
C528   C     0.50442   0.80872   0.06956   0.00000  Uiso   1.00
C529   C     0.58944   0.80883   0.05902   0.00000  Uiso   1.00
H530   H     0.57775   0.70446   0.22119   0.00000  Uiso   1.00
H531   H     0.37314   0.87042   0.01608   0.00000  Uiso   1.00
H532   H     0.53817   0.77635   0.36819   0.00000  Uiso   1.00
H533   H     0.57775   0.96242   0.22100   0.00000  Uiso   1.00
H534   H     0.63319   0.84387   0.09573   0.00000  Uiso   1.00
H535   H     0.62400   0.78935   0.11544   0.00000  Uiso   1.00
H536   H     0.66522   0.80340   0.05227   0.00000  Uiso   1.00
H537   H     0.58932   0.95419   0.31945   0.00000  Uiso   1.00
H538   H     0.64308   0.94080   0.26671   0.00000  Uiso   1.00
H539   H     0.63875   0.93475   0.33724   0.00000  Uiso   1.00
H540   H     0.62601   0.72323   0.46513   0.00000  Uiso   1.00
H541   H     0.42233   0.70424   0.27727   0.00000  Uiso   1.00
H542   H     0.64761   0.73395   0.02125   0.00000  Uiso   1.00
H543   H     0.35489   0.73383   0.45385   0.00000  Uiso   1.00
H544   H     0.41937   0.74297   0.12291   0.00000  Uiso   1.00
H545   H     0.47968   0.73975   0.12461   0.00000  Uiso   1.00
H546   H     0.46719   0.73937   0.06113   0.00000  Uiso   1.00
H547   H     0.42235   0.96225   0.27761   0.00000  Uiso   1.00
H548   H     0.63862   0.77935   0.20135   0.00000  Uiso   1.00
H549   H     0.38917   0.77918   0.20225   0.00000  Uiso   1.00
H550   H     0.36189   0.88521   0.30126   0.00000  Uiso   1.00
H551   H     0.60275   0.77229   0.40476   0.00000  Uiso   1.00
H552   H     0.39099   0.85877   0.42002   0.00000  Uiso   1.00
H553   H     0.42956   0.85034   0.06055   0.00000  Uiso   1.00
N554   N     0.38093   0.83334   0.25002   0.00000  Uiso   1.00
N555   N     0.61906   0.83331   0.25000   0.00000  Uiso   1.00
O556   O     0.46179   0.89442   0.25000   0.00000  Uiso   1.00
O557   O     0.64463   0.78519   0.47352   0.00000  Uiso   1.00
O558   O     0.45902   0.79681   0.10176   0.00000  Uiso   1.00
O559   O     0.53823   0.89441   0.25000   0.00000  Uiso   1.00
O560   O     0.44280   0.83333   0.32681   0.00000  Uiso   1.00
O561   O     0.51924   0.83332   0.32681   0.00000  Uiso   1.00
O562   O     0.46177   0.77226   0.24999   0.00000  Uiso   1.00
O563   O     0.53821   0.77225   0.24999   0.00000  Uiso   1.00
O564   O     0.48076   0.83335   0.17319   0.00000  Uiso   1.00
O565   O     0.55720   0.83334   0.17319   0.00000  Uiso   1.00
O566   O     0.60049   0.89126   0.30870   0.00000  Uiso   1.00
Zn567  Zn    0.44896   0.83334   0.25000   0.00000  Uiso   1.00
Zn568  Zn    0.55104   0.83333   0.25000   0.00000  Uiso   1.00
C569   C     0.83339   0.91337   0.24994   0.00000  Uiso   1.00
C570   C     0.79155   0.82716   0.40984   0.00000  Uiso   1.00
C571   C     0.87712   0.97872   0.23377   0.00000  Uiso   1.00
C572   C     0.80724   0.83081   0.35171   0.00000  Uiso   1.00
C573   C     0.87710   0.68808   0.23377   0.00000  Uiso   1.00
C574   C     0.83336   0.70917   0.24942   0.00000  Uiso   1.00
C575   C     0.78966   0.68795   0.26482   0.00000  Uiso   1.00
C576   C     0.78968   0.97861   0.26502   0.00000  Uiso   1.00
C577   C     0.83342   0.95751   0.24964   0.00000  Uiso   1.00
C578   C     0.98388   0.80347   0.22280   0.00000  Uiso   1.00
C579   C     0.69836   0.80344   0.22301   0.00000  Uiso   1.00
C580   C     0.81301   0.81897   0.49083   0.00000  Uiso   1.00
C581   C     0.68277   0.86278   0.27812   0.00000  Uiso   1.00
C582   C     0.96763   0.86334   0.27792   0.00000  Uiso   1.00
C583   C     0.83334   0.75329   0.24979   0.00000  Uiso   1.00
C584   C     0.85952   0.82908   0.14831   0.00000  Uiso   1.00
C585   C     0.93198   0.79557   0.00525   0.00000  Uiso   1.00
C586   C     0.87451   0.81649   0.09137   0.00000  Uiso   1.00
C587   C     0.74849   0.84635   0.43956   0.00000  Uiso   1.00
C588   C     0.73835   0.85330   0.49397   0.00000  Uiso   1.00
C589   C     0.77059   0.84072   0.01933   0.00000  Uiso   1.00
C590   C     0.96352   0.81163   0.08181   0.00000  Uiso   1.00
C591   C     0.82291   0.81103   0.43581   0.00000  Uiso   1.00
C592   C     0.95284   0.93177   0.30752   0.00000  Uiso   1.00
C593   C     0.98466   0.74217   0.47912   0.00000  Uiso   1.00
C594   C     0.79016   0.75284   0.10228   0.00000  Uiso   1.00
C595   C     0.84822   0.80872   0.01444   0.00000  Uiso   1.00
C596   C     0.89476   0.79697   0.48255   0.00000  Uiso   1.00
C597   C     0.90218   0.78510   0.42951   0.00000  Uiso   1.00
C598   C     0.86532   0.78909   0.40783   0.00000  Uiso   1.00
C599   C     0.83776   0.80872   0.06956   0.00000  Uiso   1.00
C600   C     0.92278   0.80883   0.05902   0.00000  Uiso   1.00
H601   H     0.91108   0.70446   0.22119   0.00000  Uiso   1.00
H602   H     0.70647   0.87042   0.01608   0.00000  Uiso   1.00
H603   H     0.87150   0.77635   0.36819   0.00000  Uiso   1.00
H604   H     0.91109   0.96242   0.22100   0.00000  Uiso   1.00
H605   H     0.96653   0.84387   0.09573   0.00000  Uiso   1.00
H606   H     0.95733   0.78935   0.11544   0.00000  Uiso   1.00
H607   H     0.99856   0.80340   0.05227   0.00000  Uiso   1.00
H608   H     0.92265   0.95419   0.31945   0.00000  Uiso   1.00
H609   H     0.97641   0.94080   0.26671   0.00000  Uiso   1.00
H610   H     0.97208   0.93475   0.33724   0.00000  Uiso   1.00
H611   H     0.95935   0.72323   0.46513   0.00000  Uiso   1.00
H612   H     0.75566   0.70424   0.27727   0.00000  Uiso   1.00
H613   H     0.98095   0.73395   0.02125   0.00000  Uiso   1.00
H614   H     0.68823   0.73383   0.45385   0.00000  Uiso   1.00
H615   H     0.75270   0.74297   0.12291   0.00000  Uiso   1.00
H616   H     0.81302   0.73975   0.12461   0.00000  Uiso   1.00
H617   H     0.80053   0.73937   0.06113   0.00000  Uiso   1.00
H618   H     0.75569   0.96225   0.27761   0.00000  Uiso   1.00
H619   H     0.97195   0.77935   0.20135   0.00000  Uiso   1.00
H620   H     0.72250   0.77918   0.20225   0.00000  Uiso   1.00
H621   H     0.69522   0.88521   0.30126   0.00000  Uiso   1.00
H622   H     0.93608   0.77229   0.40476   0.00000  Uiso   1.00
H623   H     0.72432   0.85877   0.42002   0.00000  Uiso   1.00
H624   H     0.76289   0.85034   0.06055   0.00000  Uiso   1.00
N625   N     0.71426   0.83334   0.25002   0.00000  Uiso   1.00
N626   N     0.95239   0.83331   0.25000   0.00000  Uiso   1.00
O627   O     0.79512   0.89442   0.25000   0.00000  Uiso   1.00
O628   O     0.97797   0.78519   0.47352   0.00000  Uiso   1.00
O629   O     0.79236   0.79681   0.10176   0.00000  Uiso   1.00
O630   O     0.87157   0.89441   0.25000   0.00000  Uiso   1.00
O631   O     0.77613   0.83333   0.32681   0.00000  Uiso   1.00
O632   O     0.85258   0.83332   0.32681   0.00000  Uiso   1.00
O633   O     0.79510   0.77226   0.24999   0.00000  Uiso   1.00
O634   O     0.87154   0.77225   0.24999   0.00000  Uiso   1.00
O635   O     0.81409   0.83335   0.17319   0.00000  Uiso   1.00
O636   O     0.89053   0.83334   0.17319   0.00000  Uiso   1.00
O637   O     0.93382   0.89126   0.30870   0.00000  Uiso   1.00
Zn638  Zn    0.78229   0.83334   0.25000   0.00000  Uiso   1.00
Zn639  Zn    0.88438   0.83333   0.25000   0.00000  Uiso   1.00
C640   C     0.16672   0.24671   0.74994   0.00000  Uiso   1.00
C641   C     0.12488   0.16049   0.90984   0.00000  Uiso   1.00
C642   C     0.21046   0.31206   0.73377   0.00000  Uiso   1.00
C643   C     0.14057   0.16414   0.85171   0.00000  Uiso   1.00
C644   C     0.21044   0.02141   0.73377   0.00000  Uiso   1.00
C645   C     0.16670   0.04250   0.74942   0.00000  Uiso   1.00
C646   C     0.12299   0.02129   0.76482   0.00000  Uiso   1.00
C647   C     0.12301   0.31195   0.76502   0.00000  Uiso   1.00
C648   C     0.16676   0.29085   0.74964   0.00000  Uiso   1.00
C649   C     0.31721   0.13681   0.72280   0.00000  Uiso   1.00
C650   C     0.03170   0.13677   0.72301   0.00000  Uiso   1.00
C651   C     0.14635   0.15230   0.99083   0.00000  Uiso   1.00
C652   C     0.01610   0.19611   0.77812   0.00000  Uiso   1.00
C653   C     0.30096   0.19667   0.77792   0.00000  Uiso   1.00
C654   C     0.16667   0.08663   0.74979   0.00000  Uiso   1.00
C655   C     0.19285   0.16241   0.64831   0.00000  Uiso   1.00
C656   C     0.26532   0.12891   0.50525   0.00000  Uiso   1.00
C657   C     0.20784   0.14982   0.59137   0.00000  Uiso   1.00
C658   C     0.08183   0.17968   0.93956   0.00000  Uiso   1.00
C659   C     0.07168   0.18663   0.99397   0.00000  Uiso   1.00
C660   C     0.10392   0.17405   0.51933   0.00000  Uiso   1.00
C661   C     0.29686   0.14496   0.58181   0.00000  Uiso   1.00
C662   C     0.15625   0.14437   0.93581   0.00000  Uiso   1.00
C663   C     0.28618   0.26510   0.80752   0.00000  Uiso   1.00
C664   C     0.31799   0.07550   0.97912   0.00000  Uiso   1.00
C665   C     0.12350   0.08618   0.60228   0.00000  Uiso   1.00
C666   C     0.18155   0.14205   0.51444   0.00000  Uiso   1.00
C667   C     0.22809   0.13030   0.98255   0.00000  Uiso   1.00
C668   C     0.23551   0.11843   0.92951   0.00000  Uiso   1.00
C669   C     0.19865   0.12243   0.90783   0.00000  Uiso   1.00
C670   C     0.17109   0.14205   0.56956   0.00000  Uiso   1.00
C671   C     0.25611   0.14217   0.55902   0.00000  Uiso   1.00
H672   H     0.24441   0.03779   0.72119   0.00000  Uiso   1.00
H673   H     0.03981   0.20375   0.51608   0.00000  Uiso   1.00
H674   H     0.20483   0.10968   0.86819   0.00000  Uiso   1.00
H675   H     0.24442   0.29576   0.72100   0.00000  Uiso   1.00
H676   H     0.29986   0.17720   0.59573   0.00000  Uiso   1.00
H677   H     0.29067   0.12269   0.61544   0.00000  Uiso   1.00
H678   H     0.33189   0.13673   0.55227   0.00000  Uiso   1.00
H679   H     0.25598   0.28753   0.81945   0.00000  Uiso   1.00
H680   H     0.30974   0.27413   0.76671   0.00000  Uiso   1.00
H681   H     0.30541   0.26808   0.83724   0.00000  Uiso   1.00
H682   H     0.29268   0.05657   0.96513   0.00000  Uiso   1.00
H683   H     0.08900   0.03757   0.77727   0.00000  Uiso   1.00
H684   H     0.31428   0.06728   0.52125   0.00000  Uiso   1.00
H685   H     0.02156   0.06716   0.95385   0.00000  Uiso   1.00
H686   H     0.08604   0.07630   0.62291   0.00000  Uiso   1.00
H687   H     0.14635   0.07309   0.62461   0.00000  Uiso   1.00
H688   H     0.13386   0.07270   0.56113   0.00000  Uiso   1.00
H689   H     0.08902   0.29558   0.77761   0.00000  Uiso   1.00
H690   H     0.30529   0.11268   0.70135   0.00000  Uiso   1.00
H691   H     0.05584   0.11251   0.70225   0.00000  Uiso   1.00
H692   H     0.02856   0.21854   0.80126   0.00000  Uiso   1.00
H693   H     0.26942   0.10562   0.90476   0.00000  Uiso   1.00
H694   H     0.05765   0.19210   0.92002   0.00000  Uiso   1.00
H695   H     0.09623   0.18367   0.56055   0.00000  Uiso   1.00
N696   N     0.04760   0.16668   0.75002   0.00000  Uiso   1.00
N697   N     0.28573   0.16665   0.75000   0.00000  Uiso   1.00
O698   O     0.12846   0.22775   0.75000   0.00000  Uiso   1.00
O699   O     0.31130   0.11852   0.97352   0.00000  Uiso   1.00
O700   O     0.12569   0.13015   0.60176   0.00000  Uiso   1.00
O701   O     0.20490   0.22774   0.75000   0.00000  Uiso   1.00
O702   O     0.10947   0.16666   0.82681   0.00000  Uiso   1.00
O703   O     0.18591   0.16665   0.82681   0.00000  Uiso   1.00
O704   O     0.12843   0.10559   0.74999   0.00000  Uiso   1.00
O705   O     0.20488   0.10558   0.74999   0.00000  Uiso   1.00
O706   O     0.14742   0.16668   0.67319   0.00000  Uiso   1.00
O707   O     0.22387   0.16667   0.67319   0.00000  Uiso   1.00
O708   O     0.26715   0.22459   0.80870   0.00000  Uiso   1.00
Zn709  Zn    0.11562   0.16667   0.75000   0.00000  Uiso   1.00
Zn710  Zn    0.21771   0.16666   0.75000   0.00000  Uiso   1.00
C711   C     0.50006   0.24671   0.74994   0.00000  Uiso   1.00
C712   C     0.45821   0.16049   0.90984   0.00000  Uiso   1.00
C713   C     0.54379   0.31206   0.73377   0.00000  Uiso   1.00
C714   C     0.47391   0.16414   0.85171   0.00000  Uiso   1.00
C715   C     0.54377   0.02141   0.73377   0.00000  Uiso   1.00
C716   C     0.50003   0.04250   0.74942   0.00000  Uiso   1.00
C717   C     0.45632   0.02129   0.76482   0.00000  Uiso   1.00
C718   C     0.45635   0.31195   0.76502   0.00000  Uiso   1.00
C719   C     0.50009   0.29085   0.74964   0.00000  Uiso   1.00
C720   C     0.65054   0.13681   0.72280   0.00000  Uiso   1.00
C721   C     0.36503   0.13677   0.72301   0.00000  Uiso   1.00
C722   C     0.47968   0.15230   0.99083   0.00000  Uiso   1.00
C723   C     0.34943   0.19611   0.77812   0.00000  Uiso   1.00
C724   C     0.63429   0.19667   0.77792   0.00000  Uiso   1.00
C725   C     0.50000   0.08663   0.74979   0.00000  Uiso   1.00
C726   C     0.52619   0.16241   0.64831   0.00000  Uiso   1.00
C727   C     0.59865   0.12891   0.50525   0.00000  Uiso   1.00
C728   C     0.54117   0.14982   0.59137   0.00000  Uiso   1.00
C729   C     0.41516   0.17968   0.93956   0.00000  Uiso   1.00
C730   C     0.40502   0.18663   0.99397   0.00000  Uiso   1.00
C731   C     0.43725   0.17405   0.51933   0.00000  Uiso   1.00
C732   C     0.63019   0.14496   0.58181   0.00000  Uiso   1.00
C733   C     0.48958   0.14437   0.93581   0.00000  Uiso   1.00
C734   C     0.61951   0.26510   0.80752   0.00000  Uiso   1.00
C735   C     0.65133   0.07550   0.97912   0.00000  Uiso   1.00
C736   C     0.45683   0.08618   0.60228   0.00000  Uiso   1.00
C737   C     0.51488   0.14205   0.51444   0.00000  Uiso   1.00
C738   C     0.56142   0.13030   0.98255   0.00000  Uiso   1.00
C739   C     0.56885   0.11843   0.92951   0.00000  Uiso   1.00
C740   C     0.53199   0.12243   0.90783   0.00000  Uiso   1.00
C741   C     0.50442   0.14205   0.56956   0.00000  Uiso   1.00
C742   C     0.58944   0.14217   0.55902   0.00000  Uiso   1.00
H743   H     0.57775   0.03779   0.72119   0.00000  Uiso   1.00
H744   H     0.37314   0.20375   0.51608   0.00000  Uiso   1.00
H745   H     0.53817   0.10968   0.86819   0.00000  Uiso   1.00
H746   H     0.57775   0.29576   0.72100   0.00000  Uiso   1.00
H747   H     0.63319   0.17720   0.59573   0.00000  Uiso   1.00
H748   H     0.62400   0.12269   0.61544   0.00000  Uiso   1.00
H749   H     0.66522   0.13673   0.55227   0.00000  Uiso   1.00
H750   H     0.58932   0.28753   0.81945   0.00000  Uiso   1.00
H751   H     0.64308   0.27413   0.76671   0.00000  Uiso   1.00
H752   H     0.63875   0.26808   0.83724   0.00000  Uiso   1.00
H753   H     0.62601   0.05657   0.96513   0.00000  Uiso   1.00
H754   H     0.42233   0.03757   0.77727   0.00000  Uiso   1.00
H755   H     0.64761   0.06728   0.52125   0.00000  Uiso   1.00
H756   H     0.35489   0.06716   0.95385   0.00000  Uiso   1.00
H757   H     0.41937   0.07630   0.62291   0.00000  Uiso   1.00
H758   H     0.47968   0.07309   0.62461   0.00000  Uiso   1.00
H759   H     0.46719   0.07270   0.56113   0.00000  Uiso   1.00
H760   H     0.42235   0.29558   0.77761   0.00000  Uiso   1.00
H761   H     0.63862   0.11268   0.70135   0.00000  Uiso   1.00
H762   H     0.38917   0.11251   0.70225   0.00000  Uiso   1.00
H763   H     0.36189   0.21854   0.80126   0.00000  Uiso   1.00
H764   H     0.60275   0.10562   0.90476   0.00000  Uiso   1.00
H765   H     0.39099   0.19210   0.92002   0.00000  Uiso   1.00
H766   H     0.42956   0.18367   0.56055   0.00000  Uiso   1.00
N767   N     0.38093   0.16668   0.75002   0.00000  Uiso   1.00
N768   N     0.61906   0.16665   0.75000   0.00000  Uiso   1.00
O769   O     0.46179   0.22775   0.75000   0.00000  Uiso   1.00
O770   O     0.64463   0.11852   0.97352   0.00000  Uiso   1.00
O771   O     0.45902   0.13015   0.60176   0.00000  Uiso   1.00
O772   O     0.53823   0.22774   0.75000   0.00000  Uiso   1.00
O773   O     0.44280   0.16666   0.82681   0.00000  Uiso   1.00
O774   O     0.51924   0.16665   0.82681   0.00000  Uiso   1.00
O775   O     0.46177   0.10559   0.74999   0.00000  Uiso   1.00
O776   O     0.53821   0.10558   0.74999   0.00000  Uiso   1.00
O777   O     0.48076   0.16668   0.67319   0.00000  Uiso   1.00
O778   O     0.55720   0.16667   0.67319   0.00000  Uiso   1.00
O779   O     0.60049   0.22459   0.80870   0.00000  Uiso   1.00
Zn780  Zn    0.44896   0.16667   0.75000   0.00000  Uiso   1.00
Zn781  Zn    0.55104   0.16666   0.75000   0.00000  Uiso   1.00
C782   C     0.83339   0.24671   0.74994   0.00000  Uiso   1.00
C783   C     0.79155   0.16049   0.90984   0.00000  Uiso   1.00
C784   C     0.87712   0.31206   0.73377   0.00000  Uiso   1.00
C785   C     0.80724   0.16414   0.85171   0.00000  Uiso   1.00
C786   C     0.87710   0.02141   0.73377   0.00000  Uiso   1.00
C787   C     0.83336   0.04250   0.74942   0.00000  Uiso   1.00
C788   C     0.78966   0.02129   0.76482   0.00000  Uiso   1.00
C789   C     0.78968   0.31195   0.76502   0.00000  Uiso   1.00
C790   C     0.83342   0.29085   0.74964   0.00000  Uiso   1.00
C791   C     0.98388   0.13681   0.72280   0.00000  Uiso   1.00
C792   C     0.69836   0.13677   0.72301   0.00000  Uiso   1.00
C793   C     0.81301   0.15230   0.99083   0.00000  Uiso   1.00
C794   C     0.68277   0.19611   0.77812   0.00000  Uiso   1.00
C795   C     0.96763   0.19667   0.77792   0.00000  Uiso   1.00
C796   C     0.83334   0.08663   0.74979   0.00000  Uiso   1.00
C797   C     0.85952   0.16241   0.64831   0.00000  Uiso   1.00
C798   C     0.93198   0.12891   0.50525   0.00000  Uiso   1.00
C799   C     0.87451   0.14982   0.59137   0.00000  Uiso   1.00
C800   C     0.74849   0.17968   0.93956   0.00000  Uiso   1.00
C801   C     0.73835   0.18663   0.99397   0.00000  Uiso   1.00
C802   C     0.77059   0.17405   0.51933   0.00000  Uiso   1.00
C803   C     0.96352   0.14496   0.58181   0.00000  Uiso   1.00
C804   C     0.82291   0.14437   0.93581   0.00000  Uiso   1.00
C805   C     0.95284   0.26510   0.80752   0.00000  Uiso   1.00
C806   C     0.98466   0.07550   0.97912   0.00000  Uiso   1.00
C807   C     0.79016   0.08618   0.60228   0.00000  Uiso   1.00
C808   C     0.84822   0.14205   0.51444   0.00000  Uiso   1.00
C809   C     0.89476   0.13030   0.98255   0.00000  Uiso   1.00
C810   C     0.90218   0.11843   0.92951   0.00000  Uiso   1.00
C811   C     0.86532   0.12243   0.90783   0.00000  Uiso   1.00
C812   C     0.83776   0.14205   0.56956   0.00000  Uiso   1.00
C813   C     0.92278   0.14217   0.55902   0.00000  Uiso   1.00
H814   H     0.91108   0.03779   0.72119   0.00000  Uiso   1.00
H815   H     0.70647   0.20375   0.51608   0.00000  Uiso   1.00
H816   H     0.87150   0.10968   0.86819   0.00000  Uiso   1.00
H817   H     0.91109   0.29576   0.72100   0.00000  Uiso   1.00
H818   H     0.96653   0.17720   0.59573   0.00000  Uiso   1.00
H819   H     0.95733   0.12269   0.61544   0.00000  Uiso   1.00
H820   H     0.99856   0.13673   0.55227   0.00000  Uiso   1.00
H821   H     0.92265   0.28753   0.81945   0.00000  Uiso   1.00
H822   H     0.97641   0.27413   0.76671   0.00000  Uiso   1.00
H823   H     0.97208   0.26808   0.83724   0.00000  Uiso   1.00
H824   H     0.95935   0.05657   0.96513   0.00000  Uiso   1.00
H825   H     0.75566   0.03757   0.77727   0.00000  Uiso   1.00
H826   H     0.98095   0.06728   0.52125   0.00000  Uiso   1.00
H827   H     0.68823   0.06716   0.95385   0.00000  Uiso   1.00
H828   H     0.75270   0.07630   0.62291   0.00000  Uiso   1.00
H829   H     0.81302   0.07309   0.62461   0.00000  Uiso   1.00
H830   H     0.80053   0.07270   0.56113   0.00000  Uiso   1.00
H831   H     0.75569   0.29558   0.77761   0.00000  Uiso   1.00
H832   H     0.97195   0.11268   0.70135   0.00000  Uiso   1.00
H833   H     0.72250   0.11251   0.70225   0.00000  Uiso   1.00
H834   H     0.69522   0.21854   0.80126   0.00000  Uiso   1.00
H835   H     0.93608   0.10562   0.90476   0.00000  Uiso   1.00
H836   H     0.72432   0.19210   0.92002   0.00000  Uiso   1.00
H837   H     0.76289   0.18367   0.56055   0.00000  Uiso   1.00
N838   N     0.71426   0.16668   0.75002   0.00000  Uiso   1.00
N839   N     0.95239   0.16665   0.75000   0.00000  Uiso   1.00
O840   O     0.79512   0.22775   0.75000   0.00000  Uiso   1.00
O841   O     0.97797   0.11852   0.97352   0.00000  Uiso   1.00
O842   O     0.79236   0.13015   0.60176   0.00000  Uiso   1.00
O843   O     0.87157   0.22774   0.75000   0.00000  Uiso   1.00
O844   O     0.77613   0.16666   0.82681   0.00000  Uiso   1.00
O845   O     0.85258   0.16665   0.82681   0.00000  Uiso   1.00
O846   O     0.79510   0.10559   0.74999   0.00000  Uiso   1.00
O847   O     0.87154   0.10558   0.74999   0.00000  Uiso   1.00
O848   O     0.81409   0.16668   0.67319   0.00000  Uiso   1.00
O849   O     0.89053   0.16667   0.67319   0.00000  Uiso   1.00
O850   O     0.93382   0.22459   0.80870   0.00000  Uiso   1.00
Zn851  Zn    0.78229   0.16667   0.75000   0.00000  Uiso   1.00
Zn852  Zn    0.88438   0.16666   0.75000   0.00000  Uiso   1.00
C853   C     0.16672   0.58004   0.74994   0.00000  Uiso   1.00
C854   C     0.12488   0.49383   0.90984   0.00000  Uiso   1.00
C855   C     0.21046   0.64539   0.73377   0.00000  Uiso   1.00
C856   C     0.14057   0.49748   0.85171   0.00000  Uiso   1.00
C857   C     0.21044   0.35474   0.73377   0.00000  Uiso   1.00
C858   C     0.16670   0.37583   0.74942   0.00000  Uiso   1.00
C859   C     0.12299   0.35462   0.76482   0.00000  Uiso   1.00
C860   C     0.12301   0.64528   0.76502   0.00000  Uiso   1.00
C861   C     0.16676   0.62418   0.74964   0.00000  Uiso   1.00
C862   C     0.31721   0.47014   0.72280   0.00000  Uiso   1.00
C863   C     0.03170   0.47011   0.72301   0.00000  Uiso   1.00
C864   C     0.14635   0.48563   0.99083   0.00000  Uiso   1.00
C865   C     0.01610   0.52944   0.77812   0.00000  Uiso   1.00
C866   C     0.30096   0.53001   0.77792   0.00000  Uiso   1.00
C867   C     0.16667   0.41996   0.74979   0.00000  Uiso   1.00
C868   C     0.19285   0.49575   0.64831   0.00000  Uiso   1.00
C869   C     0.26532   0.46224   0.50525   0.00000  Uiso   1.00
C870   C     0.20784   0.48315   0.59137   0.00000  Uiso   1.00
C871   C     0.08183   0.51301   0.93956   0.00000  Uiso   1.00
C872   C     0.07168   0.51996   0.99397   0.00000  Uiso   1.00
C873   C     0.10392   0.50738   0.51933   0.00000  Uiso   1.00
C874   C     0.29686   0.47829   0.58181   0.00000  Uiso   1.00
C875   C     0.15625   0.47770   0.93581   0.00000  Uiso   1.00
C876   C     0.28618   0.59844   0.80752   0.00000  Uiso   1.00
C877   C     0.31799   0.40883   0.97912   0.00000  Uiso   1.00
C878   C     0.12350   0.41951   0.60228   0.00000  Uiso   1.00
C879   C     0.18155   0.47539   0.51444   0.00000  Uiso   1.00
C880   C     0.22809   0.46363   0.98255   0.00000  Uiso   1.00
C881   C     0.23551   0.45176   0.92951   0.00000  Uiso   1.00
C882   C     0.19865   0.45576   0.90783   0.00000  Uiso   1.00
C883   C     0.17109   0.47538   0.56956   0.00000  Uiso   1.00
C884   C     0.25611   0.47550   0.55902   0.00000  Uiso   1.00
H885   H     0.24441   0.37113   0.72119   0.00000  Uiso   1.00
H886   H     0.03981   0.53709   0.51608   0.00000  Uiso   1.00
H887   H     0.20483   0.44302   0.86819   0.00000  Uiso   1.00
H888   H     0.24442   0.62909   0.72100   0.00000  Uiso   1.00
H889   H     0.29986   0.51053   0.59573   0.00000  Uiso   1.00
H890   H     0.29067   0.45602   0.61544   0.00000  Uiso   1.00
H891   H     0.33189   0.47006   0.55227   0.00000  Uiso   1.00
H892   H     0.25598   0.62086   0.81945   0.00000  Uiso   1.00
H893   H     0.30974   0.60746   0.76671   0.00000  Uiso   1.00
H894   H     0.30541   0.60142   0.83724   0.00000  Uiso   1.00
H895   H     0.29268   0.38990   0.96513   0.00000  Uiso   1.00
H896   H     0.08900   0.37090   0.77727   0.00000  Uiso   1.00
H897   H     0.31428   0.40061   0.52125   0.00000  Uiso   1.00
H898   H     0.02156   0.40050   0.95385   0.00000  Uiso   1.00
H899   H     0.08604   0.40964   0.62291   0.00000  Uiso   1.00
H900   H     0.14635   0.40642   0.62461   0.00000  Uiso   1.00
H901   H     0.13386   0.40603   0.56113   0.00000  Uiso   1.00
H902   H     0.08902   0.62891   0.77761   0.00000  Uiso   1.00
H903   H     0.30529   0.44601   0.70135   0.00000  Uiso   1.00
H904   H     0.05584   0.44584   0.70225   0.00000  Uiso   1.00
H905   H     0.02856   0.55187   0.80126   0.00000  Uiso   1.00
H906   H     0.26942   0.43895   0.90476   0.00000  Uiso   1.00
H907   H     0.05765   0.52543   0.92002   0.00000  Uiso   1.00
H908   H     0.09623   0.51701   0.56055   0.00000  Uiso   1.00
N909   N     0.04760   0.50001   0.75002   0.00000  Uiso   1.00
N910   N     0.28573   0.49998   0.75000   0.00000  Uiso   1.00
O911   O     0.12846   0.56108   0.75000   0.00000  Uiso   1.00
O912   O     0.31130   0.45186   0.97352   0.00000  Uiso   1.00
O913   O     0.12569   0.46348   0.60176   0.00000  Uiso   1.00
O914   O     0.20490   0.56107   0.75000   0.00000  Uiso   1.00
O915   O     0.10947   0.50000   0.82681   0.00000  Uiso   1.00
O916   O     0.18591   0.49999   0.82681   0.00000  Uiso   1.00
O917   O     0.12843   0.43893   0.74999   0.00000  Uiso   1.00
O918   O     0.20488   0.43892   0.74999   0.00000  Uiso   1.00
O919   O     0.14742   0.50001   0.67319   0.00000  Uiso   1.00
O920   O     0.22387   0.50000   0.67319   0.00000  Uiso   1.00
O921   O     0.26715   0.55793   0.80870   0.00000  Uiso   1.00
Zn922  Zn    0.11562   0.50001   0.75000   0.00000  Uiso   1.00
Zn923  Zn    0.21771   0.49999   0.75000   0.00000  Uiso   1.00
C924   C     0.50006   0.58004   0.74994   0.00000  Uiso   1.00
C925   C     0.45821   0.49383   0.90984   0.00000  Uiso   1.00
C926   C     0.54379   0.64539   0.73377   0.00000  Uiso   1.00
C927   C     0.47391   0.49748   0.85171   0.00000  Uiso   1.00
C928   C     0.54377   0.35474   0.73377   0.00000  Uiso   1.00
C929   C     0.50003   0.37583   0.74942   0.00000  Uiso   1.00
C930   C     0.45632   0.35462   0.76482   0.00000  Uiso   1.00
C931   C     0.45635   0.64528   0.76502   0.00000  Uiso   1.00
C932   C     0.50009   0.62418   0.74964   0.00000  Uiso   1.00
C933   C     0.65054   0.47014   0.72280   0.00000  Uiso   1.00
C934   C     0.36503   0.47011   0.72301   0.00000  Uiso   1.00
C935   C     0.47968   0.48563   0.99083   0.00000  Uiso   1.00
C936   C     0.34943   0.52944   0.77812   0.00000  Uiso   1.00
C937   C     0.63429   0.53001   0.77792   0.00000  Uiso   1.00
C938   C     0.50000   0.41996   0.74979   0.00000  Uiso   1.00
C939   C     0.52619   0.49575   0.64831   0.00000  Uiso   1.00
C940   C     0.59865   0.46224   0.50525   0.00000  Uiso   1.00
C941   C     0.54117   0.48315   0.59137   0.00000  Uiso   1.00
C942   C     0.41516   0.51301   0.93956   0.00000  Uiso   1.00
C943   C     0.40502   0.51996   0.99397   0.00000  Uiso   1.00
C944   C     0.43725   0.50738   0.51933   0.00000  Uiso   1.00
C945   C     0.63019   0.47829   0.58181   0.00000  Uiso   1.00
C946   C     0.48958   0.47770   0.93581   0.00000  Uiso   1.00
C947   C     0.61951   0.59844   0.80752   0.00000  Uiso   1.00
C948   C     0.65133   0.40883   0.97912   0.00000  Uiso   1.00
C949   C     0.45683   0.41951   0.60228   0.00000  Uiso   1.00
C950   C     0.51488   0.47539   0.51444   0.00000  Uiso   1.00
C951   C     0.56142   0.46363   0.98255   0.00000  Uiso   1.00
C952   C     0.56885   0.45176   0.92951   0.00000  Uiso   1.00
C953   C     0.53199   0.45576   0.90783   0.00000  Uiso   1.00
C954   C     0.50442   0.47538   0.56956   0.00000  Uiso   1.00
C955   C     0.58944   0.47550   0.55902   0.00000  Uiso   1.00
H956   H     0.57775   0.37113   0.72119   0.00000  Uiso   1.00
H957   H     0.37314   0.53709   0.51608   0.00000  Uiso   1.00
H958   H     0.53817   0.44302   0.86819   0.00000  Uiso   1.00
H959   H     0.57775   0.62909   0.72100   0.00000  Uiso   1.00
H960   H     0.63319   0.51053   0.59573   0.00000  Uiso   1.00
H961   H     0.62400   0.45602   0.61544   0.00000  Uiso   1.00
H962   H     0.66522   0.47006   0.55227   0.00000  Uiso   1.00
H963   H     0.58932   0.62086   0.81945   0.00000  Uiso   1.00
H964   H     0.64308   0.60746   0.76671   0.00000  Uiso   1.00
H965   H     0.63875   0.60142   0.83724   0.00000  Uiso   1.00
H966   H     0.62601   0.38990   0.96513   0.00000  Uiso   1.00
H967   H     0.42233   0.37090   0.77727   0.00000  Uiso   1.00
H968   H     0.64761   0.40061   0.52125   0.00000  Uiso   1.00
H969   H     0.35489   0.40050   0.95385   0.00000  Uiso   1.00
H970   H     0.41937   0.40964   0.62291   0.00000  Uiso   1.00
H971   H     0.47968   0.40642   0.62461   0.00000  Uiso   1.00
H972   H     0.46719   0.40603   0.56113   0.00000  Uiso   1.00
H973   H     0.42235   0.62891   0.77761   0.00000  Uiso   1.00
H974   H     0.63862   0.44601   0.70135   0.00000  Uiso   1.00
H975   H     0.38917   0.44584   0.70225   0.00000  Uiso   1.00
H976   H     0.36189   0.55187   0.80126   0.00000  Uiso   1.00
H977   H     0.60275   0.43895   0.90476   0.00000  Uiso   1.00
H978   H     0.39099   0.52543   0.92002   0.00000  Uiso   1.00
H979   H     0.42956   0.51701   0.56055   0.00000  Uiso   1.00
N980   N     0.38093   0.50001   0.75002   0.00000  Uiso   1.00
N981   N     0.61906   0.49998   0.75000   0.00000  Uiso   1.00
O982   O     0.46179   0.56108   0.75000   0.00000  Uiso   1.00
O983   O     0.64463   0.45186   0.97352   0.00000  Uiso   1.00
O984   O     0.45902   0.46348   0.60176   0.00000  Uiso   1.00
O985   O     0.53823   0.56107   0.75000   0.00000  Uiso   1.00
O986   O     0.44280   0.50000   0.82681   0.00000  Uiso   1.00
O987   O     0.51924   0.49999   0.82681   0.00000  Uiso   1.00
O988   O     0.46177   0.43893   0.74999   0.00000  Uiso   1.00
O989   O     0.53821   0.43892   0.74999   0.00000  Uiso   1.00
O990   O     0.48076   0.50001   0.67319   0.00000  Uiso   1.00
O991   O     0.55720   0.50000   0.67319   0.00000  Uiso   1.00
O992   O     0.60049   0.55793   0.80870   0.00000  Uiso   1.00
Zn993  Zn    0.44896   0.50001   0.75000   0.00000  Uiso   1.00
Zn994  Zn    0.55104   0.49999   0.75000   0.00000  Uiso   1.00
C995   C     0.83339   0.58004   0.74994   0.00000  Uiso   1.00
C996   C     0.79155   0.49383   0.90984   0.00000  Uiso   1.00
C997   C     0.87712   0.64539   0.73377   0.00000  Uiso   1.00
C998   C     0.80724   0.49748   0.85171   0.00000  Uiso   1.00
C999   C     0.87710   0.35474   0.73377   0.00000  Uiso   1.00
C1000  C     0.83336   0.37583   0.74942   0.00000  Uiso   1.00
C1001  C     0.78966   0.35462   0.76482   0.00000  Uiso   1.00
C1002  C     0.78968   0.64528   0.76502   0.00000  Uiso   1.00
C1003  C     0.83342   0.62418   0.74964   0.00000  Uiso   1.00
C1004  C     0.98388   0.47014   0.72280   0.00000  Uiso   1.00
C1005  C     0.69836   0.47011   0.72301   0.00000  Uiso   1.00
C1006  C     0.81301   0.48563   0.99083   0.00000  Uiso   1.00
C1007  C     0.68277   0.52944   0.77812   0.00000  Uiso   1.00
C1008  C     0.96763   0.53001   0.77792   0.00000  Uiso   1.00
C1009  C     0.83334   0.41996   0.74979   0.00000  Uiso   1.00
C1010  C     0.85952   0.49575   0.64831   0.00000  Uiso   1.00
C1011  C     0.93198   0.46224   0.50525   0.00000  Uiso   1.00
C1012  C     0.87451   0.48315   0.59137   0.00000  Uiso   1.00
C1013  C     0.74849   0.51301   0.93956   0.00000  Uiso   1.00
C1014  C     0.73835   0.51996   0.99397   0.00000  Uiso   1.00
C1015  C     0.77059   0.50738   0.51933   0.00000  Uiso   1.00
C1016  C     0.96352   0.47829   0.58181   0.00000  Uiso   1.00
C1017  C     0.82291   0.47770   0.93581   0.00000  Uiso   1.00
C1018  C     0.95284   0.59844   0.80752   0.00000  Uiso   1.00
C1019  C     0.98466   0.40883   0.97912   0.00000  Uiso   1.00
C1020  C     0.79016   0.41951   0.60228   0.00000  Uiso   1.00
C1021  C     0.84822   0.47539   0.51444   0.00000  Uiso   1.00
C1022  C     0.89476   0.46363   0.98255   0.00000  Uiso   1.00
C1023  C     0.90218   0.45176   0.92951   0.00000  Uiso   1.00
C1024  C     0.86532   0.45576   0.90783   0.00000  Uiso   1.00
C1025  C     0.83776   0.47538   0.56956   0.00000  Uiso   1.00
C1026  C     0.92278   0.47550   0.55902   0.00000  Uiso   1.00
H1027  H     0.91108   0.37113   0.72119   0.00000  Uiso   1.00
H1028  H     0.70647   0.53709   0.51608   0.00000  Uiso   1.00
H1029  H     0.87150   0.44302   0.86819   0.00000  Uiso   1.00
H1030  H     0.91109   0.62909   0.72100   0.00000  Uiso   1.00
H1031  H     0.96653   0.51053   0.59573   0.00000  Uiso   1.00
H1032  H     0.95733   0.45602   0.61544   0.00000  Uiso   1.00
H1033  H     0.99856   0.47006   0.55227   0.00000  Uiso   1.00
H1034  H     0.92265   0.62086   0.81945   0.00000  Uiso   1.00
H1035  H     0.97641   0.60746   0.76671   0.00000  Uiso   1.00
H1036  H     0.97208   0.60142   0.83724   0.00000  Uiso   1.00
H1037  H     0.95935   0.38990   0.96513   0.00000  Uiso   1.00
H1038  H     0.75566   0.37090   0.77727   0.00000  Uiso   1.00
H1039  H     0.98095   0.40061   0.52125   0.00000  Uiso   1.00
H1040  H     0.68823   0.40050   0.95385   0.00000  Uiso   1.00
H1041  H     0.75270   0.40964   0.62291   0.00000  Uiso   1.00
H1042  H     0.81302   0.40642   0.62461   0.00000  Uiso   1.00
H1043  H     0.80053   0.40603   0.56113   0.00000  Uiso   1.00
H1044  H     0.75569   0.62891   0.77761   0.00000  Uiso   1.00
H1045  H     0.97195   0.44601   0.70135   0.00000  Uiso   1.00
H1046  H     0.72250   0.44584   0.70225   0.00000  Uiso   1.00
H1047  H     0.69522   0.55187   0.80126   0.00000  Uiso   1.00
H1048  H     0.93608   0.43895   0.90476   0.00000  Uiso   1.00
H1049  H     0.72432   0.52543   0.92002   0.00000  Uiso   1.00
H1050  H     0.76289   0.51701   0.56055   0.00000  Uiso   1.00
N1051  N     0.71426   0.50001   0.75002   0.00000  Uiso   1.00
N1052  N     0.95239   0.49998   0.75000   0.00000  Uiso   1.00
O1053  O     0.79512   0.56108   0.75000   0.00000  Uiso   1.00
O1054  O     0.97797   0.45186   0.97352   0.00000  Uiso   1.00
O1055  O     0.79236   0.46348   0.60176   0.00000  Uiso   1.00
O1056  O     0.87157   0.56107   0.75000   0.00000  Uiso   1.00
O1057  O     0.77613   0.50000   0.82681   0.00000  Uiso   1.00
O1058  O     0.85258   0.49999   0.82681   0.00000  Uiso   1.00
O1059  O     0.79510   0.43893   0.74999   0.00000  Uiso   1.00
O1060  O     0.87154   0.43892   0.74999   0.00000  Uiso   1.00
O1061  O     0.81409   0.50001   0.67319   0.00000  Uiso   1.00
O1062  O     0.89053   0.50000   0.67319   0.00000  Uiso   1.00
O1063  O     0.93382   0.55793   0.80870   0.00000  Uiso   1.00
Zn1064 Zn    0.78229   0.50001   0.75000   0.00000  Uiso   1.00
Zn1065 Zn    0.88438   0.49999   0.75000   0.00000  Uiso   1.00
C1066  C     0.16672   0.91337   0.74994   0.00000  Uiso   1.00
C1067  C     0.12488   0.82716   0.90984   0.00000  Uiso   1.00
C1068  C     0.21046   0.97872   0.73377   0.00000  Uiso   1.00
C1069  C     0.14057   0.83081   0.85171   0.00000  Uiso   1.00
C1070  C     0.21044   0.68808   0.73377   0.00000  Uiso   1.00
C1071  C     0.16670   0.70917   0.74942   0.00000  Uiso   1.00
C1072  C     0.12299   0.68795   0.76482   0.00000  Uiso   1.00
C1073  C     0.12301   0.97861   0.76502   0.00000  Uiso   1.00
C1074  C     0.16676   0.95751   0.74964   0.00000  Uiso   1.00
C1075  C     0.31721   0.80347   0.72280   0.00000  Uiso   1.00
C1076  C     0.03170   0.80344   0.72301   0.00000  Uiso   1.00
C1077  C     0.14635   0.81897   0.99083   0.00000  Uiso   1.00
C1078  C     0.01610   0.86278   0.77812   0.00000  Uiso   1.00
C1079  C     0.30096   0.86334   0.77792   0.00000  Uiso   1.00
C1080  C     0.16667   0.75329   0.74979   0.00000  Uiso   1.00
C1081  C     0.19285   0.82908   0.64831   0.00000  Uiso   1.00
C1082  C     0.26532   0.79557   0.50525   0.00000  Uiso   1.00
C1083  C     0.20784   0.81649   0.59137   0.00000  Uiso   1.00
C1084  C     0.08183   0.84635   0.93956   0.00000  Uiso   1.00
C1085  C     0.07168   0.85330   0.99397   0.00000  Uiso   1.00
C1086  C     0.10392   0.84072   0.51933   0.00000  Uiso   1.00
C1087  C     0.29686   0.81163   0.58181   0.00000  Uiso   1.00
C1088  C     0.15625   0.81103   0.93581   0.00000  Uiso   1.00
C1089  C     0.28618   0.93177   0.80752   0.00000  Uiso   1.00
C1090  C     0.31799   0.74217   0.97912   0.00000  Uiso   1.00
C1091  C     0.12350   0.75284   0.60228   0.00000  Uiso   1.00
C1092  C     0.18155   0.80872   0.51444   0.00000  Uiso   1.00
C1093  C     0.22809   0.79697   0.98255   0.00000  Uiso   1.00
C1094  C     0.23551   0.78510   0.92951   0.00000  Uiso   1.00
C1095  C     0.19865   0.78909   0.90783   0.00000  Uiso   1.00
C1096  C     0.17109   0.80872   0.56956   0.00000  Uiso   1.00
C1097  C     0.25611   0.80883   0.55902   0.00000  Uiso   1.00
H1098  H     0.24441   0.70446   0.72119   0.00000  Uiso   1.00
H1099  H     0.03981   0.87042   0.51608   0.00000  Uiso   1.00
H1100  H     0.20483   0.77635   0.86819   0.00000  Uiso   1.00
H1101  H     0.24442   0.96242   0.72100   0.00000  Uiso   1.00
H1102  H     0.29986   0.84387   0.59573   0.00000  Uiso   1.00
H1103  H     0.29067   0.78935   0.61544   0.00000  Uiso   1.00
H1104  H     0.33189   0.80340   0.55227   0.00000  Uiso   1.00
H1105  H     0.25598   0.95419   0.81945   0.00000  Uiso   1.00
H1106  H     0.30974   0.94080   0.76671   0.00000  Uiso   1.00
H1107  H     0.30541   0.93475   0.83724   0.00000  Uiso   1.00
H1108  H     0.29268   0.72323   0.96513   0.00000  Uiso   1.00
H1109  H     0.08900   0.70424   0.77727   0.00000  Uiso   1.00
H1110  H     0.31428   0.73395   0.52125   0.00000  Uiso   1.00
H1111  H     0.02156   0.73383   0.95385   0.00000  Uiso   1.00
H1112  H     0.08604   0.74297   0.62291   0.00000  Uiso   1.00
H1113  H     0.14635   0.73975   0.62461   0.00000  Uiso   1.00
H1114  H     0.13386   0.73937   0.56113   0.00000  Uiso   1.00
H1115  H     0.08902   0.96225   0.77761   0.00000  Uiso   1.00
H1116  H     0.30529   0.77935   0.70135   0.00000  Uiso   1.00
H1117  H     0.05584   0.77918   0.70225   0.00000  Uiso   1.00
H1118  H     0.02856   0.88521   0.80126   0.00000  Uiso   1.00
H1119  H     0.26942   0.77229   0.90476   0.00000  Uiso   1.00
H1120  H     0.05765   0.85877   0.92002   0.00000  Uiso   1.00
H1121  H     0.09623   0.85034   0.56055   0.00000  Uiso   1.00
N1122  N     0.04760   0.83334   0.75002   0.00000  Uiso   1.00
N1123  N     0.28573   0.83331   0.75000   0.00000  Uiso   1.00
O1124  O     0.12846   0.89442   0.75000   0.00000  Uiso   1.00
O1125  O     0.31130   0.78519   0.97352   0.00000  Uiso   1.00
O1126  O     0.12569   0.79681   0.60176   0.00000  Uiso   1.00
O1127  O     0.20490   0.89441   0.75000   0.00000  Uiso   1.00
O1128  O     0.10947   0.83333   0.82681   0.00000  Uiso   1.00
O1129  O     0.18591   0.83332   0.82681   0.00000  Uiso   1.00
O1130  O     0.12843   0.77226   0.74999   0.00000  Uiso   1.00
O1131  O     0.20488   0.77225   0.74999   0.00000  Uiso   1.00
O1132  O     0.14742   0.83335   0.67319   0.00000  Uiso   1.00
O1133  O     0.22387   0.83334   0.67319   0.00000  Uiso   1.00
O1134  O     0.26715   0.89126   0.80870   0.00000  Uiso   1.00
Zn1135 Zn    0.11562   0.83334   0.75000   0.00000  Uiso   1.00
Zn1136 Zn    0.21771   0.83333   0.75000   0.00000  Uiso   1.00
C1137  C     0.50006   0.91337   0.74994   0.00000  Uiso   1.00
C1138  C     0.45821   0.82716   0.90984   0.00000  Uiso   1.00
C1139  C     0.54379   0.97872   0.73377   0.00000  Uiso   1.00
C1140  C     0.47391   0.83081   0.85171   0.00000  Uiso   1.00
C1141  C     0.54377   0.68808   0.73377   0.00000  Uiso   1.00
C1142  C     0.50003   0.70917   0.74942   0.00000  Uiso   1.00
C1143  C     0.45632   0.68795   0.76482   0.00000  Uiso   1.00
C1144  C     0.45635   0.97861   0.76502   0.00000  Uiso   1.00
C1145  C     0.50009   0.95751   0.74964   0.00000  Uiso   1.00
C1146  C     0.65054   0.80347   0.72280   0.00000  Uiso   1.00
C1147  C     0.36503   0.80344   0.72301   0.00000  Uiso   1.00
C1148  C     0.47968   0.81897   0.99083   0.00000  Uiso   1.00
C1149  C     0.34943   0.86278   0.77812   0.00000  Uiso   1.00
C1150  C     0.63429   0.86334   0.77792   0.00000  Uiso   1.00
C1151  C     0.50000   0.75329   0.74979   0.00000  Uiso   1.00
C1152  C     0.52619   0.82908   0.64831   0.00000  Uiso   1.00
C1153  C     0.59865   0.79557   0.50525   0.00000  Uiso   1.00
C1154  C     0.54117   0.81649   0.59137   0.00000  Uiso   1.00
C1155  C     0.41516   0.84635   0.93956   0.00000  Uiso   1.00
C1156  C     0.40502   0.85330   0.99397   0.00000  Uiso   1.00
C1157  C     0.43725   0.84072   0.51933   0.00000  Uiso   1.00
C1158  C     0.63019   0.81163   0.58181   0.00000  Uiso   1.00
C1159  C     0.48958   0.81103   0.93581   0.00000  Uiso   1.00
C1160  C     0.61951   0.93177   0.80752   0.00000  Uiso   1.00
C1161  C     0.65133   0.74217   0.97912   0.00000  Uiso   1.00
C1162  C     0.45683   0.75284   0.60228   0.00000  Uiso   1.00
C1163  C     0.51488   0.80872   0.51444   0.00000  Uiso   1.00
C1164  C     0.56142   0.79697   0.98255   0.00000  Uiso   1.00
C1165  C     0.56885   0.78510   0.92951   0.00000  Uiso   1.00
C1166  C     0.53199   0.78909   0.90783   0.00000  Uiso   1.00
C1167  C     0.50442   0.80872   0.56956   0.00000  Uiso   1.00
C1168  C     0.58944   0.80883   0.55902   0.00000  Uiso   1.00
H1169  H     0.57775   0.70446   0.72119   0.00000  Uiso   1.00
H1170  H     0.37314   0.87042   0.51608   0.00000  Uiso   1.00
H1171  H     0.53817   0.77635   0.86819   0.00000  Uiso   1.00
H1172  H     0.57775   0.96242   0.72100   0.00000  Uiso   1.00
H1173  H     0.63319   0.84387   0.59573   0.00000  Uiso   1.00
H1174  H     0.62400   0.78935   0.61544   0.00000  Uiso   1.00
H1175  H     0.66522   0.80340   0.55227   0.00000  Uiso   1.00
H1176  H     0.58932   0.95419   0.81945   0.00000  Uiso   1.00
H1177  H     0.64308   0.94080   0.76671   0.00000  Uiso   1.00
H1178  H     0.63875   0.93475   0.83724   0.00000  Uiso   1.00
H1179  H     0.62601   0.72323   0.96513   0.00000  Uiso   1.00
H1180  H     0.42233   0.70424   0.77727   0.00000  Uiso   1.00
H1181  H     0.64761   0.73395   0.52125   0.00000  Uiso   1.00
H1182  H     0.35489   0.73383   0.95385   0.00000  Uiso   1.00
H1183  H     0.41937   0.74297   0.62291   0.00000  Uiso   1.00
H1184  H     0.47968   0.73975   0.62461   0.00000  Uiso   1.00
H1185  H     0.46719   0.73937   0.56113   0.00000  Uiso   1.00
H1186  H     0.42235   0.96225   0.77761   0.00000  Uiso   1.00
H1187  H     0.63862   0.77935   0.70135   0.00000  Uiso   1.00
H1188  H     0.38917   0.77918   0.70225   0.00000  Uiso   1.00
H1189  H     0.36189   0.88521   0.80126   0.00000  Uiso   1.00
H1190  H     0.60275   0.77229   0.90476   0.00000  Uiso   1.00
H1191  H     0.39099   0.85877   0.92002   0.00000  Uiso   1.00
H1192  H     0.42956   0.85034   0.56055   0.00000  Uiso   1.00
N1193  N     0.38093   0.83334   0.75002   0.00000  Uiso   1.00
N1194  N     0.61906   0.83331   0.75000   0.00000  Uiso   1.00
O1195  O     0.46179   0.89442   0.75000   0.00000  Uiso   1.00
O1196  O     0.64463   0.78519   0.97352   0.00000  Uiso   1.00
O1197  O     0.45902   0.79681   0.60176   0.00000  Uiso   1.00
O1198  O     0.53823   0.89441   0.75000   0.00000  Uiso   1.00
O1199  O     0.44280   0.83333   0.82681   0.00000  Uiso   1.00
O1200  O     0.51924   0.83332   0.82681   0.00000  Uiso   1.00
O1201  O     0.46177   0.77226   0.74999   0.00000  Uiso   1.00
O1202  O     0.53821   0.77225   0.74999   0.00000  Uiso   1.00
O1203  O     0.48076   0.83335   0.67319   0.00000  Uiso   1.00
O1204  O     0.55720   0.83334   0.67319   0.00000  Uiso   1.00
O1205  O     0.60049   0.89126   0.80870   0.00000  Uiso   1.00
Zn1206 Zn    0.44896   0.83334   0.75000   0.00000  Uiso   1.00
Zn1207 Zn    0.55104   0.83333   0.75000   0.00000  Uiso   1.00
C1208  C     0.83339   0.91337   0.74994   0.00000  Uiso   1.00
C1209  C     0.79155   0.82716   0.90984   0.00000  Uiso   1.00
C1210  C     0.87712   0.97872   0.73377   0.00000  Uiso   1.00
C1211  C     0.80724   0.83081   0.85171   0.00000  Uiso   1.00
C1212  C     0.87710   0.68808   0.73377   0.00000  Uiso   1.00
C1213  C     0.83336   0.70917   0.74942   0.00000  Uiso   1.00
C1214  C     0.78966   0.68795   0.76482   0.00000  Uiso   1.00
C1215  C     0.78968   0.97861   0.76502   0.00000  Uiso   1.00
C1216  C     0.83342   0.95751   0.74964   0.00000  Uiso   1.00
C1217  C     0.98388   0.80347   0.72280   0.00000  Uiso   1.00
C1218  C     0.69836   0.80344   0.72301   0.00000  Uiso   1.00
C1219  C     0.81301   0.81897   0.99083   0.00000  Uiso   1.00
C1220  C     0.68277   0.86278   0.77812   0.00000  Uiso   1.00
C1221  C     0.96763   0.86334   0.77792   0.00000  Uiso   1.00
C1222  C     0.83334   0.75329   0.74979   0.00000  Uiso   1.00
C1223  C     0.85952   0.82908   0.64831   0.00000  Uiso   1.00
C1224  C     0.93198   0.79557   0.50525   0.00000  Uiso   1.00
C1225  C     0.87451   0.81649   0.59137   0.00000  Uiso   1.00
C1226  C     0.74849   0.84635   0.93956   0.00000  Uiso   1.00
C1227  C     0.73835   0.85330   0.99397   0.00000  Uiso   1.00
C1228  C     0.77059   0.84072   0.51933   0.00000  Uiso   1.00
C1229  C     0.96352   0.81163   0.58181   0.00000  Uiso   1.00
C1230  C     0.82291   0.81103   0.93581   0.00000  Uiso   1.00
C1231  C     0.95284   0.93177   0.80752   0.00000  Uiso   1.00
C1232  C     0.98466   0.74217   0.97912   0.00000  Uiso   1.00
C1233  C     0.79016   0.75284   0.60228   0.00000  Uiso   1.00
C1234  C     0.84822   0.80872   0.51444   0.00000  Uiso   1.00
C1235  C     0.89476   0.79697   0.98255   0.00000  Uiso   1.00
C1236  C     0.90218   0.78510   0.92951   0.00000  Uiso   1.00
C1237  C     0.86532   0.78909   0.90783   0.00000  Uiso   1.00
C1238  C     0.83776   0.80872   0.56956   0.00000  Uiso   1.00
C1239  C     0.92278   0.80883   0.55902   0.00000  Uiso   1.00
H1240  H     0.91108   0.70446   0.72119   0.00000  Uiso   1.00
H1241  H     0.70647   0.87042   0.51608   0.00000  Uiso   1.00
H1242  H     0.87150   0.77635   0.86819   0.00000  Uiso   1.00
H1243  H     0.91109   0.96242   0.72100   0.00000  Uiso   1.00
H1244  H     0.96653   0.84387   0.59573   0.00000  Uiso   1.00
H1245  H     0.95733   0.78935   0.61544   0.00000  Uiso   1.00
H1246  H     0.99856   0.80340   0.55227   0.00000  Uiso   1.00
H1247  H     0.92265   0.95419   0.81945   0.00000  Uiso   1.00
H1248  H     0.97641   0.94080   0.76671   0.00000  Uiso   1.00
H1249  H     0.97208   0.93475   0.83724   0.00000  Uiso   1.00
H1250  H     0.95935   0.72323   0.96513   0.00000  Uiso   1.00
H1251  H     0.75566   0.70424   0.77727   0.00000  Uiso   1.00
H1252  H     0.98095   0.73395   0.52125   0.00000  Uiso   1.00
H1253  H     0.68823   0.73383   0.95385   0.00000  Uiso   1.00
H1254  H     0.75270   0.74297   0.62291   0.00000  Uiso   1.00
H1255  H     0.81302   0.73975   0.62461   0.00000  Uiso   1.00
H1256  H     0.80053   0.73937   0.56113   0.00000  Uiso   1.00
H1257  H     0.75569   0.96225   0.77761   0.00000  Uiso   1.00
H1258  H     0.97195   0.77935   0.70135   0.00000  Uiso   1.00
H1259  H     0.72250   0.77918   0.70225   0.00000  Uiso   1.00
H1260  H     0.69522   0.88521   0.80126   0.00000  Uiso   1.00
H1261  H     0.93608   0.77229   0.90476   0.00000  Uiso   1.00
H1262  H     0.72432   0.85877   0.92002   0.00000  Uiso   1.00
H1263  H     0.76289   0.85034   0.56055   0.00000  Uiso   1.00
N1264  N     0.71426   0.83334   0.75002   0.00000  Uiso   1.00
N1265  N     0.95239   0.83331   0.75000   0.00000  Uiso   1.00
O1266  O     0.79512   0.89442   0.75000   0.00000  Uiso   1.00
O1267  O     0.97797   0.78519   0.97352   0.00000  Uiso   1.00
O1268  O     0.79236   0.79681   0.60176   0.00000  Uiso   1.00
O1269  O     0.87157   0.89441   0.75000   0.00000  Uiso   1.00
O1270  O     0.77613   0.83333   0.82681   0.00000  Uiso   1.00
O1271  O     0.85258   0.83332   0.82681   0.00000  Uiso   1.00
O1272  O     0.79510   0.77226   0.74999   0.00000  Uiso   1.00
O1273  O     0.87154   0.77225   0.74999   0.00000  Uiso   1.00
O1274  O     0.81409   0.83335   0.67319   0.00000  Uiso   1.00
O1275  O     0.89053   0.83334   0.67319   0.00000  Uiso   1.00
O1276  O     0.93382   0.89126   0.80870   0.00000  Uiso   1.00
Zn1277 Zn    0.78229   0.83334   0.75000   0.00000  Uiso   1.00
Zn1278 Zn    0.88438   0.83333   0.75000   0.00000  Uiso   1.00
loop_
_geom_bond_atom_site_label_1
_geom_bond_atom_site_label_2
_geom_bond_distance
_geom_bond_site_symmetry_2
_ccdc_geom_bond_type
C1     O62     1.282   .     A
C1     C9      1.417   .     S
C1     O59     1.281   .     A
C2     C4      1.456   .     S
C2     C23     1.417   .     A
C2     C19     1.401   .     A
C3     C9      1.396   .     A
C3     H36     1.083   .     S
C3     C218    1.370   .     S
C4     O64     1.287   .     A
C4     O63     1.293   .     A
C5     C6      1.397   .     A
C5     H33     1.084   .     S
C5     C429    1.370   1_545 S
C6     C7      1.396   .     A
C6     C15     1.417   .     S
C7     H44     1.084   .     S
C7     C434    1.370   1_545 S
C8     H50     1.084   .     S
C8     C9      1.397   .     A
C8     C220    1.370   .     S
C10    H51     1.081   .     S
C10    N58     1.365   .     A
C10    C82     1.413   .     S
C11    H52     1.077   .     S
C11    N57     1.363   .     A
C11    C152    1.413   1_455 S
C12    C23     1.407   .     A
C12    C660    1.418   .     S
C12    C666    1.413   .     S
C13    H53     1.080   .     S
C13    N57     1.363   .     A
C13    C156    1.432   1_455 S
C14    N58     1.371   .     A
C14    O69     1.390   .     S
C14    C84     1.432   .     S
C15    O66     1.281   .     A
C15    O65     1.282   .     A
C16    O68     1.294   .     A
C16    O67     1.295   .     A
C16    C18     1.476   .     S
C17    C32     1.419   .     A
C17    C667    1.412   1_554 S
C17    O699    1.384   1_554 S
C18    C32     1.424   .     A
C18    C31     1.404   .     A
C19    C20     1.385   .     A
C19    H55     1.084   .     S
C20    C660    1.390   .     S
C20    H673    1.082   .     S
C21    H56     1.080   .     S
C21    C659    1.390   1_554 S
C21    C651    1.418   1_554 S
C22    C32     1.511   .     S
C22    H39     1.106   .     S
C22    H37     1.110   .     S
C22    H38     1.109   .     S
C23    C30     1.417   .     A
C24    O69     1.412   .     S
C24    H42     1.111   .     S
C24    H41     1.114   .     S
C24    H40     1.109   .     S
C25    O60     1.411   .     S
C25    H43     1.113   .     S
C25    H684    1.113   .     S
C25    H117    1.109   .     S
C26    H48     1.113   .     S
C26    O61     1.413   .     S
C26    H49     1.114   .     S
C26    H47     1.108   .     S
C27    C31     1.385   .     A
C27    C651    1.413   1_554 S
C27    C667    1.409   1_554 S
C28    C29     1.396   .     A
C28    C656    1.412   .     S
C28    C666    1.409   .     S
C29    C30     1.389   .     A
C29    H54     1.083   .     S
C30    H35     1.081   .     S
C31    O61     1.387   .     S
H34    C659    1.082   1_554 S
H45    C664    1.113   1_554 S
H46    C167    1.109   1_455 S
N57    Zn70    2.007   .     S
N58    Zn71    2.007   .     S
O59    Zn70    1.996   .     S
O60    C656    1.384   .     S
O62    Zn71    1.998   .     S
O63    Zn70    1.974   .     S
O64    Zn71    1.937   .     S
O65    Zn70    1.998   .     S
O66    Zn71    1.996   .     S
O67    Zn70    1.937   .     S
O68    Zn71    1.974   .     S
C72    O133    1.282   .     A
C72    C80     1.417   .     S
C72    O130    1.281   .     A
C73    C75     1.456   .     S
C73    C94     1.417   .     A
C73    C90     1.401   .     A
C74    C80     1.396   .     A
C74    H107    1.083   .     S
C74    C289    1.370   .     S
C75    O135    1.287   .     A
C75    O134    1.293   .     A
C76    C77     1.397   .     A
C76    H104    1.084   .     S
C76    C500    1.370   1_545 S
C77    C78     1.396   .     A
C77    C86     1.417   .     S
C78    H115    1.084   .     S
C78    C505    1.370   1_545 S
C79    H121    1.084   .     S
C79    C80     1.397   .     A
C79    C291    1.370   .     S
C81    H122    1.081   .     S
C81    N129    1.365   .     A
C81    C153    1.413   .     S
C82    H123    1.077   .     S
C82    N128    1.363   .     A
C83    C94     1.407   .     A
C83    C731    1.418   .     S
C83    C737    1.413   .     S
C84    H124    1.080   .     S
C84    N128    1.363   .     A
C85    N129    1.371   .     A
C85    O140    1.390   .     S
C85    C155    1.432   .     S
C86    O137    1.281   .     A
C86    O136    1.282   .     A
C87    O139    1.294   .     A
C87    O138    1.295   .     A
C87    C89     1.476   .     S
C88    C103    1.419   .     A
C88    C738    1.412   1_554 S
C88    O770    1.384   1_554 S
C89    C103    1.424   .     A
C89    C102    1.404   .     A
C90    C91     1.385   .     A
C90    H126    1.084   .     S
C91    C731    1.390   .     S
C91    H744    1.082   .     S
C92    H127    1.080   .     S
C92    C730    1.390   1_554 S
C92    C722    1.418   1_554 S
C93    C103    1.511   .     S
C93    H110    1.106   .     S
C93    H108    1.110   .     S
C93    H109    1.109   .     S
C94    C101    1.417   .     A
C95    O140    1.412   .     S
C95    H113    1.111   .     S
C95    H112    1.114   .     S
C95    H111    1.109   .     S
C96    O131    1.411   .     S
C96    H114    1.113   .     S
C96    H755    1.113   .     S
C96    H188    1.109   .     S
C97    H119    1.113   .     S
C97    O132    1.413   .     S
C97    H120    1.114   .     S
C97    H118    1.108   .     S
C98    C102    1.385   .     A
C98    C722    1.413   1_554 S
C98    C738    1.409   1_554 S
C99    C100    1.396   .     A
C99    C727    1.412   .     S
C99    C737    1.409   .     S
C100   C101    1.389   .     A
C100   H125    1.083   .     S
C101   H106    1.081   .     S
C102   O132    1.387   .     S
H105   C730    1.082   1_554 S
H116   C735    1.113   1_554 S
N128   Zn141   2.007   .     S
N129   Zn142   2.007   .     S
O130   Zn141   1.996   .     S
O131   C727    1.384   .     S
O133   Zn142   1.998   .     S
O134   Zn141   1.974   .     S
O135   Zn142   1.937   .     S
O136   Zn141   1.998   .     S
O137   Zn142   1.996   .     S
O138   Zn141   1.937   .     S
O139   Zn142   1.974   .     S
C143   O204    1.282   .     A
C143   C151    1.417   .     S
C143   O201    1.281   .     A
C144   C146    1.456   .     S
C144   C165    1.417   .     A
C144   C161    1.401   .     A
C145   C151    1.396   .     A
C145   H178    1.083   .     S
C145   C360    1.370   .     S
C146   O206    1.287   .     A
C146   O205    1.293   .     A
C147   C148    1.397   .     A
C147   H175    1.084   .     S
C147   C571    1.370   1_545 S
C148   C149    1.396   .     A
C148   C157    1.417   .     S
C149   H186    1.084   .     S
C149   C576    1.370   1_545 S
C150   H192    1.084   .     S
C150   C151    1.397   .     A
C150   C362    1.370   .     S
C152   H193    1.081   .     S
C152   N200    1.365   .     A
C152   C11     1.413   1_655 S
C153   H194    1.077   .     S
C153   N199    1.363   .     A
C154   C165    1.407   .     A
C154   C802    1.418   .     S
C154   C808    1.413   .     S
C155   H195    1.080   .     S
C155   N199    1.363   .     A
C156   N200    1.371   .     A
C156   O211    1.390   .     S
C156   C13     1.432   1_655 S
C157   O208    1.281   .     A
C157   O207    1.282   .     A
C158   O210    1.294   .     A
C158   O209    1.295   .     A
C158   C160    1.476   .     S
C159   C174    1.419   .     A
C159   C809    1.412   1_554 S
C159   O841    1.384   1_554 S
C160   C174    1.424   .     A
C160   C173    1.404   .     A
C161   C162    1.385   .     A
C161   H197    1.084   .     S
C162   C802    1.390   .     S
C162   H815    1.082   .     S
C163   H198    1.080   .     S
C163   C801    1.390   1_554 S
C163   C793    1.418   1_554 S
C164   C174    1.511   .     S
C164   H181    1.106   .     S
C164   H179    1.110   .     S
C164   H180    1.109   .     S
C165   C172    1.417   .     A
C166   O211    1.412   .     S
C166   H184    1.111   .     S
C166   H183    1.114   .     S
C166   H182    1.109   .     S
C167   O202    1.411   .     S
C167   H185    1.113   .     S
C167   H826    1.113   .     S
C167   H46     1.109   1_655 S
C168   H190    1.113   .     S
C168   O203    1.413   .     S
C168   H191    1.114   .     S
C168   H189    1.108   .     S
C169   C173    1.385   .     A
C169   C793    1.413   1_554 S
C169   C809    1.409   1_554 S
C170   C171    1.396   .     A
C170   C798    1.412   .     S
C170   C808    1.409   .     S
C171   C172    1.389   .     A
C171   H196    1.083   .     S
C172   H177    1.081   .     S
C173   O203    1.387   .     S
H176   C801    1.082   1_554 S
H187   C806    1.113   1_554 S
N199   Zn212   2.007   .     S
N200   Zn213   2.007   .     S
O201   Zn212   1.996   .     S
O202   C798    1.384   .     S
O204   Zn213   1.998   .     S
O205   Zn212   1.974   .     S
O206   Zn213   1.937   .     S
O207   Zn212   1.998   .     S
O208   Zn213   1.996   .     S
O209   Zn212   1.937   .     S
O210   Zn213   1.974   .     S
C214   O275    1.282   .     A
C214   C222    1.417   .     S
C214   O272    1.281   .     A
C215   C217    1.456   .     S
C215   C236    1.417   .     A
C215   C232    1.401   .     A
C216   C222    1.396   .     A
C216   H249    1.083   .     S
C216   C431    1.370   .     S
C217   O277    1.287   .     A
C217   O276    1.293   .     A
C218   C219    1.397   .     A
C218   H246    1.084   .     S
C219   C220    1.396   .     A
C219   C228    1.417   .     S
C220   H257    1.084   .     S
C221   H263    1.084   .     S
C221   C222    1.397   .     A
C221   C433    1.370   .     S
C223   H264    1.081   .     S
C223   N271    1.365   .     A
C223   C295    1.413   .     S
C224   H265    1.077   .     S
C224   N270    1.363   .     A
C224   C365    1.413   1_455 S
C225   C236    1.407   .     A
C225   C873    1.418   .     S
C225   C879    1.413   .     S
C226   H266    1.080   .     S
C226   N270    1.363   .     A
C226   C369    1.432   1_455 S
C227   N271    1.371   .     A
C227   O282    1.390   .     S
C227   C297    1.432   .     S
C228   O279    1.281   .     A
C228   O278    1.282   .     A
C229   O281    1.294   .     A
C229   O280    1.295   .     A
C229   C231    1.476   .     S
C230   C245    1.419   .     A
C230   C880    1.412   1_554 S
C230   O912    1.384   1_554 S
C231   C245    1.424   .     A
C231   C244    1.404   .     A
C232   C233    1.385   .     A
C232   H268    1.084   .     S
C233   C873    1.390   .     S
C233   H886    1.082   .     S
C234   H269    1.080   .     S
C234   C872    1.390   1_554 S
C234   C864    1.418   1_554 S
C235   C245    1.511   .     S
C235   H252    1.106   .     S
C235   H250    1.110   .     S
C235   H251    1.109   .     S
C236   C243    1.417   .     A
C237   O282    1.412   .     S
C237   H255    1.111   .     S
C237   H254    1.114   .     S
C237   H253    1.109   .     S
C238   O273    1.411   .     S
C238   H256    1.113   .     S
C238   H897    1.113   .     S
C238   H330    1.109   .     S
C239   H261    1.113   .     S
C239   O274    1.413   .     S
C239   H262    1.114   .     S
C239   H260    1.108   .     S
C240   C244    1.385   .     A
C240   C864    1.413   1_554 S
C240   C880    1.409   1_554 S
C241   C242    1.396   .     A
C241   C869    1.412   .     S
C241   C879    1.409   .     S
C242   C243    1.389   .     A
C242   H267    1.083   .     S
C243   H248    1.081   .     S
C244   O274    1.387   .     S
H247   C872    1.082   1_554 S
H258   C877    1.113   1_554 S
H259   C380    1.109   1_455 S
N270   Zn283   2.007   .     S
N271   Zn284   2.007   .     S
O272   Zn283   1.996   .     S
O273   C869    1.384   .     S
O275   Zn284   1.998   .     S
O276   Zn283   1.974   .     S
O277   Zn284   1.937   .     S
O278   Zn283   1.998   .     S
O279   Zn284   1.996   .     S
O280   Zn283   1.937   .     S
O281   Zn284   1.974   .     S
C285   O346    1.282   .     A
C285   C293    1.417   .     S
C285   O343    1.281   .     A
C286   C288    1.456   .     S
C286   C307    1.417   .     A
C286   C303    1.401   .     A
C287   C293    1.396   .     A
C287   H320    1.083   .     S
C287   C502    1.370   .     S
C288   O348    1.287   .     A
C288   O347    1.293   .     A
C289   C290    1.397   .     A
C289   H317    1.084   .     S
C290   C291    1.396   .     A
C290   C299    1.417   .     S
C291   H328    1.084   .     S
C292   H334    1.084   .     S
C292   C293    1.397   .     A
C292   C504    1.370   .     S
C294   H335    1.081   .     S
C294   N342    1.365   .     A
C294   C366    1.413   .     S
C295   H336    1.077   .     S
C295   N341    1.363   .     A
C296   C307    1.407   .     A
C296   C944    1.418   .     S
C296   C950    1.413   .     S
C297   H337    1.080   .     S
C297   N341    1.363   .     A
C298   N342    1.371   .     A
C298   O353    1.390   .     S
C298   C368    1.432   .     S
C299   O350    1.281   .     A
C299   O349    1.282   .     A
C300   O352    1.294   .     A
C300   O351    1.295   .     A
C300   C302    1.476   .     S
C301   C316    1.419   .     A
C301   C951    1.412   1_554 S
C301   O983    1.384   1_554 S
C302   C316    1.424   .     A
C302   C315    1.404   .     A
C303   C304    1.385   .     A
C303   H339    1.084   .     S
C304   C944    1.390   .     S
C304   H957    1.082   .     S
C305   H340    1.080   .     S
C305   C943    1.390   1_554 S
C305   C935    1.418   1_554 S
C306   C316    1.511   .     S
C306   H323    1.106   .     S
C306   H321    1.110   .     S
C306   H322    1.109   .     S
C307   C314    1.417   .     A
C308   O353    1.412   .     S
C308   H326    1.111   .     S
C308   H325    1.114   .     S
C308   H324    1.109   .     S
C309   O344    1.411   .     S
C309   H327    1.113   .     S
C309   H968    1.113   .     S
C309   H401    1.109   .     S
C310   H332    1.113   .     S
C310   O345    1.413   .     S
C310   H333    1.114   .     S
C310   H331    1.108   .     S
C311   C315    1.385   .     A
C311   C935    1.413   1_554 S
C311   C951    1.409   1_554 S
C312   C313    1.396   .     A
C312   C940    1.412   .     S
C312   C950    1.409   .     S
C313   C314    1.389   .     A
C313   H338    1.083   .     S
C314   H319    1.081   .     S
C315   O345    1.387   .     S
H318   C943    1.082   1_554 S
H329   C948    1.113   1_554 S
N341   Zn354   2.007   .     S
N342   Zn355   2.007   .     S
O343   Zn354   1.996   .     S
O344   C940    1.384   .     S
O346   Zn355   1.998   .     S
O347   Zn354   1.974   .     S
O348   Zn355   1.937   .     S
O349   Zn354   1.998   .     S
O350   Zn355   1.996   .     S
O351   Zn354   1.937   .     S
O352   Zn355   1.974   .     S
C356   O417    1.282   .     A
C356   C364    1.417   .     S
C356   O414    1.281   .     A
C357   C359    1.456   .     S
C357   C378    1.417   .     A
C357   C374    1.401   .     A
C358   C364    1.396   .     A
C358   H391    1.083   .     S
C358   C573    1.370   .     S
C359   O419    1.287   .     A
C359   O418    1.293   .     A
C360   C361    1.397   .     A
C360   H388    1.084   .     S
C361   C362    1.396   .     A
C361   C370    1.417   .     S
C362   H399    1.084   .     S
C363   H405    1.084   .     S
C363   C364    1.397   .     A
C363   C575    1.370   .     S
C365   H406    1.081   .     S
C365   N413    1.365   .     A
C365   C224    1.413   1_655 S
C366   H407    1.077   .     S
C366   N412    1.363   .     A
C367   C378    1.407   .     A
C367   C1015   1.418   .     S
C367   C1021   1.413   .     S
C368   H408    1.080   .     S
C368   N412    1.363   .     A
C369   N413    1.371   .     A
C369   O424    1.390   .     S
C369   C226    1.432   1_655 S
C370   O421    1.281   .     A
C370   O420    1.282   .     A
C371   O423    1.294   .     A
C371   O422    1.295   .     A
C371   C373    1.476   .     S
C372   C387    1.419   .     A
C372   C1022   1.412   1_554 S
C372   O1054   1.384   1_554 S
C373   C387    1.424   .     A
C373   C386    1.404   .     A
C374   C375    1.385   .     A
C374   H410    1.084   .     S
C375   C1015   1.390   .     S
C375   H1028   1.082   .     S
C376   H411    1.080   .     S
C376   C1014   1.390   1_554 S
C376   C1006   1.418   1_554 S
C377   C387    1.511   .     S
C377   H394    1.106   .     S
C377   H392    1.110   .     S
C377   H393    1.109   .     S
C378   C385    1.417   .     A
C379   O424    1.412   .     S
C379   H397    1.111   .     S
C379   H396    1.114   .     S
C379   H395    1.109   .     S
C380   O415    1.411   .     S
C380   H398    1.113   .     S
C380   H1039   1.113   .     S
C380   H259    1.109   1_655 S
C381   H403    1.113   .     S
C381   O416    1.413   .     S
C381   H404    1.114   .     S
C381   H402    1.108   .     S
C382   C386    1.385   .     A
C382   C1006   1.413   1_554 S
C382   C1022   1.409   1_554 S
C383   C384    1.396   .     A
C383   C1011   1.412   .     S
C383   C1021   1.409   .     S
C384   C385    1.389   .     A
C384   H409    1.083   .     S
C385   H390    1.081   .     S
C386   O416    1.387   .     S
H389   C1014   1.082   1_554 S
H400   C1019   1.113   1_554 S
N412   Zn425   2.007   .     S
N413   Zn426   2.007   .     S
O414   Zn425   1.996   .     S
O415   C1011   1.384   .     S
O417   Zn426   1.998   .     S
O418   Zn425   1.974   .     S
O419   Zn426   1.937   .     S
O420   Zn425   1.998   .     S
O421   Zn426   1.996   .     S
O422   Zn425   1.937   .     S
O423   Zn426   1.974   .     S
C427   O488    1.282   .     A
C427   C435    1.417   .     S
C427   O485    1.281   .     A
C428   C430    1.456   .     S
C428   C449    1.417   .     A
C428   C445    1.401   .     A
C429   C435    1.396   .     A
C429   H462    1.083   .     S
C429   C5      1.370   1_565 S
C430   O490    1.287   .     A
C430   O489    1.293   .     A
C431   C432    1.397   .     A
C431   H459    1.084   .     S
C432   C433    1.396   .     A
C432   C441    1.417   .     S
C433   H470    1.084   .     S
C434   H476    1.084   .     S
C434   C435    1.397   .     A
C434   C7      1.370   1_565 S
C436   H477    1.081   .     S
C436   N484    1.365   .     A
C436   C508    1.413   .     S
C437   H478    1.077   .     S
C437   N483    1.363   .     A
C437   C578    1.413   1_455 S
C438   C449    1.407   .     A
C438   C1086   1.418   .     S
C438   C1092   1.413   .     S
C439   H479    1.080   .     S
C439   N483    1.363   .     A
C439   C582    1.432   1_455 S
C440   N484    1.371   .     A
C440   O495    1.390   .     S
C440   C510    1.432   .     S
C441   O492    1.281   .     A
C441   O491    1.282   .     A
C442   O494    1.294   .     A
C442   O493    1.295   .     A
C442   C444    1.476   .     S
C443   C458    1.419   .     A
C443   C1093   1.412   1_554 S
C443   O1125   1.384   1_554 S
C444   C458    1.424   .     A
C444   C457    1.404   .     A
C445   C446    1.385   .     A
C445   H481    1.084   .     S
C446   C1086   1.390   .     S
C446   H1099   1.082   .     S
C447   H482    1.080   .     S
C447   C1085   1.390   1_554 S
C447   C1077   1.418   1_554 S
C448   C458    1.511   .     S
C448   H465    1.106   .     S
C448   H463    1.110   .     S
C448   H464    1.109   .     S
C449   C456    1.417   .     A
C450   O495    1.412   .     S
C450   H468    1.111   .     S
C450   H467    1.114   .     S
C450   H466    1.109   .     S
C451   O486    1.411   .     S
C451   H469    1.113   .     S
C451   H1110   1.113   .     S
C451   H543    1.109   .     S
C452   H474    1.113   .     S
C452   O487    1.413   .     S
C452   H475    1.114   .     S
C452   H473    1.108   .     S
C453   C457    1.385   .     A
C453   C1077   1.413   1_554 S
C453   C1093   1.409   1_554 S
C454   C455    1.396   .     A
C454   C1082   1.412   .     S
C454   C1092   1.409   .     S
C455   C456    1.389   .     A
C455   H480    1.083   .     S
C456   H461    1.081   .     S
C457   O487    1.387   .     S
H460   C1085   1.082   1_554 S
H471   C1090   1.113   1_554 S
H472   C593    1.109   1_455 S
N483   Zn496   2.007   .     S
N484   Zn497   2.007   .     S
O485   Zn496   1.996   .     S
O486   C1082   1.384   .     S
O488   Zn497   1.998   .     S
O489   Zn496   1.974   .     S
O490   Zn497   1.937   .     S
O491   Zn496   1.998   .     S
O492   Zn497   1.996   .     S
O493   Zn496   1.937   .     S
O494   Zn497   1.974   .     S
C498   O559    1.282   .     A
C498   C506    1.417   .     S
C498   O556    1.281   .     A
C499   C501    1.456   .     S
C499   C520    1.417   .     A
C499   C516    1.401   .     A
C500   C506    1.396   .     A
C500   H533    1.083   .     S
C500   C76     1.370   1_565 S
C501   O561    1.287   .     A
C501   O560    1.293   .     A
C502   C503    1.397   .     A
C502   H530    1.084   .     S
C503   C504    1.396   .     A
C503   C512    1.417   .     S
C504   H541    1.084   .     S
C505   H547    1.084   .     S
C505   C506    1.397   .     A
C505   C78     1.370   1_565 S
C507   H548    1.081   .     S
C507   N555    1.365   .     A
C507   C579    1.413   .     S
C508   H549    1.077   .     S
C508   N554    1.363   .     A
C509   C520    1.407   .     A
C509   C1157   1.418   .     S
C509   C1163   1.413   .     S
C510   H550    1.080   .     S
C510   N554    1.363   .     A
C511   N555    1.371   .     A
C511   O566    1.390   .     S
C511   C581    1.432   .     S
C512   O563    1.281   .     A
C512   O562    1.282   .     A
C513   O565    1.294   .     A
C513   O564    1.295   .     A
C513   C515    1.476   .     S
C514   C529    1.419   .     A
C514   C1164   1.412   1_554 S
C514   O1196   1.384   1_554 S
C515   C529    1.424   .     A
C515   C528    1.404   .     A
C516   C517    1.385   .     A
C516   H552    1.084   .     S
C517   C1157   1.390   .     S
C517   H1170   1.082   .     S
C518   H553    1.080   .     S
C518   C1156   1.390   1_554 S
C518   C1148   1.418   1_554 S
C519   C529    1.511   .     S
C519   H536    1.106   .     S
C519   H534    1.110   .     S
C519   H535    1.109   .     S
C520   C527    1.417   .     A
C521   O566    1.412   .     S
C521   H539    1.111   .     S
C521   H538    1.114   .     S
C521   H537    1.109   .     S
C522   O557    1.411   .     S
C522   H540    1.113   .     S
C522   H1181   1.113   .     S
C522   H614    1.109   .     S
C523   H545    1.113   .     S
C523   O558    1.413   .     S
C523   H546    1.114   .     S
C523   H544    1.108   .     S
C524   C528    1.385   .     A
C524   C1148   1.413   1_554 S
C524   C1164   1.409   1_554 S
C525   C526    1.396   .     A
C525   C1153   1.412   .     S
C525   C1163   1.409   .     S
C526   C527    1.389   .     A
C526   H551    1.083   .     S
C527   H532    1.081   .     S
C528   O558    1.387   .     S
H531   C1156   1.082   1_554 S
H542   C1161   1.113   1_554 S
N554   Zn567   2.007   .     S
N555   Zn568   2.007   .     S
O556   Zn567   1.996   .     S
O557   C1153   1.384   .     S
O559   Zn568   1.998   .     S
O560   Zn567   1.974   .     S
O561   Zn568   1.937   .     S
O562   Zn567   1.998   .     S
O563   Zn568   1.996   .     S
O564   Zn567   1.937   .     S
O565   Zn568   1.974   .     S
C569   O630    1.282   .     A
C569   C577    1.417   .     S
C569   O627    1.281   .     A
C570   C572    1.456   .     S
C570   C591    1.417   .     A
C570   C587    1.401   .     A
C571   C577    1.396   .     A
C571   H604    1.083   .     S
C571   C147    1.370   1_565 S
C572   O632    1.287   .     A
C572   O631    1.293   .     A
C573   C574    1.397   .     A
C573   H601    1.084   .     S
C574   C575    1.396   .     A
C574   C583    1.417   .     S
C575   H612    1.084   .     S
C576   H618    1.084   .     S
C576   C577    1.397   .     A
C576   C149    1.370   1_565 S
C578   H619    1.081   .     S
C578   N626    1.365   .     A
C578   C437    1.413   1_655 S
C579   H620    1.077   .     S
C579   N625    1.363   .     A
C580   C591    1.407   .     A
C580   C1228   1.418   .     S
C580   C1234   1.413   .     S
C581   H621    1.080   .     S
C581   N625    1.363   .     A
C582   N626    1.371   .     A
C582   O637    1.390   .     S
C582   C439    1.432   1_655 S
C583   O634    1.281   .     A
C583   O633    1.282   .     A
C584   O636    1.294   .     A
C584   O635    1.295   .     A
C584   C586    1.476   .     S
C585   C600    1.419   .     A
C585   C1235   1.412   1_554 S
C585   O1267   1.384   1_554 S
C586   C600    1.424   .     A
C586   C599    1.404   .     A
C587   C588    1.385   .     A
C587   H623    1.084   .     S
C588   C1228   1.390   .     S
C588   H1241   1.082   .     S
C589   H624    1.080   .     S
C589   C1227   1.390   1_554 S
C589   C1219   1.418   1_554 S
C590   C600    1.511   .     S
C590   H607    1.106   .     S
C590   H605    1.110   .     S
C590   H606    1.109   .     S
C591   C598    1.417   .     A
C592   O637    1.412   .     S
C592   H610    1.111   .     S
C592   H609    1.114   .     S
C592   H608    1.109   .     S
C593   O628    1.411   .     S
C593   H611    1.113   .     S
C593   H1252   1.113   .     S
C593   H472    1.109   1_655 S
C594   H616    1.113   .     S
C594   O629    1.413   .     S
C594   H617    1.114   .     S
C594   H615    1.108   .     S
C595   C599    1.385   .     A
C595   C1219   1.413   1_554 S
C595   C1235   1.409   1_554 S
C596   C597    1.396   .     A
C596   C1224   1.412   .     S
C596   C1234   1.409   .     S
C597   C598    1.389   .     A
C597   H622    1.083   .     S
C598   H603    1.081   .     S
C599   O629    1.387   .     S
H602   C1227   1.082   1_554 S
H613   C1232   1.113   1_554 S
N625   Zn638   2.007   .     S
N626   Zn639   2.007   .     S
O627   Zn638   1.996   .     S
O628   C1224   1.384   .     S
O630   Zn639   1.998   .     S
O631   Zn638   1.974   .     S
O632   Zn639   1.937   .     S
O633   Zn638   1.998   .     S
O634   Zn639   1.996   .     S
O635   Zn638   1.937   .     S
O636   Zn639   1.974   .     S
C640   O701    1.282   .     A
C640   C648    1.417   .     S
C640   O698    1.281   .     A
C641   C643    1.456   .     S
C641   C662    1.417   .     A
C641   C658    1.401   .     A
C642   C648    1.396   .     A
C642   H675    1.083   .     S
C642   C857    1.370   .     S
C643   O703    1.287   .     A
C643   O702    1.293   .     A
C644   C645    1.397   .     A
C644   H672    1.084   .     S
C644   C1068   1.370   1_545 S
C645   C646    1.396   .     A
C645   C654    1.417   .     S
C646   H683    1.084   .     S
C646   C1073   1.370   1_545 S
C647   H689    1.084   .     S
C647   C648    1.397   .     A
C647   C859    1.370   .     S
C649   H690    1.081   .     S
C649   N697    1.365   .     A
C649   C721    1.413   .     S
C650   H691    1.077   .     S
C650   N696    1.363   .     A
C650   C791    1.413   1_455 S
C651   C662    1.407   .     A
C651   C21     1.418   1_556 S
C651   C27     1.413   1_556 S
C652   H692    1.080   .     S
C652   N696    1.363   .     A
C652   C795    1.432   1_455 S
C653   N697    1.371   .     A
C653   O708    1.390   .     S
C653   C723    1.432   .     S
C654   O705    1.281   .     A
C654   O704    1.282   .     A
C655   O707    1.294   .     A
C655   O706    1.295   .     A
C655   C657    1.476   .     S
C656   C671    1.419   .     A
C657   C671    1.424   .     A
C657   C670    1.404   .     A
C658   C659    1.385   .     A
C658   H694    1.084   .     S
C659   C21     1.390   1_556 S
C659   H34     1.082   1_556 S
C660   H695    1.080   .     S
C661   C671    1.511   .     S
C661   H678    1.106   .     S
C661   H676    1.110   .     S
C661   H677    1.109   .     S
C662   C669    1.417   .     A
C663   O708    1.412   .     S
C663   H681    1.111   .     S
C663   H680    1.114   .     S
C663   H679    1.109   .     S
C664   O699    1.411   .     S
C664   H682    1.113   .     S
C664   H45     1.113   1_556 S
C664   H756    1.109   .     S
C665   H687    1.113   .     S
C665   O700    1.413   .     S
C665   H688    1.114   .     S
C665   H686    1.108   .     S
C666   C670    1.385   .     A
C667   C668    1.396   .     A
C667   C17     1.412   1_556 S
C667   C27     1.409   1_556 S
C668   C669    1.389   .     A
C668   H693    1.083   .     S
C669   H674    1.081   .     S
C670   O700    1.387   .     S
H685   C806    1.109   1_455 S
N696   Zn709   2.007   .     S
N697   Zn710   2.007   .     S
O698   Zn709   1.996   .     S
O699   C17     1.384   1_556 S
O701   Zn710   1.998   .     S
O702   Zn709   1.974   .     S
O703   Zn710   1.937   .     S
O704   Zn709   1.998   .     S
O705   Zn710   1.996   .     S
O706   Zn709   1.937   .     S
O707   Zn710   1.974   .     S
C711   O772    1.282   .     A
C711   C719    1.417   .     S
C711   O769    1.281   .     A
C712   C714    1.456   .     S
C712   C733    1.417   .     A
C712   C729    1.401   .     A
C713   C719    1.396   .     A
C713   H746    1.083   .     S
C713   C928    1.370   .     S
C714   O774    1.287   .     A
C714   O773    1.293   .     A
C715   C716    1.397   .     A
C715   H743    1.084   .     S
C715   C1139   1.370   1_545 S
C716   C717    1.396   .     A
C716   C725    1.417   .     S
C717   H754    1.084   .     S
C717   C1144   1.370   1_545 S
C718   H760    1.084   .     S
C718   C719    1.397   .     A
C718   C930    1.370   .     S
C720   H761    1.081   .     S
C720   N768    1.365   .     A
C720   C792    1.413   .     S
C721   H762    1.077   .     S
C721   N767    1.363   .     A
C722   C733    1.407   .     A
C722   C92     1.418   1_556 S
C722   C98     1.413   1_556 S
C723   H763    1.080   .     S
C723   N767    1.363   .     A
C724   N768    1.371   .     A
C724   O779    1.390   .     S
C724   C794    1.432   .     S
C725   O776    1.281   .     A
C725   O775    1.282   .     A
C726   O778    1.294   .     A
C726   O777    1.295   .     A
C726   C728    1.476   .     S
C727   C742    1.419   .     A
C728   C742    1.424   .     A
C728   C741    1.404   .     A
C729   C730    1.385   .     A
C729   H765    1.084   .     S
C730   C92     1.390   1_556 S
C730   H105    1.082   1_556 S
C731   H766    1.080   .     S
C732   C742    1.511   .     S
C732   H749    1.106   .     S
C732   H747    1.110   .     S
C732   H748    1.109   .     S
C733   C740    1.417   .     A
C734   O779    1.412   .     S
C734   H752    1.111   .     S
C734   H751    1.114   .     S
C734   H750    1.109   .     S
C735   O770    1.411   .     S
C735   H753    1.113   .     S
C735   H116    1.113   1_556 S
C735   H827    1.109   .     S
C736   H758    1.113   .     S
C736   O771    1.413   .     S
C736   H759    1.114   .     S
C736   H757    1.108   .     S
C737   C741    1.385   .     A
C738   C739    1.396   .     A
C738   C88     1.412   1_556 S
C738   C98     1.409   1_556 S
C739   C740    1.389   .     A
C739   H764    1.083   .     S
C740   H745    1.081   .     S
C741   O771    1.387   .     S
N767   Zn780   2.007   .     S
N768   Zn781   2.007   .     S
O769   Zn780   1.996   .     S
O770   C88     1.384   1_556 S
O772   Zn781   1.998   .     S
O773   Zn780   1.974   .     S
O774   Zn781   1.937   .     S
O775   Zn780   1.998   .     S
O776   Zn781   1.996   .     S
O777   Zn780   1.937   .     S
O778   Zn781   1.974   .     S
C782   O843    1.282   .     A
C782   C790    1.417   .     S
C782   O840    1.281   .     A
C783   C785    1.456   .     S
C783   C804    1.417   .     A
C783   C800    1.401   .     A
C784   C790    1.396   .     A
C784   H817    1.083   .     S
C784   C999    1.370   .     S
C785   O845    1.287   .     A
C785   O844    1.293   .     A
C786   C787    1.397   .     A
C786   H814    1.084   .     S
C786   C1210   1.370   1_545 S
C787   C788    1.396   .     A
C787   C796    1.417   .     S
C788   H825    1.084   .     S
C788   C1215   1.370   1_545 S
C789   H831    1.084   .     S
C789   C790    1.397   .     A
C789   C1001   1.370   .     S
C791   H832    1.081   .     S
C791   N839    1.365   .     A
C791   C650    1.413   1_655 S
C792   H833    1.077   .     S
C792   N838    1.363   .     A
C793   C804    1.407   .     A
C793   C163    1.418   1_556 S
C793   C169    1.413   1_556 S
C794   H834    1.080   .     S
C794   N838    1.363   .     A
C795   N839    1.371   .     A
C795   O850    1.390   .     S
C795   C652    1.432   1_655 S
C796   O847    1.281   .     A
C796   O846    1.282   .     A
C797   O849    1.294   .     A
C797   O848    1.295   .     A
C797   C799    1.476   .     S
C798   C813    1.419   .     A
C799   C813    1.424   .     A
C799   C812    1.404   .     A
C800   C801    1.385   .     A
C800   H836    1.084   .     S
C801   C163    1.390   1_556 S
C801   H176    1.082   1_556 S
C802   H837    1.080   .     S
C803   C813    1.511   .     S
C803   H820    1.106   .     S
C803   H818    1.110   .     S
C803   H819    1.109   .     S
C804   C811    1.417   .     A
C805   O850    1.412   .     S
C805   H823    1.111   .     S
C805   H822    1.114   .     S
C805   H821    1.109   .     S
C806   O841    1.411   .     S
C806   H824    1.113   .     S
C806   H187    1.113   1_556 S
C806   H685    1.109   1_655 S
C807   H829    1.113   .     S
C807   O842    1.413   .     S
C807   H830    1.114   .     S
C807   H828    1.108   .     S
C808   C812    1.385   .     A
C809   C810    1.396   .     A
C809   C159    1.412   1_556 S
C809   C169    1.409   1_556 S
C810   C811    1.389   .     A
C810   H835    1.083   .     S
C811   H816    1.081   .     S
C812   O842    1.387   .     S
N838   Zn851   2.007   .     S
N839   Zn852   2.007   .     S
O840   Zn851   1.996   .     S
O841   C159    1.384   1_556 S
O843   Zn852   1.998   .     S
O844   Zn851   1.974   .     S
O845   Zn852   1.937   .     S
O846   Zn851   1.998   .     S
O847   Zn852   1.996   .     S
O848   Zn851   1.937   .     S
O849   Zn852   1.974   .     S
C853   O914    1.282   .     A
C853   C861    1.417   .     S
C853   O911    1.281   .     A
C854   C856    1.456   .     S
C854   C875    1.417   .     A
C854   C871    1.401   .     A
C855   C861    1.396   .     A
C855   H888    1.083   .     S
C855   C1070   1.370   .     S
C856   O916    1.287   .     A
C856   O915    1.293   .     A
C857   C858    1.397   .     A
C857   H885    1.084   .     S
C858   C859    1.396   .     A
C858   C867    1.417   .     S
C859   H896    1.084   .     S
C860   H902    1.084   .     S
C860   C861    1.397   .     A
C860   C1072   1.370   .     S
C862   H903    1.081   .     S
C862   N910    1.365   .     A
C862   C934    1.413   .     S
C863   H904    1.077   .     S
C863   N909    1.363   .     A
C863   C1004   1.413   1_455 S
C864   C875    1.407   .     A
C864   C234    1.418   1_556 S
C864   C240    1.413   1_556 S
C865   H905    1.080   .     S
C865   N909    1.363   .     A
C865   C1008   1.432   1_455 S
C866   N910    1.371   .     A
C866   O921    1.390   .     S
C866   C936    1.432   .     S
C867   O918    1.281   .     A
C867   O917    1.282   .     A
C868   O920    1.294   .     A
C868   O919    1.295   .     A
C868   C870    1.476   .     S
C869   C884    1.419   .     A
C870   C884    1.424   .     A
C870   C883    1.404   .     A
C871   C872    1.385   .     A
C871   H907    1.084   .     S
C872   C234    1.390   1_556 S
C872   H247    1.082   1_556 S
C873   H908    1.080   .     S
C874   C884    1.511   .     S
C874   H891    1.106   .     S
C874   H889    1.110   .     S
C874   H890    1.109   .     S
C875   C882    1.417   .     A
C876   O921    1.412   .     S
C876   H894    1.111   .     S
C876   H893    1.114   .     S
C876   H892    1.109   .     S
C877   O912    1.411   .     S
C877   H895    1.113   .     S
C877   H258    1.113   1_556 S
C877   H969    1.109   .     S
C878   H900    1.113   .     S
C878   O913    1.413   .     S
C878   H901    1.114   .     S
C878   H899    1.108   .     S
C879   C883    1.385   .     A
C880   C881    1.396   .     A
C880   C230    1.412   1_556 S
C880   C240    1.409   1_556 S
C881   C882    1.389   .     A
C881   H906    1.083   .     S
C882   H887    1.081   .     S
C883   O913    1.387   .     S
H898   C1019   1.109   1_455 S
N909   Zn922   2.007   .     S
N910   Zn923   2.007   .     S
O911   Zn922   1.996   .     S
O912   C230    1.384   1_556 S
O914   Zn923   1.998   .     S
O915   Zn922   1.974   .     S
O916   Zn923   1.937   .     S
O917   Zn922   1.998   .     S
O918   Zn923   1.996   .     S
O919   Zn922   1.937   .     S
O920   Zn923   1.974   .     S
C924   O985    1.282   .     A
C924   C932    1.417   .     S
C924   O982    1.281   .     A
C925   C927    1.456   .     S
C925   C946    1.417   .     A
C925   C942    1.401   .     A
C926   C932    1.396   .     A
C926   H959    1.083   .     S
C926   C1141   1.370   .     S
C927   O987    1.287   .     A
C927   O986    1.293   .     A
C928   C929    1.397   .     A
C928   H956    1.084   .     S
C929   C930    1.396   .     A
C929   C938    1.417   .     S
C930   H967    1.084   .     S
C931   H973    1.084   .     S
C931   C932    1.397   .     A
C931   C1143   1.370   .     S
C933   H974    1.081   .     S
C933   N981    1.365   .     A
C933   C1005   1.413   .     S
C934   H975    1.077   .     S
C934   N980    1.363   .     A
C935   C946    1.407   .     A
C935   C305    1.418   1_556 S
C935   C311    1.413   1_556 S
C936   H976    1.080   .     S
C936   N980    1.363   .     A
C937   N981    1.371   .     A
C937   O992    1.390   .     S
C937   C1007   1.432   .     S
C938   O989    1.281   .     A
C938   O988    1.282   .     A
C939   O991    1.294   .     A
C939   O990    1.295   .     A
C939   C941    1.476   .     S
C940   C955    1.419   .     A
C941   C955    1.424   .     A
C941   C954    1.404   .     A
C942   C943    1.385   .     A
C942   H978    1.084   .     S
C943   C305    1.390   1_556 S
C943   H318    1.082   1_556 S
C944   H979    1.080   .     S
C945   C955    1.511   .     S
C945   H962    1.106   .     S
C945   H960    1.110   .     S
C945   H961    1.109   .     S
C946   C953    1.417   .     A
C947   O992    1.412   .     S
C947   H965    1.111   .     S
C947   H964    1.114   .     S
C947   H963    1.109   .     S
C948   O983    1.411   .     S
C948   H966    1.113   .     S
C948   H329    1.113   1_556 S
C948   H1040   1.109   .     S
C949   H971    1.113   .     S
C949   O984    1.413   .     S
C949   H972    1.114   .     S
C949   H970    1.108   .     S
C950   C954    1.385   .     A
C951   C952    1.396   .     A
C951   C301    1.412   1_556 S
C951   C311    1.409   1_556 S
C952   C953    1.389   .     A
C952   H977    1.083   .     S
C953   H958    1.081   .     S
C954   O984    1.387   .     S
N980   Zn993   2.007   .     S
N981   Zn994   2.007   .     S
O982   Zn993   1.996   .     S
O983   C301    1.384   1_556 S
O985   Zn994   1.998   .     S
O986   Zn993   1.974   .     S
O987   Zn994   1.937   .     S
O988   Zn993   1.998   .     S
O989   Zn994   1.996   .     S
O990   Zn993   1.937   .     S
O991   Zn994   1.974   .     S
C995   O1056   1.282   .     A
C995   C1003   1.417   .     S
C995   O1053   1.281   .     A
C996   C998    1.456   .     S
C996   C1017   1.417   .     A
C996   C1013   1.401   .     A
C997   C1003   1.396   .     A
C997   H1030   1.083   .     S
C997   C1212   1.370   .     S
C998   O1058   1.287   .     A
C998   O1057   1.293   .     A
C999   C1000   1.397   .     A
C999   H1027   1.084   .     S
C1000  C1001   1.396   .     A
C1000  C1009   1.417   .     S
C1001  H1038   1.084   .     S
C1002  H1044   1.084   .     S
C1002  C1003   1.397   .     A
C1002  C1214   1.370   .     S
C1004  H1045   1.081   .     S
C1004  N1052   1.365   .     A
C1004  C863    1.413   1_655 S
C1005  H1046   1.077   .     S
C1005  N1051   1.363   .     A
C1006  C1017   1.407   .     A
C1006  C376    1.418   1_556 S
C1006  C382    1.413   1_556 S
C1007  H1047   1.080   .     S
C1007  N1051   1.363   .     A
C1008  N1052   1.371   .     A
C1008  O1063   1.390   .     S
C1008  C865    1.432   1_655 S
C1009  O1060   1.281   .     A
C1009  O1059   1.282   .     A
C1010  O1062   1.294   .     A
C1010  O1061   1.295   .     A
C1010  C1012   1.476   .     S
C1011  C1026   1.419   .     A
C1012  C1026   1.424   .     A
C1012  C1025   1.404   .     A
C1013  C1014   1.385   .     A
C1013  H1049   1.084   .     S
C1014  C376    1.390   1_556 S
C1014  H389    1.082   1_556 S
C1015  H1050   1.080   .     S
C1016  C1026   1.511   .     S
C1016  H1033   1.106   .     S
C1016  H1031   1.110   .     S
C1016  H1032   1.109   .     S
C1017  C1024   1.417   .     A
C1018  O1063   1.412   .     S
C1018  H1036   1.111   .     S
C1018  H1035   1.114   .     S
C1018  H1034   1.109   .     S
C1019  O1054   1.411   .     S
C1019  H1037   1.113   .     S
C1019  H400    1.113   1_556 S
C1019  H898    1.109   1_655 S
C1020  H1042   1.113   .     S
C1020  O1055   1.413   .     S
C1020  H1043   1.114   .     S
C1020  H1041   1.108   .     S
C1021  C1025   1.385   .     A
C1022  C1023   1.396   .     A
C1022  C372    1.412   1_556 S
C1022  C382    1.409   1_556 S
C1023  C1024   1.389   .     A
C1023  H1048   1.083   .     S
C1024  H1029   1.081   .     S
C1025  O1055   1.387   .     S
N1051  Zn1064  2.007   .     S
N1052  Zn1065  2.007   .     S
O1053  Zn1064  1.996   .     S
O1054  C372    1.384   1_556 S
O1056  Zn1065  1.998   .     S
O1057  Zn1064  1.974   .     S
O1058  Zn1065  1.937   .     S
O1059  Zn1064  1.998   .     S
O1060  Zn1065  1.996   .     S
O1061  Zn1064  1.937   .     S
O1062  Zn1065  1.974   .     S
C1066  O1127   1.282   .     A
C1066  C1074   1.417   .     S
C1066  O1124   1.281   .     A
C1067  C1069   1.456   .     S
C1067  C1088   1.417   .     A
C1067  C1084   1.401   .     A
C1068  C1074   1.396   .     A
C1068  H1101   1.083   .     S
C1068  C644    1.370   1_565 S
C1069  O1129   1.287   .     A
C1069  O1128   1.293   .     A
C1070  C1071   1.397   .     A
C1070  H1098   1.084   .     S
C1071  C1072   1.396   .     A
C1071  C1080   1.417   .     S
C1072  H1109   1.084   .     S
C1073  H1115   1.084   .     S
C1073  C1074   1.397   .     A
C1073  C646    1.370   1_565 S
C1075  H1116   1.081   .     S
C1075  N1123   1.365   .     A
C1075  C1147   1.413   .     S
C1076  H1117   1.077   .     S
C1076  N1122   1.363   .     A
C1076  C1217   1.413   1_455 S
C1077  C1088   1.407   .     A
C1077  C447    1.418   1_556 S
C1077  C453    1.413   1_556 S
C1078  H1118   1.080   .     S
C1078  N1122   1.363   .     A
C1078  C1221   1.432   1_455 S
C1079  N1123   1.371   .     A
C1079  O1134   1.390   .     S
C1079  C1149   1.432   .     S
C1080  O1131   1.281   .     A
C1080  O1130   1.282   .     A
C1081  O1133   1.294   .     A
C1081  O1132   1.295   .     A
C1081  C1083   1.476   .     S
C1082  C1097   1.419   .     A
C1083  C1097   1.424   .     A
C1083  C1096   1.404   .     A
C1084  C1085   1.385   .     A
C1084  H1120   1.084   .     S
C1085  C447    1.390   1_556 S
C1085  H460    1.082   1_556 S
C1086  H1121   1.080   .     S
C1087  C1097   1.511   .     S
C1087  H1104   1.106   .     S
C1087  H1102   1.110   .     S
C1087  H1103   1.109   .     S
C1088  C1095   1.417   .     A
C1089  O1134   1.412   .     S
C1089  H1107   1.111   .     S
C1089  H1106   1.114   .     S
C1089  H1105   1.109   .     S
C1090  O1125   1.411   .     S
C1090  H1108   1.113   .     S
C1090  H471    1.113   1_556 S
C1090  H1182   1.109   .     S
C1091  H1113   1.113   .     S
C1091  O1126   1.413   .     S
C1091  H1114   1.114   .     S
C1091  H1112   1.108   .     S
C1092  C1096   1.385   .     A
C1093  C1094   1.396   .     A
C1093  C443    1.412   1_556 S
C1093  C453    1.409   1_556 S
C1094  C1095   1.389   .     A
C1094  H1119   1.083   .     S
C1095  H1100   1.081   .     S
C1096  O1126   1.387   .     S
H1111  C1232   1.109   1_455 S
N1122  Zn1135  2.007   .     S
N1123  Zn1136  2.007   .     S
O1124  Zn1135  1.996   .     S
O1125  C443    1.384   1_556 S
O1127  Zn1136  1.998   .     S
O1128  Zn1135  1.974   .     S
O1129  Zn1136  1.937   .     S
O1130  Zn1135  1.998   .     S
O1131  Zn1136  1.996   .     S
O1132  Zn1135  1.937   .     S
O1133  Zn1136  1.974   .     S
C1137  O1198   1.282   .     A
C1137  C1145   1.417   .     S
C1137  O1195   1.281   .     A
C1138  C1140   1.456   .     S
C1138  C1159   1.417   .     A
C1138  C1155   1.401   .     A
C1139  C1145   1.396   .     A
C1139  H1172   1.083   .     S
C1139  C715    1.370   1_565 S
C1140  O1200   1.287   .     A
C1140  O1199   1.293   .     A
C1141  C1142   1.397   .     A
C1141  H1169   1.084   .     S
C1142  C1143   1.396   .     A
C1142  C1151   1.417   .     S
C1143  H1180   1.084   .     S
C1144  H1186   1.084   .     S
C1144  C1145   1.397   .     A
C1144  C717    1.370   1_565 S
C1146  H1187   1.081   .     S
C1146  N1194   1.365   .     A
C1146  C1218   1.413   .     S
C1147  H1188   1.077   .     S
C1147  N1193   1.363   .     A
C1148  C1159   1.407   .     A
C1148  C518    1.418   1_556 S
C1148  C524    1.413   1_556 S
C1149  H1189   1.080   .     S
C1149  N1193   1.363   .     A
C1150  N1194   1.371   .     A
C1150  O1205   1.390   .     S
C1150  C1220   1.432   .     S
C1151  O1202   1.281   .     A
C1151  O1201   1.282   .     A
C1152  O1204   1.294   .     A
C1152  O1203   1.295   .     A
C1152  C1154   1.476   .     S
C1153  C1168   1.419   .     A
C1154  C1168   1.424   .     A
C1154  C1167   1.404   .     A
C1155  C1156   1.385   .     A
C1155  H1191   1.084   .     S
C1156  C518    1.390   1_556 S
C1156  H531    1.082   1_556 S
C1157  H1192   1.080   .     S
C1158  C1168   1.511   .     S
C1158  H1175   1.106   .     S
C1158  H1173   1.110   .     S
C1158  H1174   1.109   .     S
C1159  C1166   1.417   .     A
C1160  O1205   1.412   .     S
C1160  H1178   1.111   .     S
C1160  H1177   1.114   .     S
C1160  H1176   1.109   .     S
C1161  O1196   1.411   .     S
C1161  H1179   1.113   .     S
C1161  H542    1.113   1_556 S
C1161  H1253   1.109   .     S
C1162  H1184   1.113   .     S
C1162  O1197   1.413   .     S
C1162  H1185   1.114   .     S
C1162  H1183   1.108   .     S
C1163  C1167   1.385   .     A
C1164  C1165   1.396   .     A
C1164  C514    1.412   1_556 S
C1164  C524    1.409   1_556 S
C1165  C1166   1.389   .     A
C1165  H1190   1.083   .     S
C1166  H1171   1.081   .     S
C1167  O1197   1.387   .     S
N1193  Zn1206  2.007   .     S
N1194  Zn1207  2.007   .     S
O1195  Zn1206  1.996   .     S
O1196  C514    1.384   1_556 S
O1198  Zn1207  1.998   .     S
O1199  Zn1206  1.974   .     S
O1200  Zn1207  1.937   .     S
O1201  Zn1206  1.998   .     S
O1202  Zn1207  1.996   .     S
O1203  Zn1206  1.937   .     S
O1204  Zn1207  1.974   .     S
C1208  O1269   1.282   .     A
C1208  C1216   1.417   .     S
C1208  O1266   1.281   .     A
C1209  C1211   1.456   .     S
C1209  C1230   1.417   .     A
C1209  C1226   1.401   .     A
C1210  C1216   1.396   .     A
C1210  H1243   1.083   .     S
C1210  C786    1.370   1_565 S
C1211  O1271   1.287   .     A
C1211  O1270   1.293   .     A
C1212  C1213   1.397   .     A
C1212  H1240   1.084   .     S
C1213  C1214   1.396   .     A
C1213  C1222   1.417   .     S
C1214  H1251   1.084   .     S
C1215  H1257   1.084   .     S
C1215  C1216   1.397   .     A
C1215  C788    1.370   1_565 S
C1217  H1258   1.081   .     S
C1217  N1265   1.365   .     A
C1217  C1076   1.413   1_655 S
C1218  H1259   1.077   .     S
C1218  N1264   1.363   .     A
C1219  C1230   1.407   .     A
C1219  C589    1.418   1_556 S
C1219  C595    1.413   1_556 S
C1220  H1260   1.080   .     S
C1220  N1264   1.363   .     A
C1221  N1265   1.371   .     A
C1221  O1276   1.390   .     S
C1221  C1078   1.432   1_655 S
C1222  O1273   1.281   .     A
C1222  O1272   1.282   .     A
C1223  O1275   1.294   .     A
C1223  O1274   1.295   .     A
C1223  C1225   1.476   .     S
C1224  C1239   1.419   .     A
C1225  C1239   1.424   .     A
C1225  C1238   1.404   .     A
C1226  C1227   1.385   .     A
C1226  H1262   1.084   .     S
C1227  C589    1.390   1_556 S
C1227  H602    1.082   1_556 S
C1228  H1263   1.080   .     S
C1229  C1239   1.511   .     S
C1229  H1246   1.106   .     S
C1229  H1244   1.110   .     S
C1229  H1245   1.109   .     S
C1230  C1237   1.417   .     A
C1231  O1276   1.412   .     S
C1231  H1249   1.111   .     S
C1231  H1248   1.114   .     S
C1231  H1247   1.109   .     S
C1232  O1267   1.411   .     S
C1232  H1250   1.113   .     S
C1232  H613    1.113   1_556 S
C1232  H1111   1.109   1_655 S
C1233  H1255   1.113   .     S
C1233  O1268   1.413   .     S
C1233  H1256   1.114   .     S
C1233  H1254   1.108   .     S
C1234  C1238   1.385   .     A
C1235  C1236   1.396   .     A
C1235  C585    1.412   1_556 S
C1235  C595    1.409   1_556 S
C1236  C1237   1.389   .     A
C1236  H1261   1.083   .     S
C1237  H1242   1.081   .     S
C1238  O1268   1.387   .     S
N1264  Zn1277  2.007   .     S
N1265  Zn1278  2.007   .     S
O1266  Zn1277  1.996   .     S
O1267  C585    1.384   1_556 S
O1269  Zn1278  1.998   .     S
O1270  Zn1277  1.974   .     S
O1271  Zn1278  1.937   .     S
O1272  Zn1277  1.998   .     S
O1273  Zn1278  1.996   .     S
O1274  Zn1277  1.937   .     S
O1275  Zn1278  1.974   .     S
