data_str_m3_o1_o18_pcu_sym.89
_audit_creation_date              2020-01-03
_audit_creation_method            'Materials Studio'
_symmetry_space_group_name_H-M    'P1'
_symmetry_Int_Tables_number       1
_symmetry_cell_setting            triclinic
loop_
_symmetry_equiv_pos_as_xyz
  x,y,z
_cell_length_a                    29.8236
_cell_length_b                    32.3722
_cell_length_c                    30.0705
_cell_angle_alpha                 92.5013
_cell_angle_beta                  71.5908
_cell_angle_gamma                 90.8239
loop_
_atom_site_label
_atom_site_type_symbol
_atom_site_fract_x
_atom_site_fract_y
_atom_site_fract_z
_atom_site_U_iso_or_equiv
_atom_site_adp_type
_atom_site_occupancy
C1     C     0.16686   0.24654   0.25008   0.00000  Uiso   1.00
C2     C     0.13492   0.31134   0.23393   0.00000  Uiso   1.00
C3     C     0.16278   0.04258   0.25738   0.00000  Uiso   1.00
C4     C     0.16599   0.29082   0.25225   0.00000  Uiso   1.00
C5     C     0.31754   0.13804   0.22325   0.00000  Uiso   1.00
C6     C     0.01572   0.19528   0.27686   0.00000  Uiso   1.00
C7     C     0.03226   0.13755   0.22394   0.00000  Uiso   1.00
C8     C     0.30058   0.19494   0.27736   0.00000  Uiso   1.00
C9     C     0.13799   0.16600   0.33852   0.00000  Uiso   1.00
C10    C     0.19540   0.16553   0.16181   0.00000  Uiso   1.00
C11    C     0.12336   0.15886   0.38983   0.00000  Uiso   1.00
C12    C     0.16547   0.08681   0.25254   0.00000  Uiso   1.00
C13    C     0.20973   0.15597   0.11090   0.00000  Uiso   1.00
C14    C     0.06570   0.16293   0.46768   0.00000  Uiso   1.00
C15    C     0.25646   0.16624   0.02924   0.00000  Uiso   1.00
C16    C     0.07875   0.17150   0.41991   0.00000  Uiso   1.00
C17    C     0.24330   0.17974   0.07727   0.00000  Uiso   1.00
C18    C     0.15536   0.14100   0.41006   0.00000  Uiso   1.00
C19    C     0.18582   0.12344   0.09510   0.00000  Uiso   1.00
C20    C     0.13823   0.12451   0.45566   0.00000  Uiso   1.00
C21    C     0.19202   0.11781   0.04733   0.00000  Uiso   1.00
C22    C     0.09138   0.13406   0.48338   0.00000  Uiso   1.00
C23    C     0.10636   0.11202   0.05356   0.00000  Uiso   1.00
C24    C     0.23533   0.13061   0.01634   0.00000  Uiso   1.00
C25    C     0.16799   0.10571   0.47807   0.00000  Uiso   1.00
C26    C     0.15496   0.10874   0.02774   0.00000  Uiso   1.00
C27    C     0.02396   0.11513   0.05206   0.00000  Uiso   1.00
C28    C     0.29904   0.10787   0.44366   0.00000  Uiso   1.00
C29    C     0.16827   0.08861   0.12406   0.00000  Uiso   1.00
C30    C     0.20562   0.14812   0.38871   0.00000  Uiso   1.00
C31    C     0.22747   0.04461   0.29420   0.00000  Uiso   1.00
C32    C     0.11135   0.29029   0.20376   0.00000  Uiso   1.00
C33    C     0.30189   0.10842   0.19414   0.00000  Uiso   1.00
C34    C     0.21515   0.09406   0.45403   0.00000  Uiso   1.00
C35    C     0.03170   0.22602   0.30457   0.00000  Uiso   1.00
C36    C     0.07419   0.12056   0.02957   0.00000  Uiso   1.00
C37    C     0.24987   0.11183   0.47100   0.00000  Uiso   1.00
C38    C     0.19291   0.31246   0.27647   0.00000  Uiso   1.00
C39    C     0.12888   0.02019   0.24245   0.00000  Uiso   1.00
C40    C     0.19410   0.02218   0.27594   0.00000  Uiso   1.00
H41    H     0.24838   0.22308   0.12275   0.00000  Uiso   1.00
H42    H     0.28058   0.23918   0.32606   0.00000  Uiso   1.00
H43    H     0.03811   0.17820   0.38304   0.00000  Uiso   1.00
H44    H     0.03125   0.21402   0.48795   0.00000  Uiso   1.00
H45    H     0.28289   0.21945   0.00673   0.00000  Uiso   1.00
H46    H     0.06004   0.12292   0.11510   0.00000  Uiso   1.00
H47    H     0.19838   0.05926   0.40778   0.00000  Uiso   1.00
H48    H     0.22651   0.30875   0.32282   0.00000  Uiso   1.00
H49    H     0.06577   0.02058   0.23549   0.00000  Uiso   1.00
H50    H     0.04814   0.08528   0.18786   0.00000  Uiso   1.00
N51    N     0.04759   0.16668   0.25001   0.00000  Uiso   1.00
N52    N     0.04411   0.25097   0.32687   0.00000  Uiso   1.00
N53    N     0.28574   0.16666   0.24999   0.00000  Uiso   1.00
N54    N     0.31728   0.11019   0.07004   0.00000  Uiso   1.00
N55    N     0.00496   0.10382   0.42142   0.00000  Uiso   1.00
N56    N     0.15486   0.06007   0.14626   0.00000  Uiso   1.00
N57    N     0.24572   0.15396   0.37200   0.00000  Uiso   1.00
N58    N     0.25436   0.06241   0.30841   0.00000  Uiso   1.00
N59    N     0.09261   0.27358   0.17971   0.00000  Uiso   1.00
N60    N     0.28952   0.08440   0.17083   0.00000  Uiso   1.00
O61    O     0.12846   0.22775   0.25001   0.00000  Uiso   1.00
O62    O     0.04963   0.19595   0.40480   0.00000  Uiso   1.00
O63    O     0.03222   0.18644   0.00074   0.00000  Uiso   1.00
O64    O     0.28197   0.19091   0.49374   0.00000  Uiso   1.00
O65    O     0.09140   0.10968   0.10163   0.00000  Uiso   1.00
O66    O     0.22772   0.07047   0.41260   0.00000  Uiso   1.00
O67    O     0.21772   0.29057   0.29958   0.00000  Uiso   1.00
O68    O     0.09182   0.04029   0.23425   0.00000  Uiso   1.00
O69    O     0.06455   0.10837   0.19885   0.00000  Uiso   1.00
O70    O     0.26720   0.22214   0.30525   0.00000  Uiso   1.00
O71    O     0.20488   0.10558   0.25000   0.00000  Uiso   1.00
O72    O     0.20490   0.22774   0.25000   0.00000  Uiso   1.00
O73    O     0.12843   0.10559   0.25000   0.00000  Uiso   1.00
O74    O     0.10661   0.16667   0.31613   0.00000  Uiso   1.00
O75    O     0.22672   0.16666   0.18388   0.00000  Uiso   1.00
O76    O     0.18305   0.16666   0.31612   0.00000  Uiso   1.00
O77    O     0.15028   0.16667   0.18388   0.00000  Uiso   1.00
O78    O     0.26430   0.21492   0.08946   0.00000  Uiso   1.00
Zn79   Zn    0.11562   0.16667   0.25000   0.00000  Uiso   1.00
Zn80   Zn    0.21771   0.16666   0.25000   0.00000  Uiso   1.00
C81    C     0.50020   0.24654   0.25008   0.00000  Uiso   1.00
C82    C     0.46825   0.31134   0.23393   0.00000  Uiso   1.00
C83    C     0.49611   0.04258   0.25738   0.00000  Uiso   1.00
C84    C     0.49932   0.29082   0.25225   0.00000  Uiso   1.00
C85    C     0.65087   0.13804   0.22325   0.00000  Uiso   1.00
C86    C     0.34905   0.19528   0.27686   0.00000  Uiso   1.00
C87    C     0.36559   0.13755   0.22394   0.00000  Uiso   1.00
C88    C     0.63391   0.19494   0.27736   0.00000  Uiso   1.00
C89    C     0.47133   0.16600   0.33852   0.00000  Uiso   1.00
C90    C     0.52873   0.16553   0.16181   0.00000  Uiso   1.00
C91    C     0.45669   0.15886   0.38983   0.00000  Uiso   1.00
C92    C     0.49880   0.08681   0.25254   0.00000  Uiso   1.00
C93    C     0.54306   0.15597   0.11090   0.00000  Uiso   1.00
C94    C     0.39903   0.16293   0.46768   0.00000  Uiso   1.00
C95    C     0.58979   0.16624   0.02924   0.00000  Uiso   1.00
C96    C     0.41209   0.17150   0.41991   0.00000  Uiso   1.00
C97    C     0.57663   0.17974   0.07727   0.00000  Uiso   1.00
C98    C     0.48869   0.14100   0.41006   0.00000  Uiso   1.00
C99    C     0.51915   0.12344   0.09510   0.00000  Uiso   1.00
C100   C     0.47157   0.12451   0.45566   0.00000  Uiso   1.00
C101   C     0.52535   0.11781   0.04733   0.00000  Uiso   1.00
C102   C     0.42472   0.13406   0.48338   0.00000  Uiso   1.00
C103   C     0.43969   0.11202   0.05356   0.00000  Uiso   1.00
C104   C     0.56867   0.13061   0.01634   0.00000  Uiso   1.00
C105   C     0.50132   0.10571   0.47807   0.00000  Uiso   1.00
C106   C     0.48829   0.10874   0.02774   0.00000  Uiso   1.00
C107   C     0.35729   0.11513   0.05206   0.00000  Uiso   1.00
C108   C     0.63238   0.10787   0.44366   0.00000  Uiso   1.00
C109   C     0.50160   0.08861   0.12406   0.00000  Uiso   1.00
C110   C     0.53896   0.14812   0.38871   0.00000  Uiso   1.00
C111   C     0.56080   0.04461   0.29420   0.00000  Uiso   1.00
C112   C     0.44469   0.29029   0.20376   0.00000  Uiso   1.00
C113   C     0.63522   0.10842   0.19414   0.00000  Uiso   1.00
C114   C     0.54849   0.09406   0.45403   0.00000  Uiso   1.00
C115   C     0.36503   0.22602   0.30457   0.00000  Uiso   1.00
C116   C     0.40752   0.12056   0.02957   0.00000  Uiso   1.00
C117   C     0.58321   0.11183   0.47100   0.00000  Uiso   1.00
C118   C     0.52624   0.31246   0.27647   0.00000  Uiso   1.00
C119   C     0.46222   0.02019   0.24245   0.00000  Uiso   1.00
C120   C     0.52743   0.02218   0.27594   0.00000  Uiso   1.00
H121   H     0.58171   0.22308   0.12275   0.00000  Uiso   1.00
H122   H     0.61391   0.23918   0.32606   0.00000  Uiso   1.00
H123   H     0.37145   0.17820   0.38304   0.00000  Uiso   1.00
H124   H     0.36458   0.21402   0.48795   0.00000  Uiso   1.00
H125   H     0.61623   0.21945   0.00673   0.00000  Uiso   1.00
H126   H     0.39337   0.12292   0.11510   0.00000  Uiso   1.00
H127   H     0.53172   0.05926   0.40778   0.00000  Uiso   1.00
H128   H     0.55984   0.30875   0.32282   0.00000  Uiso   1.00
H129   H     0.39910   0.02058   0.23549   0.00000  Uiso   1.00
H130   H     0.38147   0.08528   0.18786   0.00000  Uiso   1.00
N131   N     0.38093   0.16668   0.25001   0.00000  Uiso   1.00
N132   N     0.37745   0.25097   0.32687   0.00000  Uiso   1.00
N133   N     0.61907   0.16666   0.24999   0.00000  Uiso   1.00
N134   N     0.65062   0.11019   0.07004   0.00000  Uiso   1.00
N135   N     0.33829   0.10382   0.42142   0.00000  Uiso   1.00
N136   N     0.48820   0.06007   0.14626   0.00000  Uiso   1.00
N137   N     0.57905   0.15396   0.37200   0.00000  Uiso   1.00
N138   N     0.58769   0.06241   0.30841   0.00000  Uiso   1.00
N139   N     0.42594   0.27358   0.17971   0.00000  Uiso   1.00
N140   N     0.62285   0.08440   0.17083   0.00000  Uiso   1.00
O141   O     0.46179   0.22775   0.25001   0.00000  Uiso   1.00
O142   O     0.38296   0.19595   0.40480   0.00000  Uiso   1.00
O143   O     0.36555   0.18644   0.00074   0.00000  Uiso   1.00
O144   O     0.61530   0.19091   0.49374   0.00000  Uiso   1.00
O145   O     0.42473   0.10968   0.10163   0.00000  Uiso   1.00
O146   O     0.56106   0.07047   0.41260   0.00000  Uiso   1.00
O147   O     0.55106   0.29057   0.29958   0.00000  Uiso   1.00
O148   O     0.42515   0.04029   0.23425   0.00000  Uiso   1.00
O149   O     0.39788   0.10837   0.19885   0.00000  Uiso   1.00
O150   O     0.60053   0.22214   0.30525   0.00000  Uiso   1.00
O151   O     0.53821   0.10558   0.25000   0.00000  Uiso   1.00
O152   O     0.53823   0.22774   0.25000   0.00000  Uiso   1.00
O153   O     0.46177   0.10559   0.25000   0.00000  Uiso   1.00
O154   O     0.43994   0.16667   0.31613   0.00000  Uiso   1.00
O155   O     0.56006   0.16666   0.18388   0.00000  Uiso   1.00
O156   O     0.51639   0.16666   0.31612   0.00000  Uiso   1.00
O157   O     0.48361   0.16667   0.18388   0.00000  Uiso   1.00
O158   O     0.59764   0.21492   0.08946   0.00000  Uiso   1.00
Zn159  Zn    0.44896   0.16667   0.25000   0.00000  Uiso   1.00
Zn160  Zn    0.55104   0.16666   0.25000   0.00000  Uiso   1.00
C161   C     0.83353   0.24654   0.25008   0.00000  Uiso   1.00
C162   C     0.80158   0.31134   0.23393   0.00000  Uiso   1.00
C163   C     0.82945   0.04258   0.25738   0.00000  Uiso   1.00
C164   C     0.83265   0.29082   0.25225   0.00000  Uiso   1.00
C165   C     0.98421   0.13804   0.22325   0.00000  Uiso   1.00
C166   C     0.68238   0.19528   0.27686   0.00000  Uiso   1.00
C167   C     0.69893   0.13755   0.22394   0.00000  Uiso   1.00
C168   C     0.96724   0.19494   0.27736   0.00000  Uiso   1.00
C169   C     0.80466   0.16600   0.33852   0.00000  Uiso   1.00
C170   C     0.86206   0.16553   0.16181   0.00000  Uiso   1.00
C171   C     0.79003   0.15886   0.38983   0.00000  Uiso   1.00
C172   C     0.83214   0.08681   0.25254   0.00000  Uiso   1.00
C173   C     0.87640   0.15597   0.11090   0.00000  Uiso   1.00
C174   C     0.73236   0.16293   0.46768   0.00000  Uiso   1.00
C175   C     0.92312   0.16624   0.02924   0.00000  Uiso   1.00
C176   C     0.74542   0.17150   0.41991   0.00000  Uiso   1.00
C177   C     0.90997   0.17974   0.07727   0.00000  Uiso   1.00
C178   C     0.82203   0.14100   0.41006   0.00000  Uiso   1.00
C179   C     0.85248   0.12344   0.09510   0.00000  Uiso   1.00
C180   C     0.80490   0.12451   0.45566   0.00000  Uiso   1.00
C181   C     0.85868   0.11781   0.04733   0.00000  Uiso   1.00
C182   C     0.75805   0.13406   0.48338   0.00000  Uiso   1.00
C183   C     0.77302   0.11202   0.05356   0.00000  Uiso   1.00
C184   C     0.90200   0.13061   0.01634   0.00000  Uiso   1.00
C185   C     0.83465   0.10571   0.47807   0.00000  Uiso   1.00
C186   C     0.82163   0.10874   0.02774   0.00000  Uiso   1.00
C187   C     0.69063   0.11513   0.05206   0.00000  Uiso   1.00
C188   C     0.96571   0.10787   0.44366   0.00000  Uiso   1.00
C189   C     0.83493   0.08861   0.12406   0.00000  Uiso   1.00
C190   C     0.87229   0.14812   0.38871   0.00000  Uiso   1.00
C191   C     0.89413   0.04461   0.29420   0.00000  Uiso   1.00
C192   C     0.77802   0.29029   0.20376   0.00000  Uiso   1.00
C193   C     0.96856   0.10842   0.19414   0.00000  Uiso   1.00
C194   C     0.88182   0.09406   0.45403   0.00000  Uiso   1.00
C195   C     0.69837   0.22602   0.30457   0.00000  Uiso   1.00
C196   C     0.74085   0.12056   0.02957   0.00000  Uiso   1.00
C197   C     0.91654   0.11183   0.47100   0.00000  Uiso   1.00
C198   C     0.85957   0.31246   0.27647   0.00000  Uiso   1.00
C199   C     0.79555   0.02019   0.24245   0.00000  Uiso   1.00
C200   C     0.86077   0.02218   0.27594   0.00000  Uiso   1.00
H201   H     0.91504   0.22308   0.12275   0.00000  Uiso   1.00
H202   H     0.94725   0.23918   0.32606   0.00000  Uiso   1.00
H203   H     0.70478   0.17820   0.38304   0.00000  Uiso   1.00
H204   H     0.69792   0.21402   0.48795   0.00000  Uiso   1.00
H205   H     0.94956   0.21945   0.00673   0.00000  Uiso   1.00
H206   H     0.72670   0.12292   0.11510   0.00000  Uiso   1.00
H207   H     0.86505   0.05926   0.40778   0.00000  Uiso   1.00
H208   H     0.89317   0.30875   0.32282   0.00000  Uiso   1.00
H209   H     0.73243   0.02058   0.23549   0.00000  Uiso   1.00
H210   H     0.71481   0.08528   0.18786   0.00000  Uiso   1.00
N211   N     0.71426   0.16668   0.25001   0.00000  Uiso   1.00
N212   N     0.71078   0.25097   0.32687   0.00000  Uiso   1.00
N213   N     0.95241   0.16666   0.24999   0.00000  Uiso   1.00
N214   N     0.98395   0.11019   0.07004   0.00000  Uiso   1.00
N215   N     0.67162   0.10382   0.42142   0.00000  Uiso   1.00
N216   N     0.82153   0.06007   0.14626   0.00000  Uiso   1.00
N217   N     0.91238   0.15396   0.37200   0.00000  Uiso   1.00
N218   N     0.92103   0.06241   0.30841   0.00000  Uiso   1.00
N219   N     0.75928   0.27358   0.17971   0.00000  Uiso   1.00
N220   N     0.95619   0.08440   0.17083   0.00000  Uiso   1.00
O221   O     0.79512   0.22775   0.25001   0.00000  Uiso   1.00
O222   O     0.71629   0.19595   0.40480   0.00000  Uiso   1.00
O223   O     0.69889   0.18644   0.00074   0.00000  Uiso   1.00
O224   O     0.94863   0.19091   0.49374   0.00000  Uiso   1.00
O225   O     0.75806   0.10968   0.10163   0.00000  Uiso   1.00
O226   O     0.89439   0.07047   0.41260   0.00000  Uiso   1.00
O227   O     0.88439   0.29057   0.29958   0.00000  Uiso   1.00
O228   O     0.75849   0.04029   0.23425   0.00000  Uiso   1.00
O229   O     0.73121   0.10837   0.19885   0.00000  Uiso   1.00
O230   O     0.93387   0.22214   0.30525   0.00000  Uiso   1.00
O231   O     0.87154   0.10558   0.25000   0.00000  Uiso   1.00
O232   O     0.87157   0.22774   0.25000   0.00000  Uiso   1.00
O233   O     0.79510   0.10559   0.25000   0.00000  Uiso   1.00
O234   O     0.77328   0.16667   0.31613   0.00000  Uiso   1.00
O235   O     0.89339   0.16666   0.18388   0.00000  Uiso   1.00
O236   O     0.84972   0.16666   0.31612   0.00000  Uiso   1.00
O237   O     0.81695   0.16667   0.18388   0.00000  Uiso   1.00
O238   O     0.93097   0.21492   0.08946   0.00000  Uiso   1.00
Zn239  Zn    0.78229   0.16667   0.25000   0.00000  Uiso   1.00
Zn240  Zn    0.88438   0.16666   0.25000   0.00000  Uiso   1.00
C241   C     0.16686   0.57987   0.25008   0.00000  Uiso   1.00
C242   C     0.13492   0.64467   0.23393   0.00000  Uiso   1.00
C243   C     0.16278   0.37591   0.25738   0.00000  Uiso   1.00
C244   C     0.16599   0.62415   0.25225   0.00000  Uiso   1.00
C245   C     0.31754   0.47137   0.22325   0.00000  Uiso   1.00
C246   C     0.01572   0.52861   0.27686   0.00000  Uiso   1.00
C247   C     0.03226   0.47089   0.22394   0.00000  Uiso   1.00
C248   C     0.30058   0.52828   0.27736   0.00000  Uiso   1.00
C249   C     0.13799   0.49933   0.33852   0.00000  Uiso   1.00
C250   C     0.19540   0.49886   0.16181   0.00000  Uiso   1.00
C251   C     0.12336   0.49219   0.38983   0.00000  Uiso   1.00
C252   C     0.16547   0.42014   0.25254   0.00000  Uiso   1.00
C253   C     0.20973   0.48931   0.11090   0.00000  Uiso   1.00
C254   C     0.06570   0.49627   0.46768   0.00000  Uiso   1.00
C255   C     0.25646   0.49957   0.02924   0.00000  Uiso   1.00
C256   C     0.07875   0.50483   0.41991   0.00000  Uiso   1.00
C257   C     0.24330   0.51307   0.07727   0.00000  Uiso   1.00
C258   C     0.15536   0.47433   0.41006   0.00000  Uiso   1.00
C259   C     0.18582   0.45677   0.09510   0.00000  Uiso   1.00
C260   C     0.13823   0.45785   0.45566   0.00000  Uiso   1.00
C261   C     0.19202   0.45114   0.04733   0.00000  Uiso   1.00
C262   C     0.09138   0.46739   0.48338   0.00000  Uiso   1.00
C263   C     0.10636   0.44535   0.05356   0.00000  Uiso   1.00
C264   C     0.23533   0.46395   0.01634   0.00000  Uiso   1.00
C265   C     0.16799   0.43904   0.47807   0.00000  Uiso   1.00
C266   C     0.15496   0.44207   0.02774   0.00000  Uiso   1.00
C267   C     0.02396   0.44846   0.05206   0.00000  Uiso   1.00
C268   C     0.29904   0.44121   0.44366   0.00000  Uiso   1.00
C269   C     0.16827   0.42194   0.12406   0.00000  Uiso   1.00
C270   C     0.20562   0.48145   0.38871   0.00000  Uiso   1.00
C271   C     0.22747   0.37794   0.29420   0.00000  Uiso   1.00
C272   C     0.11135   0.62362   0.20376   0.00000  Uiso   1.00
C273   C     0.30189   0.44175   0.19414   0.00000  Uiso   1.00
C274   C     0.21515   0.42739   0.45403   0.00000  Uiso   1.00
C275   C     0.03170   0.55935   0.30457   0.00000  Uiso   1.00
C276   C     0.07419   0.45389   0.02957   0.00000  Uiso   1.00
C277   C     0.24987   0.44516   0.47100   0.00000  Uiso   1.00
C278   C     0.19291   0.64579   0.27647   0.00000  Uiso   1.00
C279   C     0.12888   0.35352   0.24245   0.00000  Uiso   1.00
C280   C     0.19410   0.35551   0.27594   0.00000  Uiso   1.00
H281   H     0.24838   0.55642   0.12275   0.00000  Uiso   1.00
H282   H     0.28058   0.57251   0.32606   0.00000  Uiso   1.00
H283   H     0.03811   0.51153   0.38304   0.00000  Uiso   1.00
H284   H     0.03125   0.54735   0.48795   0.00000  Uiso   1.00
H285   H     0.28289   0.55278   0.00673   0.00000  Uiso   1.00
H286   H     0.06004   0.45625   0.11510   0.00000  Uiso   1.00
H287   H     0.19838   0.39260   0.40778   0.00000  Uiso   1.00
H288   H     0.22651   0.64208   0.32282   0.00000  Uiso   1.00
H289   H     0.06577   0.35392   0.23549   0.00000  Uiso   1.00
H290   H     0.04814   0.41861   0.18786   0.00000  Uiso   1.00
N291   N     0.04759   0.50001   0.25001   0.00000  Uiso   1.00
N292   N     0.04411   0.58430   0.32687   0.00000  Uiso   1.00
N293   N     0.28574   0.49999   0.24999   0.00000  Uiso   1.00
N294   N     0.31728   0.44352   0.07004   0.00000  Uiso   1.00
N295   N     0.00496   0.43715   0.42142   0.00000  Uiso   1.00
N296   N     0.15486   0.39340   0.14626   0.00000  Uiso   1.00
N297   N     0.24572   0.48730   0.37200   0.00000  Uiso   1.00
N298   N     0.25436   0.39574   0.30841   0.00000  Uiso   1.00
N299   N     0.09261   0.60692   0.17971   0.00000  Uiso   1.00
N300   N     0.28952   0.41773   0.17083   0.00000  Uiso   1.00
O301   O     0.12846   0.56108   0.25001   0.00000  Uiso   1.00
O302   O     0.04963   0.52928   0.40480   0.00000  Uiso   1.00
O303   O     0.03222   0.51977   0.00074   0.00000  Uiso   1.00
O304   O     0.28197   0.52425   0.49374   0.00000  Uiso   1.00
O305   O     0.09140   0.44301   0.10163   0.00000  Uiso   1.00
O306   O     0.22772   0.40380   0.41260   0.00000  Uiso   1.00
O307   O     0.21772   0.62390   0.29958   0.00000  Uiso   1.00
O308   O     0.09182   0.37362   0.23425   0.00000  Uiso   1.00
O309   O     0.06455   0.44170   0.19885   0.00000  Uiso   1.00
O310   O     0.26720   0.55547   0.30525   0.00000  Uiso   1.00
O311   O     0.20488   0.43892   0.25000   0.00000  Uiso   1.00
O312   O     0.20490   0.56107   0.25000   0.00000  Uiso   1.00
O313   O     0.12843   0.43893   0.25000   0.00000  Uiso   1.00
O314   O     0.10661   0.50001   0.31613   0.00000  Uiso   1.00
O315   O     0.22672   0.49999   0.18388   0.00000  Uiso   1.00
O316   O     0.18305   0.50000   0.31612   0.00000  Uiso   1.00
O317   O     0.15028   0.50000   0.18388   0.00000  Uiso   1.00
O318   O     0.26430   0.54825   0.08946   0.00000  Uiso   1.00
Zn319  Zn    0.11562   0.50001   0.25000   0.00000  Uiso   1.00
Zn320  Zn    0.21771   0.49999   0.25000   0.00000  Uiso   1.00
C321   C     0.50020   0.57987   0.25008   0.00000  Uiso   1.00
C322   C     0.46825   0.64467   0.23393   0.00000  Uiso   1.00
C323   C     0.49611   0.37591   0.25738   0.00000  Uiso   1.00
C324   C     0.49932   0.62415   0.25225   0.00000  Uiso   1.00
C325   C     0.65087   0.47137   0.22325   0.00000  Uiso   1.00
C326   C     0.34905   0.52861   0.27686   0.00000  Uiso   1.00
C327   C     0.36559   0.47089   0.22394   0.00000  Uiso   1.00
C328   C     0.63391   0.52828   0.27736   0.00000  Uiso   1.00
C329   C     0.47133   0.49933   0.33852   0.00000  Uiso   1.00
C330   C     0.52873   0.49886   0.16181   0.00000  Uiso   1.00
C331   C     0.45669   0.49219   0.38983   0.00000  Uiso   1.00
C332   C     0.49880   0.42014   0.25254   0.00000  Uiso   1.00
C333   C     0.54306   0.48931   0.11090   0.00000  Uiso   1.00
C334   C     0.39903   0.49627   0.46768   0.00000  Uiso   1.00
C335   C     0.58979   0.49957   0.02924   0.00000  Uiso   1.00
C336   C     0.41209   0.50483   0.41991   0.00000  Uiso   1.00
C337   C     0.57663   0.51307   0.07727   0.00000  Uiso   1.00
C338   C     0.48869   0.47433   0.41006   0.00000  Uiso   1.00
C339   C     0.51915   0.45677   0.09510   0.00000  Uiso   1.00
C340   C     0.47157   0.45785   0.45566   0.00000  Uiso   1.00
C341   C     0.52535   0.45114   0.04733   0.00000  Uiso   1.00
C342   C     0.42472   0.46739   0.48338   0.00000  Uiso   1.00
C343   C     0.43969   0.44535   0.05356   0.00000  Uiso   1.00
C344   C     0.56867   0.46395   0.01634   0.00000  Uiso   1.00
C345   C     0.50132   0.43904   0.47807   0.00000  Uiso   1.00
C346   C     0.48829   0.44207   0.02774   0.00000  Uiso   1.00
C347   C     0.35729   0.44846   0.05206   0.00000  Uiso   1.00
C348   C     0.63238   0.44121   0.44366   0.00000  Uiso   1.00
C349   C     0.50160   0.42194   0.12406   0.00000  Uiso   1.00
C350   C     0.53896   0.48145   0.38871   0.00000  Uiso   1.00
C351   C     0.56080   0.37794   0.29420   0.00000  Uiso   1.00
C352   C     0.44469   0.62362   0.20376   0.00000  Uiso   1.00
C353   C     0.63522   0.44175   0.19414   0.00000  Uiso   1.00
C354   C     0.54849   0.42739   0.45403   0.00000  Uiso   1.00
C355   C     0.36503   0.55935   0.30457   0.00000  Uiso   1.00
C356   C     0.40752   0.45389   0.02957   0.00000  Uiso   1.00
C357   C     0.58321   0.44516   0.47100   0.00000  Uiso   1.00
C358   C     0.52624   0.64579   0.27647   0.00000  Uiso   1.00
C359   C     0.46222   0.35352   0.24245   0.00000  Uiso   1.00
C360   C     0.52743   0.35551   0.27594   0.00000  Uiso   1.00
H361   H     0.58171   0.55642   0.12275   0.00000  Uiso   1.00
H362   H     0.61391   0.57251   0.32606   0.00000  Uiso   1.00
H363   H     0.37145   0.51153   0.38304   0.00000  Uiso   1.00
H364   H     0.36458   0.54735   0.48795   0.00000  Uiso   1.00
H365   H     0.61623   0.55278   0.00673   0.00000  Uiso   1.00
H366   H     0.39337   0.45625   0.11510   0.00000  Uiso   1.00
H367   H     0.53172   0.39260   0.40778   0.00000  Uiso   1.00
H368   H     0.55984   0.64208   0.32282   0.00000  Uiso   1.00
H369   H     0.39910   0.35392   0.23549   0.00000  Uiso   1.00
H370   H     0.38147   0.41861   0.18786   0.00000  Uiso   1.00
N371   N     0.38093   0.50001   0.25001   0.00000  Uiso   1.00
N372   N     0.37745   0.58430   0.32687   0.00000  Uiso   1.00
N373   N     0.61907   0.49999   0.24999   0.00000  Uiso   1.00
N374   N     0.65062   0.44352   0.07004   0.00000  Uiso   1.00
N375   N     0.33829   0.43715   0.42142   0.00000  Uiso   1.00
N376   N     0.48820   0.39340   0.14626   0.00000  Uiso   1.00
N377   N     0.57905   0.48730   0.37200   0.00000  Uiso   1.00
N378   N     0.58769   0.39574   0.30841   0.00000  Uiso   1.00
N379   N     0.42594   0.60692   0.17971   0.00000  Uiso   1.00
N380   N     0.62285   0.41773   0.17083   0.00000  Uiso   1.00
O381   O     0.46179   0.56108   0.25001   0.00000  Uiso   1.00
O382   O     0.38296   0.52928   0.40480   0.00000  Uiso   1.00
O383   O     0.36555   0.51977   0.00074   0.00000  Uiso   1.00
O384   O     0.61530   0.52425   0.49374   0.00000  Uiso   1.00
O385   O     0.42473   0.44301   0.10163   0.00000  Uiso   1.00
O386   O     0.56106   0.40380   0.41260   0.00000  Uiso   1.00
O387   O     0.55106   0.62390   0.29958   0.00000  Uiso   1.00
O388   O     0.42515   0.37362   0.23425   0.00000  Uiso   1.00
O389   O     0.39788   0.44170   0.19885   0.00000  Uiso   1.00
O390   O     0.60053   0.55547   0.30525   0.00000  Uiso   1.00
O391   O     0.53821   0.43892   0.25000   0.00000  Uiso   1.00
O392   O     0.53823   0.56107   0.25000   0.00000  Uiso   1.00
O393   O     0.46177   0.43893   0.25000   0.00000  Uiso   1.00
O394   O     0.43994   0.50001   0.31613   0.00000  Uiso   1.00
O395   O     0.56006   0.49999   0.18388   0.00000  Uiso   1.00
O396   O     0.51639   0.50000   0.31612   0.00000  Uiso   1.00
O397   O     0.48361   0.50000   0.18388   0.00000  Uiso   1.00
O398   O     0.59764   0.54825   0.08946   0.00000  Uiso   1.00
Zn399  Zn    0.44896   0.50001   0.25000   0.00000  Uiso   1.00
Zn400  Zn    0.55104   0.49999   0.25000   0.00000  Uiso   1.00
C401   C     0.83353   0.57987   0.25008   0.00000  Uiso   1.00
C402   C     0.80158   0.64467   0.23393   0.00000  Uiso   1.00
C403   C     0.82945   0.37591   0.25738   0.00000  Uiso   1.00
C404   C     0.83265   0.62415   0.25225   0.00000  Uiso   1.00
C405   C     0.98421   0.47137   0.22325   0.00000  Uiso   1.00
C406   C     0.68238   0.52861   0.27686   0.00000  Uiso   1.00
C407   C     0.69893   0.47089   0.22394   0.00000  Uiso   1.00
C408   C     0.96724   0.52828   0.27736   0.00000  Uiso   1.00
C409   C     0.80466   0.49933   0.33852   0.00000  Uiso   1.00
C410   C     0.86206   0.49886   0.16181   0.00000  Uiso   1.00
C411   C     0.79003   0.49219   0.38983   0.00000  Uiso   1.00
C412   C     0.83214   0.42014   0.25254   0.00000  Uiso   1.00
C413   C     0.87640   0.48931   0.11090   0.00000  Uiso   1.00
C414   C     0.73236   0.49627   0.46768   0.00000  Uiso   1.00
C415   C     0.92312   0.49957   0.02924   0.00000  Uiso   1.00
C416   C     0.74542   0.50483   0.41991   0.00000  Uiso   1.00
C417   C     0.90997   0.51307   0.07727   0.00000  Uiso   1.00
C418   C     0.82203   0.47433   0.41006   0.00000  Uiso   1.00
C419   C     0.85248   0.45677   0.09510   0.00000  Uiso   1.00
C420   C     0.80490   0.45785   0.45566   0.00000  Uiso   1.00
C421   C     0.85868   0.45114   0.04733   0.00000  Uiso   1.00
C422   C     0.75805   0.46739   0.48338   0.00000  Uiso   1.00
C423   C     0.77302   0.44535   0.05356   0.00000  Uiso   1.00
C424   C     0.90200   0.46395   0.01634   0.00000  Uiso   1.00
C425   C     0.83465   0.43904   0.47807   0.00000  Uiso   1.00
C426   C     0.82163   0.44207   0.02774   0.00000  Uiso   1.00
C427   C     0.69063   0.44846   0.05206   0.00000  Uiso   1.00
C428   C     0.96571   0.44121   0.44366   0.00000  Uiso   1.00
C429   C     0.83493   0.42194   0.12406   0.00000  Uiso   1.00
C430   C     0.87229   0.48145   0.38871   0.00000  Uiso   1.00
C431   C     0.89413   0.37794   0.29420   0.00000  Uiso   1.00
C432   C     0.77802   0.62362   0.20376   0.00000  Uiso   1.00
C433   C     0.96856   0.44175   0.19414   0.00000  Uiso   1.00
C434   C     0.88182   0.42739   0.45403   0.00000  Uiso   1.00
C435   C     0.69837   0.55935   0.30457   0.00000  Uiso   1.00
C436   C     0.74085   0.45389   0.02957   0.00000  Uiso   1.00
C437   C     0.91654   0.44516   0.47100   0.00000  Uiso   1.00
C438   C     0.85957   0.64579   0.27647   0.00000  Uiso   1.00
C439   C     0.79555   0.35352   0.24245   0.00000  Uiso   1.00
C440   C     0.86077   0.35551   0.27594   0.00000  Uiso   1.00
H441   H     0.91504   0.55642   0.12275   0.00000  Uiso   1.00
H442   H     0.94725   0.57251   0.32606   0.00000  Uiso   1.00
H443   H     0.70478   0.51153   0.38304   0.00000  Uiso   1.00
H444   H     0.69792   0.54735   0.48795   0.00000  Uiso   1.00
H445   H     0.94956   0.55278   0.00673   0.00000  Uiso   1.00
H446   H     0.72670   0.45625   0.11510   0.00000  Uiso   1.00
H447   H     0.86505   0.39260   0.40778   0.00000  Uiso   1.00
H448   H     0.89317   0.64208   0.32282   0.00000  Uiso   1.00
H449   H     0.73243   0.35392   0.23549   0.00000  Uiso   1.00
H450   H     0.71481   0.41861   0.18786   0.00000  Uiso   1.00
N451   N     0.71426   0.50001   0.25001   0.00000  Uiso   1.00
N452   N     0.71078   0.58430   0.32687   0.00000  Uiso   1.00
N453   N     0.95241   0.49999   0.24999   0.00000  Uiso   1.00
N454   N     0.98395   0.44352   0.07004   0.00000  Uiso   1.00
N455   N     0.67162   0.43715   0.42142   0.00000  Uiso   1.00
N456   N     0.82153   0.39340   0.14626   0.00000  Uiso   1.00
N457   N     0.91238   0.48730   0.37200   0.00000  Uiso   1.00
N458   N     0.92103   0.39574   0.30841   0.00000  Uiso   1.00
N459   N     0.75928   0.60692   0.17971   0.00000  Uiso   1.00
N460   N     0.95619   0.41773   0.17083   0.00000  Uiso   1.00
O461   O     0.79512   0.56108   0.25001   0.00000  Uiso   1.00
O462   O     0.71629   0.52928   0.40480   0.00000  Uiso   1.00
O463   O     0.69889   0.51977   0.00074   0.00000  Uiso   1.00
O464   O     0.94863   0.52425   0.49374   0.00000  Uiso   1.00
O465   O     0.75806   0.44301   0.10163   0.00000  Uiso   1.00
O466   O     0.89439   0.40380   0.41260   0.00000  Uiso   1.00
O467   O     0.88439   0.62390   0.29958   0.00000  Uiso   1.00
O468   O     0.75849   0.37362   0.23425   0.00000  Uiso   1.00
O469   O     0.73121   0.44170   0.19885   0.00000  Uiso   1.00
O470   O     0.93387   0.55547   0.30525   0.00000  Uiso   1.00
O471   O     0.87154   0.43892   0.25000   0.00000  Uiso   1.00
O472   O     0.87157   0.56107   0.25000   0.00000  Uiso   1.00
O473   O     0.79510   0.43893   0.25000   0.00000  Uiso   1.00
O474   O     0.77328   0.50001   0.31613   0.00000  Uiso   1.00
O475   O     0.89339   0.49999   0.18388   0.00000  Uiso   1.00
O476   O     0.84972   0.50000   0.31612   0.00000  Uiso   1.00
O477   O     0.81695   0.50000   0.18388   0.00000  Uiso   1.00
O478   O     0.93097   0.54825   0.08946   0.00000  Uiso   1.00
Zn479  Zn    0.78229   0.50001   0.25000   0.00000  Uiso   1.00
Zn480  Zn    0.88438   0.49999   0.25000   0.00000  Uiso   1.00
C481   C     0.16686   0.91321   0.25008   0.00000  Uiso   1.00
C482   C     0.13492   0.97800   0.23393   0.00000  Uiso   1.00
C483   C     0.16278   0.70924   0.25738   0.00000  Uiso   1.00
C484   C     0.16599   0.95748   0.25225   0.00000  Uiso   1.00
C485   C     0.31754   0.80470   0.22325   0.00000  Uiso   1.00
C486   C     0.01572   0.86195   0.27686   0.00000  Uiso   1.00
C487   C     0.03226   0.80422   0.22394   0.00000  Uiso   1.00
C488   C     0.30058   0.86161   0.27736   0.00000  Uiso   1.00
C489   C     0.13799   0.83266   0.33852   0.00000  Uiso   1.00
C490   C     0.19540   0.83219   0.16181   0.00000  Uiso   1.00
C491   C     0.12336   0.82553   0.38983   0.00000  Uiso   1.00
C492   C     0.16547   0.75347   0.25254   0.00000  Uiso   1.00
C493   C     0.20973   0.82264   0.11090   0.00000  Uiso   1.00
C494   C     0.06570   0.82960   0.46768   0.00000  Uiso   1.00
C495   C     0.25646   0.83291   0.02924   0.00000  Uiso   1.00
C496   C     0.07875   0.83817   0.41991   0.00000  Uiso   1.00
C497   C     0.24330   0.84640   0.07727   0.00000  Uiso   1.00
C498   C     0.15536   0.80767   0.41006   0.00000  Uiso   1.00
C499   C     0.18582   0.79010   0.09510   0.00000  Uiso   1.00
C500   C     0.13823   0.79118   0.45566   0.00000  Uiso   1.00
C501   C     0.19202   0.78447   0.04733   0.00000  Uiso   1.00
C502   C     0.09138   0.80073   0.48338   0.00000  Uiso   1.00
C503   C     0.10636   0.77868   0.05356   0.00000  Uiso   1.00
C504   C     0.23533   0.79728   0.01634   0.00000  Uiso   1.00
C505   C     0.16799   0.77238   0.47807   0.00000  Uiso   1.00
C506   C     0.15496   0.77540   0.02774   0.00000  Uiso   1.00
C507   C     0.02396   0.78179   0.05206   0.00000  Uiso   1.00
C508   C     0.29904   0.77454   0.44366   0.00000  Uiso   1.00
C509   C     0.16827   0.75528   0.12406   0.00000  Uiso   1.00
C510   C     0.20562   0.81479   0.38871   0.00000  Uiso   1.00
C511   C     0.22747   0.71127   0.29420   0.00000  Uiso   1.00
C512   C     0.11135   0.95696   0.20376   0.00000  Uiso   1.00
C513   C     0.30189   0.77508   0.19414   0.00000  Uiso   1.00
C514   C     0.21515   0.76072   0.45403   0.00000  Uiso   1.00
C515   C     0.03170   0.89269   0.30457   0.00000  Uiso   1.00
C516   C     0.07419   0.78723   0.02957   0.00000  Uiso   1.00
C517   C     0.24987   0.77849   0.47100   0.00000  Uiso   1.00
C518   C     0.19291   0.97913   0.27647   0.00000  Uiso   1.00
C519   C     0.12888   0.68686   0.24245   0.00000  Uiso   1.00
C520   C     0.19410   0.68885   0.27594   0.00000  Uiso   1.00
H521   H     0.24838   0.88975   0.12275   0.00000  Uiso   1.00
H522   H     0.28058   0.90584   0.32606   0.00000  Uiso   1.00
H523   H     0.03811   0.84487   0.38304   0.00000  Uiso   1.00
H524   H     0.03125   0.88069   0.48795   0.00000  Uiso   1.00
H525   H     0.28289   0.88612   0.00673   0.00000  Uiso   1.00
H526   H     0.06004   0.78959   0.11510   0.00000  Uiso   1.00
H527   H     0.19838   0.72593   0.40778   0.00000  Uiso   1.00
H528   H     0.22651   0.97541   0.32282   0.00000  Uiso   1.00
H529   H     0.06577   0.68725   0.23549   0.00000  Uiso   1.00
H530   H     0.04814   0.75195   0.18786   0.00000  Uiso   1.00
N531   N     0.04759   0.83334   0.25001   0.00000  Uiso   1.00
N532   N     0.04411   0.91763   0.32687   0.00000  Uiso   1.00
N533   N     0.28574   0.83332   0.24999   0.00000  Uiso   1.00
N534   N     0.31728   0.77685   0.07004   0.00000  Uiso   1.00
N535   N     0.00496   0.77048   0.42142   0.00000  Uiso   1.00
N536   N     0.15486   0.72673   0.14626   0.00000  Uiso   1.00
N537   N     0.24572   0.82063   0.37200   0.00000  Uiso   1.00
N538   N     0.25436   0.72907   0.30841   0.00000  Uiso   1.00
N539   N     0.09261   0.94025   0.17971   0.00000  Uiso   1.00
N540   N     0.28952   0.75106   0.17083   0.00000  Uiso   1.00
O541   O     0.12846   0.89442   0.25001   0.00000  Uiso   1.00
O542   O     0.04963   0.86261   0.40480   0.00000  Uiso   1.00
O543   O     0.03222   0.85311   0.00074   0.00000  Uiso   1.00
O544   O     0.28197   0.85758   0.49374   0.00000  Uiso   1.00
O545   O     0.09140   0.77635   0.10163   0.00000  Uiso   1.00
O546   O     0.22772   0.73713   0.41260   0.00000  Uiso   1.00
O547   O     0.21772   0.95724   0.29958   0.00000  Uiso   1.00
O548   O     0.09182   0.70696   0.23425   0.00000  Uiso   1.00
O549   O     0.06455   0.77504   0.19885   0.00000  Uiso   1.00
O550   O     0.26720   0.88881   0.30525   0.00000  Uiso   1.00
O551   O     0.20488   0.77225   0.25000   0.00000  Uiso   1.00
O552   O     0.20490   0.89441   0.25000   0.00000  Uiso   1.00
O553   O     0.12843   0.77226   0.25000   0.00000  Uiso   1.00
O554   O     0.10661   0.83334   0.31613   0.00000  Uiso   1.00
O555   O     0.22672   0.83333   0.18388   0.00000  Uiso   1.00
O556   O     0.18305   0.83333   0.31612   0.00000  Uiso   1.00
O557   O     0.15028   0.83334   0.18388   0.00000  Uiso   1.00
O558   O     0.26430   0.88158   0.08946   0.00000  Uiso   1.00
Zn559  Zn    0.11562   0.83334   0.25000   0.00000  Uiso   1.00
Zn560  Zn    0.21771   0.83333   0.25000   0.00000  Uiso   1.00
C561   C     0.50020   0.91321   0.25008   0.00000  Uiso   1.00
C562   C     0.46825   0.97800   0.23393   0.00000  Uiso   1.00
C563   C     0.49611   0.70924   0.25738   0.00000  Uiso   1.00
C564   C     0.49932   0.95748   0.25225   0.00000  Uiso   1.00
C565   C     0.65087   0.80470   0.22325   0.00000  Uiso   1.00
C566   C     0.34905   0.86195   0.27686   0.00000  Uiso   1.00
C567   C     0.36559   0.80422   0.22394   0.00000  Uiso   1.00
C568   C     0.63391   0.86161   0.27736   0.00000  Uiso   1.00
C569   C     0.47133   0.83266   0.33852   0.00000  Uiso   1.00
C570   C     0.52873   0.83219   0.16181   0.00000  Uiso   1.00
C571   C     0.45669   0.82553   0.38983   0.00000  Uiso   1.00
C572   C     0.49880   0.75347   0.25254   0.00000  Uiso   1.00
C573   C     0.54306   0.82264   0.11090   0.00000  Uiso   1.00
C574   C     0.39903   0.82960   0.46768   0.00000  Uiso   1.00
C575   C     0.58979   0.83291   0.02924   0.00000  Uiso   1.00
C576   C     0.41209   0.83817   0.41991   0.00000  Uiso   1.00
C577   C     0.57663   0.84640   0.07727   0.00000  Uiso   1.00
C578   C     0.48869   0.80767   0.41006   0.00000  Uiso   1.00
C579   C     0.51915   0.79010   0.09510   0.00000  Uiso   1.00
C580   C     0.47157   0.79118   0.45566   0.00000  Uiso   1.00
C581   C     0.52535   0.78447   0.04733   0.00000  Uiso   1.00
C582   C     0.42472   0.80073   0.48338   0.00000  Uiso   1.00
C583   C     0.43969   0.77868   0.05356   0.00000  Uiso   1.00
C584   C     0.56867   0.79728   0.01634   0.00000  Uiso   1.00
C585   C     0.50132   0.77238   0.47807   0.00000  Uiso   1.00
C586   C     0.48829   0.77540   0.02774   0.00000  Uiso   1.00
C587   C     0.35729   0.78179   0.05206   0.00000  Uiso   1.00
C588   C     0.63238   0.77454   0.44366   0.00000  Uiso   1.00
C589   C     0.50160   0.75528   0.12406   0.00000  Uiso   1.00
C590   C     0.53896   0.81479   0.38871   0.00000  Uiso   1.00
C591   C     0.56080   0.71127   0.29420   0.00000  Uiso   1.00
C592   C     0.44469   0.95696   0.20376   0.00000  Uiso   1.00
C593   C     0.63522   0.77508   0.19414   0.00000  Uiso   1.00
C594   C     0.54849   0.76072   0.45403   0.00000  Uiso   1.00
C595   C     0.36503   0.89269   0.30457   0.00000  Uiso   1.00
C596   C     0.40752   0.78723   0.02957   0.00000  Uiso   1.00
C597   C     0.58321   0.77849   0.47100   0.00000  Uiso   1.00
C598   C     0.52624   0.97913   0.27647   0.00000  Uiso   1.00
C599   C     0.46222   0.68686   0.24245   0.00000  Uiso   1.00
C600   C     0.52743   0.68885   0.27594   0.00000  Uiso   1.00
H601   H     0.58171   0.88975   0.12275   0.00000  Uiso   1.00
H602   H     0.61391   0.90584   0.32606   0.00000  Uiso   1.00
H603   H     0.37145   0.84487   0.38304   0.00000  Uiso   1.00
H604   H     0.36458   0.88069   0.48795   0.00000  Uiso   1.00
H605   H     0.61623   0.88612   0.00673   0.00000  Uiso   1.00
H606   H     0.39337   0.78959   0.11510   0.00000  Uiso   1.00
H607   H     0.53172   0.72593   0.40778   0.00000  Uiso   1.00
H608   H     0.55984   0.97541   0.32282   0.00000  Uiso   1.00
H609   H     0.39910   0.68725   0.23549   0.00000  Uiso   1.00
H610   H     0.38147   0.75195   0.18786   0.00000  Uiso   1.00
N611   N     0.38093   0.83334   0.25001   0.00000  Uiso   1.00
N612   N     0.37745   0.91763   0.32687   0.00000  Uiso   1.00
N613   N     0.61907   0.83332   0.24999   0.00000  Uiso   1.00
N614   N     0.65062   0.77685   0.07004   0.00000  Uiso   1.00
N615   N     0.33829   0.77048   0.42142   0.00000  Uiso   1.00
N616   N     0.48820   0.72673   0.14626   0.00000  Uiso   1.00
N617   N     0.57905   0.82063   0.37200   0.00000  Uiso   1.00
N618   N     0.58769   0.72907   0.30841   0.00000  Uiso   1.00
N619   N     0.42594   0.94025   0.17971   0.00000  Uiso   1.00
N620   N     0.62285   0.75106   0.17083   0.00000  Uiso   1.00
O621   O     0.46179   0.89442   0.25001   0.00000  Uiso   1.00
O622   O     0.38296   0.86261   0.40480   0.00000  Uiso   1.00
O623   O     0.36555   0.85311   0.00074   0.00000  Uiso   1.00
O624   O     0.61530   0.85758   0.49374   0.00000  Uiso   1.00
O625   O     0.42473   0.77635   0.10163   0.00000  Uiso   1.00
O626   O     0.56106   0.73713   0.41260   0.00000  Uiso   1.00
O627   O     0.55106   0.95724   0.29958   0.00000  Uiso   1.00
O628   O     0.42515   0.70696   0.23425   0.00000  Uiso   1.00
O629   O     0.39788   0.77504   0.19885   0.00000  Uiso   1.00
O630   O     0.60053   0.88881   0.30525   0.00000  Uiso   1.00
O631   O     0.53821   0.77225   0.25000   0.00000  Uiso   1.00
O632   O     0.53823   0.89441   0.25000   0.00000  Uiso   1.00
O633   O     0.46177   0.77226   0.25000   0.00000  Uiso   1.00
O634   O     0.43994   0.83334   0.31613   0.00000  Uiso   1.00
O635   O     0.56006   0.83333   0.18388   0.00000  Uiso   1.00
O636   O     0.51639   0.83333   0.31612   0.00000  Uiso   1.00
O637   O     0.48361   0.83334   0.18388   0.00000  Uiso   1.00
O638   O     0.59764   0.88158   0.08946   0.00000  Uiso   1.00
Zn639  Zn    0.44896   0.83334   0.25000   0.00000  Uiso   1.00
Zn640  Zn    0.55104   0.83333   0.25000   0.00000  Uiso   1.00
C641   C     0.83353   0.91321   0.25008   0.00000  Uiso   1.00
C642   C     0.80158   0.97800   0.23393   0.00000  Uiso   1.00
C643   C     0.82945   0.70924   0.25738   0.00000  Uiso   1.00
C644   C     0.83265   0.95748   0.25225   0.00000  Uiso   1.00
C645   C     0.98421   0.80470   0.22325   0.00000  Uiso   1.00
C646   C     0.68238   0.86195   0.27686   0.00000  Uiso   1.00
C647   C     0.69893   0.80422   0.22394   0.00000  Uiso   1.00
C648   C     0.96724   0.86161   0.27736   0.00000  Uiso   1.00
C649   C     0.80466   0.83266   0.33852   0.00000  Uiso   1.00
C650   C     0.86206   0.83219   0.16181   0.00000  Uiso   1.00
C651   C     0.79003   0.82553   0.38983   0.00000  Uiso   1.00
C652   C     0.83214   0.75347   0.25254   0.00000  Uiso   1.00
C653   C     0.87640   0.82264   0.11090   0.00000  Uiso   1.00
C654   C     0.73236   0.82960   0.46768   0.00000  Uiso   1.00
C655   C     0.92312   0.83291   0.02924   0.00000  Uiso   1.00
C656   C     0.74542   0.83817   0.41991   0.00000  Uiso   1.00
C657   C     0.90997   0.84640   0.07727   0.00000  Uiso   1.00
C658   C     0.82203   0.80767   0.41006   0.00000  Uiso   1.00
C659   C     0.85248   0.79010   0.09510   0.00000  Uiso   1.00
C660   C     0.80490   0.79118   0.45566   0.00000  Uiso   1.00
C661   C     0.85868   0.78447   0.04733   0.00000  Uiso   1.00
C662   C     0.75805   0.80073   0.48338   0.00000  Uiso   1.00
C663   C     0.77302   0.77868   0.05356   0.00000  Uiso   1.00
C664   C     0.90200   0.79728   0.01634   0.00000  Uiso   1.00
C665   C     0.83465   0.77238   0.47807   0.00000  Uiso   1.00
C666   C     0.82163   0.77540   0.02774   0.00000  Uiso   1.00
C667   C     0.69063   0.78179   0.05206   0.00000  Uiso   1.00
C668   C     0.96571   0.77454   0.44366   0.00000  Uiso   1.00
C669   C     0.83493   0.75528   0.12406   0.00000  Uiso   1.00
C670   C     0.87229   0.81479   0.38871   0.00000  Uiso   1.00
C671   C     0.89413   0.71127   0.29420   0.00000  Uiso   1.00
C672   C     0.77802   0.95696   0.20376   0.00000  Uiso   1.00
C673   C     0.96856   0.77508   0.19414   0.00000  Uiso   1.00
C674   C     0.88182   0.76072   0.45403   0.00000  Uiso   1.00
C675   C     0.69837   0.89269   0.30457   0.00000  Uiso   1.00
C676   C     0.74085   0.78723   0.02957   0.00000  Uiso   1.00
C677   C     0.91654   0.77849   0.47100   0.00000  Uiso   1.00
C678   C     0.85957   0.97913   0.27647   0.00000  Uiso   1.00
C679   C     0.79555   0.68686   0.24245   0.00000  Uiso   1.00
C680   C     0.86077   0.68885   0.27594   0.00000  Uiso   1.00
H681   H     0.91504   0.88975   0.12275   0.00000  Uiso   1.00
H682   H     0.94725   0.90584   0.32606   0.00000  Uiso   1.00
H683   H     0.70478   0.84487   0.38304   0.00000  Uiso   1.00
H684   H     0.69792   0.88069   0.48795   0.00000  Uiso   1.00
H685   H     0.94956   0.88612   0.00673   0.00000  Uiso   1.00
H686   H     0.72670   0.78959   0.11510   0.00000  Uiso   1.00
H687   H     0.86505   0.72593   0.40778   0.00000  Uiso   1.00
H688   H     0.89317   0.97541   0.32282   0.00000  Uiso   1.00
H689   H     0.73243   0.68725   0.23549   0.00000  Uiso   1.00
H690   H     0.71481   0.75195   0.18786   0.00000  Uiso   1.00
N691   N     0.71426   0.83334   0.25001   0.00000  Uiso   1.00
N692   N     0.71078   0.91763   0.32687   0.00000  Uiso   1.00
N693   N     0.95241   0.83332   0.24999   0.00000  Uiso   1.00
N694   N     0.98395   0.77685   0.07004   0.00000  Uiso   1.00
N695   N     0.67162   0.77048   0.42142   0.00000  Uiso   1.00
N696   N     0.82153   0.72673   0.14626   0.00000  Uiso   1.00
N697   N     0.91238   0.82063   0.37200   0.00000  Uiso   1.00
N698   N     0.92103   0.72907   0.30841   0.00000  Uiso   1.00
N699   N     0.75928   0.94025   0.17971   0.00000  Uiso   1.00
N700   N     0.95619   0.75106   0.17083   0.00000  Uiso   1.00
O701   O     0.79512   0.89442   0.25001   0.00000  Uiso   1.00
O702   O     0.71629   0.86261   0.40480   0.00000  Uiso   1.00
O703   O     0.69889   0.85311   0.00074   0.00000  Uiso   1.00
O704   O     0.94863   0.85758   0.49374   0.00000  Uiso   1.00
O705   O     0.75806   0.77635   0.10163   0.00000  Uiso   1.00
O706   O     0.89439   0.73713   0.41260   0.00000  Uiso   1.00
O707   O     0.88439   0.95724   0.29958   0.00000  Uiso   1.00
O708   O     0.75849   0.70696   0.23425   0.00000  Uiso   1.00
O709   O     0.73121   0.77504   0.19885   0.00000  Uiso   1.00
O710   O     0.93387   0.88881   0.30525   0.00000  Uiso   1.00
O711   O     0.87154   0.77225   0.25000   0.00000  Uiso   1.00
O712   O     0.87157   0.89441   0.25000   0.00000  Uiso   1.00
O713   O     0.79510   0.77226   0.25000   0.00000  Uiso   1.00
O714   O     0.77328   0.83334   0.31613   0.00000  Uiso   1.00
O715   O     0.89339   0.83333   0.18388   0.00000  Uiso   1.00
O716   O     0.84972   0.83333   0.31612   0.00000  Uiso   1.00
O717   O     0.81695   0.83334   0.18388   0.00000  Uiso   1.00
O718   O     0.93097   0.88158   0.08946   0.00000  Uiso   1.00
Zn719  Zn    0.78229   0.83334   0.25000   0.00000  Uiso   1.00
Zn720  Zn    0.88438   0.83333   0.25000   0.00000  Uiso   1.00
C721   C     0.16686   0.24654   0.75008   0.00000  Uiso   1.00
C722   C     0.13492   0.31134   0.73393   0.00000  Uiso   1.00
C723   C     0.16278   0.04258   0.75738   0.00000  Uiso   1.00
C724   C     0.16599   0.29082   0.75225   0.00000  Uiso   1.00
C725   C     0.31754   0.13804   0.72325   0.00000  Uiso   1.00
C726   C     0.01572   0.19528   0.77686   0.00000  Uiso   1.00
C727   C     0.03226   0.13755   0.72394   0.00000  Uiso   1.00
C728   C     0.30058   0.19494   0.77736   0.00000  Uiso   1.00
C729   C     0.13799   0.16600   0.83852   0.00000  Uiso   1.00
C730   C     0.19540   0.16553   0.66181   0.00000  Uiso   1.00
C731   C     0.12336   0.15886   0.88983   0.00000  Uiso   1.00
C732   C     0.16547   0.08681   0.75254   0.00000  Uiso   1.00
C733   C     0.20973   0.15597   0.61090   0.00000  Uiso   1.00
C734   C     0.06570   0.16293   0.96768   0.00000  Uiso   1.00
C735   C     0.25646   0.16624   0.52924   0.00000  Uiso   1.00
C736   C     0.07875   0.17150   0.91991   0.00000  Uiso   1.00
C737   C     0.24330   0.17974   0.57727   0.00000  Uiso   1.00
C738   C     0.15536   0.14100   0.91006   0.00000  Uiso   1.00
C739   C     0.18582   0.12344   0.59510   0.00000  Uiso   1.00
C740   C     0.13823   0.12451   0.95566   0.00000  Uiso   1.00
C741   C     0.19202   0.11781   0.54733   0.00000  Uiso   1.00
C742   C     0.09138   0.13406   0.98338   0.00000  Uiso   1.00
C743   C     0.10636   0.11202   0.55356   0.00000  Uiso   1.00
C744   C     0.23533   0.13061   0.51634   0.00000  Uiso   1.00
C745   C     0.16799   0.10571   0.97807   0.00000  Uiso   1.00
C746   C     0.15496   0.10874   0.52774   0.00000  Uiso   1.00
C747   C     0.02396   0.11513   0.55206   0.00000  Uiso   1.00
C748   C     0.29904   0.10787   0.94366   0.00000  Uiso   1.00
C749   C     0.16827   0.08861   0.62406   0.00000  Uiso   1.00
C750   C     0.20562   0.14812   0.88871   0.00000  Uiso   1.00
C751   C     0.22747   0.04461   0.79420   0.00000  Uiso   1.00
C752   C     0.11135   0.29029   0.70376   0.00000  Uiso   1.00
C753   C     0.30189   0.10842   0.69414   0.00000  Uiso   1.00
C754   C     0.21515   0.09406   0.95403   0.00000  Uiso   1.00
C755   C     0.03170   0.22602   0.80457   0.00000  Uiso   1.00
C756   C     0.07419   0.12056   0.52957   0.00000  Uiso   1.00
C757   C     0.24987   0.11183   0.97100   0.00000  Uiso   1.00
C758   C     0.19291   0.31246   0.77647   0.00000  Uiso   1.00
C759   C     0.12888   0.02019   0.74245   0.00000  Uiso   1.00
C760   C     0.19410   0.02218   0.77594   0.00000  Uiso   1.00
H761   H     0.24838   0.22308   0.62275   0.00000  Uiso   1.00
H762   H     0.28058   0.23918   0.82606   0.00000  Uiso   1.00
H763   H     0.03811   0.17820   0.88304   0.00000  Uiso   1.00
H764   H     0.03125   0.21402   0.98795   0.00000  Uiso   1.00
H765   H     0.28289   0.21945   0.50673   0.00000  Uiso   1.00
H766   H     0.06004   0.12292   0.61510   0.00000  Uiso   1.00
H767   H     0.19838   0.05926   0.90778   0.00000  Uiso   1.00
H768   H     0.22651   0.30875   0.82282   0.00000  Uiso   1.00
H769   H     0.06577   0.02058   0.73549   0.00000  Uiso   1.00
H770   H     0.04814   0.08528   0.68786   0.00000  Uiso   1.00
N771   N     0.04759   0.16668   0.75001   0.00000  Uiso   1.00
N772   N     0.04411   0.25097   0.82687   0.00000  Uiso   1.00
N773   N     0.28574   0.16666   0.74999   0.00000  Uiso   1.00
N774   N     0.31728   0.11019   0.57004   0.00000  Uiso   1.00
N775   N     0.00496   0.10382   0.92142   0.00000  Uiso   1.00
N776   N     0.15486   0.06007   0.64626   0.00000  Uiso   1.00
N777   N     0.24572   0.15396   0.87200   0.00000  Uiso   1.00
N778   N     0.25436   0.06241   0.80841   0.00000  Uiso   1.00
N779   N     0.09261   0.27358   0.67971   0.00000  Uiso   1.00
N780   N     0.28952   0.08440   0.67083   0.00000  Uiso   1.00
O781   O     0.12846   0.22775   0.75001   0.00000  Uiso   1.00
O782   O     0.04963   0.19595   0.90480   0.00000  Uiso   1.00
O783   O     0.03222   0.18644   0.50074   0.00000  Uiso   1.00
O784   O     0.28197   0.19091   0.99374   0.00000  Uiso   1.00
O785   O     0.09140   0.10968   0.60163   0.00000  Uiso   1.00
O786   O     0.22772   0.07047   0.91260   0.00000  Uiso   1.00
O787   O     0.21772   0.29057   0.79958   0.00000  Uiso   1.00
O788   O     0.09182   0.04029   0.73425   0.00000  Uiso   1.00
O789   O     0.06455   0.10837   0.69885   0.00000  Uiso   1.00
O790   O     0.26720   0.22214   0.80525   0.00000  Uiso   1.00
O791   O     0.20488   0.10558   0.75000   0.00000  Uiso   1.00
O792   O     0.20490   0.22774   0.75000   0.00000  Uiso   1.00
O793   O     0.12843   0.10559   0.75000   0.00000  Uiso   1.00
O794   O     0.10661   0.16667   0.81613   0.00000  Uiso   1.00
O795   O     0.22672   0.16666   0.68388   0.00000  Uiso   1.00
O796   O     0.18305   0.16666   0.81612   0.00000  Uiso   1.00
O797   O     0.15028   0.16667   0.68388   0.00000  Uiso   1.00
O798   O     0.26430   0.21492   0.58946   0.00000  Uiso   1.00
Zn799  Zn    0.11562   0.16667   0.75000   0.00000  Uiso   1.00
Zn800  Zn    0.21771   0.16666   0.75000   0.00000  Uiso   1.00
C801   C     0.50020   0.24654   0.75008   0.00000  Uiso   1.00
C802   C     0.46825   0.31134   0.73393   0.00000  Uiso   1.00
C803   C     0.49611   0.04258   0.75738   0.00000  Uiso   1.00
C804   C     0.49932   0.29082   0.75225   0.00000  Uiso   1.00
C805   C     0.65087   0.13804   0.72325   0.00000  Uiso   1.00
C806   C     0.34905   0.19528   0.77686   0.00000  Uiso   1.00
C807   C     0.36559   0.13755   0.72394   0.00000  Uiso   1.00
C808   C     0.63391   0.19494   0.77736   0.00000  Uiso   1.00
C809   C     0.47133   0.16600   0.83852   0.00000  Uiso   1.00
C810   C     0.52873   0.16553   0.66181   0.00000  Uiso   1.00
C811   C     0.45669   0.15886   0.88983   0.00000  Uiso   1.00
C812   C     0.49880   0.08681   0.75254   0.00000  Uiso   1.00
C813   C     0.54306   0.15597   0.61090   0.00000  Uiso   1.00
C814   C     0.39903   0.16293   0.96768   0.00000  Uiso   1.00
C815   C     0.58979   0.16624   0.52924   0.00000  Uiso   1.00
C816   C     0.41209   0.17150   0.91991   0.00000  Uiso   1.00
C817   C     0.57663   0.17974   0.57727   0.00000  Uiso   1.00
C818   C     0.48869   0.14100   0.91006   0.00000  Uiso   1.00
C819   C     0.51915   0.12344   0.59510   0.00000  Uiso   1.00
C820   C     0.47157   0.12451   0.95566   0.00000  Uiso   1.00
C821   C     0.52535   0.11781   0.54733   0.00000  Uiso   1.00
C822   C     0.42472   0.13406   0.98338   0.00000  Uiso   1.00
C823   C     0.43969   0.11202   0.55356   0.00000  Uiso   1.00
C824   C     0.56867   0.13061   0.51634   0.00000  Uiso   1.00
C825   C     0.50132   0.10571   0.97807   0.00000  Uiso   1.00
C826   C     0.48829   0.10874   0.52774   0.00000  Uiso   1.00
C827   C     0.35729   0.11513   0.55206   0.00000  Uiso   1.00
C828   C     0.63238   0.10787   0.94366   0.00000  Uiso   1.00
C829   C     0.50160   0.08861   0.62406   0.00000  Uiso   1.00
C830   C     0.53896   0.14812   0.88871   0.00000  Uiso   1.00
C831   C     0.56080   0.04461   0.79420   0.00000  Uiso   1.00
C832   C     0.44469   0.29029   0.70376   0.00000  Uiso   1.00
C833   C     0.63522   0.10842   0.69414   0.00000  Uiso   1.00
C834   C     0.54849   0.09406   0.95403   0.00000  Uiso   1.00
C835   C     0.36503   0.22602   0.80457   0.00000  Uiso   1.00
C836   C     0.40752   0.12056   0.52957   0.00000  Uiso   1.00
C837   C     0.58321   0.11183   0.97100   0.00000  Uiso   1.00
C838   C     0.52624   0.31246   0.77647   0.00000  Uiso   1.00
C839   C     0.46222   0.02019   0.74245   0.00000  Uiso   1.00
C840   C     0.52743   0.02218   0.77594   0.00000  Uiso   1.00
H841   H     0.58171   0.22308   0.62275   0.00000  Uiso   1.00
H842   H     0.61391   0.23918   0.82606   0.00000  Uiso   1.00
H843   H     0.37145   0.17820   0.88304   0.00000  Uiso   1.00
H844   H     0.36458   0.21402   0.98795   0.00000  Uiso   1.00
H845   H     0.61623   0.21945   0.50673   0.00000  Uiso   1.00
H846   H     0.39337   0.12292   0.61510   0.00000  Uiso   1.00
H847   H     0.53172   0.05926   0.90778   0.00000  Uiso   1.00
H848   H     0.55984   0.30875   0.82282   0.00000  Uiso   1.00
H849   H     0.39910   0.02058   0.73549   0.00000  Uiso   1.00
H850   H     0.38147   0.08528   0.68786   0.00000  Uiso   1.00
N851   N     0.38093   0.16668   0.75001   0.00000  Uiso   1.00
N852   N     0.37745   0.25097   0.82687   0.00000  Uiso   1.00
N853   N     0.61907   0.16666   0.74999   0.00000  Uiso   1.00
N854   N     0.65062   0.11019   0.57004   0.00000  Uiso   1.00
N855   N     0.33829   0.10382   0.92142   0.00000  Uiso   1.00
N856   N     0.48820   0.06007   0.64626   0.00000  Uiso   1.00
N857   N     0.57905   0.15396   0.87200   0.00000  Uiso   1.00
N858   N     0.58769   0.06241   0.80841   0.00000  Uiso   1.00
N859   N     0.42594   0.27358   0.67971   0.00000  Uiso   1.00
N860   N     0.62285   0.08440   0.67083   0.00000  Uiso   1.00
O861   O     0.46179   0.22775   0.75001   0.00000  Uiso   1.00
O862   O     0.38296   0.19595   0.90480   0.00000  Uiso   1.00
O863   O     0.36555   0.18644   0.50074   0.00000  Uiso   1.00
O864   O     0.61530   0.19091   0.99374   0.00000  Uiso   1.00
O865   O     0.42473   0.10968   0.60163   0.00000  Uiso   1.00
O866   O     0.56106   0.07047   0.91260   0.00000  Uiso   1.00
O867   O     0.55106   0.29057   0.79958   0.00000  Uiso   1.00
O868   O     0.42515   0.04029   0.73425   0.00000  Uiso   1.00
O869   O     0.39788   0.10837   0.69885   0.00000  Uiso   1.00
O870   O     0.60053   0.22214   0.80525   0.00000  Uiso   1.00
O871   O     0.53821   0.10558   0.75000   0.00000  Uiso   1.00
O872   O     0.53823   0.22774   0.75000   0.00000  Uiso   1.00
O873   O     0.46177   0.10559   0.75000   0.00000  Uiso   1.00
O874   O     0.43994   0.16667   0.81613   0.00000  Uiso   1.00
O875   O     0.56006   0.16666   0.68388   0.00000  Uiso   1.00
O876   O     0.51639   0.16666   0.81612   0.00000  Uiso   1.00
O877   O     0.48361   0.16667   0.68388   0.00000  Uiso   1.00
O878   O     0.59764   0.21492   0.58946   0.00000  Uiso   1.00
Zn879  Zn    0.44896   0.16667   0.75000   0.00000  Uiso   1.00
Zn880  Zn    0.55104   0.16666   0.75000   0.00000  Uiso   1.00
C881   C     0.83353   0.24654   0.75008   0.00000  Uiso   1.00
C882   C     0.80158   0.31134   0.73393   0.00000  Uiso   1.00
C883   C     0.82945   0.04258   0.75738   0.00000  Uiso   1.00
C884   C     0.83265   0.29082   0.75225   0.00000  Uiso   1.00
C885   C     0.98421   0.13804   0.72325   0.00000  Uiso   1.00
C886   C     0.68238   0.19528   0.77686   0.00000  Uiso   1.00
C887   C     0.69893   0.13755   0.72394   0.00000  Uiso   1.00
C888   C     0.96724   0.19494   0.77736   0.00000  Uiso   1.00
C889   C     0.80466   0.16600   0.83852   0.00000  Uiso   1.00
C890   C     0.86206   0.16553   0.66181   0.00000  Uiso   1.00
C891   C     0.79003   0.15886   0.88983   0.00000  Uiso   1.00
C892   C     0.83214   0.08681   0.75254   0.00000  Uiso   1.00
C893   C     0.87640   0.15597   0.61090   0.00000  Uiso   1.00
C894   C     0.73236   0.16293   0.96768   0.00000  Uiso   1.00
C895   C     0.92312   0.16624   0.52924   0.00000  Uiso   1.00
C896   C     0.74542   0.17150   0.91991   0.00000  Uiso   1.00
C897   C     0.90997   0.17974   0.57727   0.00000  Uiso   1.00
C898   C     0.82203   0.14100   0.91006   0.00000  Uiso   1.00
C899   C     0.85248   0.12344   0.59510   0.00000  Uiso   1.00
C900   C     0.80490   0.12451   0.95566   0.00000  Uiso   1.00
C901   C     0.85868   0.11781   0.54733   0.00000  Uiso   1.00
C902   C     0.75805   0.13406   0.98338   0.00000  Uiso   1.00
C903   C     0.77302   0.11202   0.55356   0.00000  Uiso   1.00
C904   C     0.90200   0.13061   0.51634   0.00000  Uiso   1.00
C905   C     0.83465   0.10571   0.97807   0.00000  Uiso   1.00
C906   C     0.82163   0.10874   0.52774   0.00000  Uiso   1.00
C907   C     0.69063   0.11513   0.55206   0.00000  Uiso   1.00
C908   C     0.96571   0.10787   0.94366   0.00000  Uiso   1.00
C909   C     0.83493   0.08861   0.62406   0.00000  Uiso   1.00
C910   C     0.87229   0.14812   0.88871   0.00000  Uiso   1.00
C911   C     0.89413   0.04461   0.79420   0.00000  Uiso   1.00
C912   C     0.77802   0.29029   0.70376   0.00000  Uiso   1.00
C913   C     0.96856   0.10842   0.69414   0.00000  Uiso   1.00
C914   C     0.88182   0.09406   0.95403   0.00000  Uiso   1.00
C915   C     0.69837   0.22602   0.80457   0.00000  Uiso   1.00
C916   C     0.74085   0.12056   0.52957   0.00000  Uiso   1.00
C917   C     0.91654   0.11183   0.97100   0.00000  Uiso   1.00
C918   C     0.85957   0.31246   0.77647   0.00000  Uiso   1.00
C919   C     0.79555   0.02019   0.74245   0.00000  Uiso   1.00
C920   C     0.86077   0.02218   0.77594   0.00000  Uiso   1.00
H921   H     0.91504   0.22308   0.62275   0.00000  Uiso   1.00
H922   H     0.94725   0.23918   0.82606   0.00000  Uiso   1.00
H923   H     0.70478   0.17820   0.88304   0.00000  Uiso   1.00
H924   H     0.69792   0.21402   0.98795   0.00000  Uiso   1.00
H925   H     0.94956   0.21945   0.50673   0.00000  Uiso   1.00
H926   H     0.72670   0.12292   0.61510   0.00000  Uiso   1.00
H927   H     0.86505   0.05926   0.90778   0.00000  Uiso   1.00
H928   H     0.89317   0.30875   0.82282   0.00000  Uiso   1.00
H929   H     0.73243   0.02058   0.73549   0.00000  Uiso   1.00
H930   H     0.71481   0.08528   0.68786   0.00000  Uiso   1.00
N931   N     0.71426   0.16668   0.75001   0.00000  Uiso   1.00
N932   N     0.71078   0.25097   0.82687   0.00000  Uiso   1.00
N933   N     0.95241   0.16666   0.74999   0.00000  Uiso   1.00
N934   N     0.98395   0.11019   0.57004   0.00000  Uiso   1.00
N935   N     0.67162   0.10382   0.92142   0.00000  Uiso   1.00
N936   N     0.82153   0.06007   0.64626   0.00000  Uiso   1.00
N937   N     0.91238   0.15396   0.87200   0.00000  Uiso   1.00
N938   N     0.92103   0.06241   0.80841   0.00000  Uiso   1.00
N939   N     0.75928   0.27358   0.67971   0.00000  Uiso   1.00
N940   N     0.95619   0.08440   0.67083   0.00000  Uiso   1.00
O941   O     0.79512   0.22775   0.75001   0.00000  Uiso   1.00
O942   O     0.71629   0.19595   0.90480   0.00000  Uiso   1.00
O943   O     0.69889   0.18644   0.50074   0.00000  Uiso   1.00
O944   O     0.94863   0.19091   0.99374   0.00000  Uiso   1.00
O945   O     0.75806   0.10968   0.60163   0.00000  Uiso   1.00
O946   O     0.89439   0.07047   0.91260   0.00000  Uiso   1.00
O947   O     0.88439   0.29057   0.79958   0.00000  Uiso   1.00
O948   O     0.75849   0.04029   0.73425   0.00000  Uiso   1.00
O949   O     0.73121   0.10837   0.69885   0.00000  Uiso   1.00
O950   O     0.93387   0.22214   0.80525   0.00000  Uiso   1.00
O951   O     0.87154   0.10558   0.75000   0.00000  Uiso   1.00
O952   O     0.87157   0.22774   0.75000   0.00000  Uiso   1.00
O953   O     0.79510   0.10559   0.75000   0.00000  Uiso   1.00
O954   O     0.77328   0.16667   0.81613   0.00000  Uiso   1.00
O955   O     0.89339   0.16666   0.68388   0.00000  Uiso   1.00
O956   O     0.84972   0.16666   0.81612   0.00000  Uiso   1.00
O957   O     0.81695   0.16667   0.68388   0.00000  Uiso   1.00
O958   O     0.93097   0.21492   0.58946   0.00000  Uiso   1.00
Zn959  Zn    0.78229   0.16667   0.75000   0.00000  Uiso   1.00
Zn960  Zn    0.88438   0.16666   0.75000   0.00000  Uiso   1.00
C961   C     0.16686   0.57987   0.75008   0.00000  Uiso   1.00
C962   C     0.13492   0.64467   0.73393   0.00000  Uiso   1.00
C963   C     0.16278   0.37591   0.75738   0.00000  Uiso   1.00
C964   C     0.16599   0.62415   0.75225   0.00000  Uiso   1.00
C965   C     0.31754   0.47137   0.72325   0.00000  Uiso   1.00
C966   C     0.01572   0.52861   0.77686   0.00000  Uiso   1.00
C967   C     0.03226   0.47089   0.72394   0.00000  Uiso   1.00
C968   C     0.30058   0.52828   0.77736   0.00000  Uiso   1.00
C969   C     0.13799   0.49933   0.83852   0.00000  Uiso   1.00
C970   C     0.19540   0.49886   0.66181   0.00000  Uiso   1.00
C971   C     0.12336   0.49219   0.88983   0.00000  Uiso   1.00
C972   C     0.16547   0.42014   0.75254   0.00000  Uiso   1.00
C973   C     0.20973   0.48931   0.61090   0.00000  Uiso   1.00
C974   C     0.06570   0.49627   0.96768   0.00000  Uiso   1.00
C975   C     0.25646   0.49957   0.52924   0.00000  Uiso   1.00
C976   C     0.07875   0.50483   0.91991   0.00000  Uiso   1.00
C977   C     0.24330   0.51307   0.57727   0.00000  Uiso   1.00
C978   C     0.15536   0.47433   0.91006   0.00000  Uiso   1.00
C979   C     0.18582   0.45677   0.59510   0.00000  Uiso   1.00
C980   C     0.13823   0.45785   0.95566   0.00000  Uiso   1.00
C981   C     0.19202   0.45114   0.54733   0.00000  Uiso   1.00
C982   C     0.09138   0.46739   0.98338   0.00000  Uiso   1.00
C983   C     0.10636   0.44535   0.55356   0.00000  Uiso   1.00
C984   C     0.23533   0.46395   0.51634   0.00000  Uiso   1.00
C985   C     0.16799   0.43904   0.97807   0.00000  Uiso   1.00
C986   C     0.15496   0.44207   0.52774   0.00000  Uiso   1.00
C987   C     0.02396   0.44846   0.55206   0.00000  Uiso   1.00
C988   C     0.29904   0.44121   0.94366   0.00000  Uiso   1.00
C989   C     0.16827   0.42194   0.62406   0.00000  Uiso   1.00
C990   C     0.20562   0.48145   0.88871   0.00000  Uiso   1.00
C991   C     0.22747   0.37794   0.79420   0.00000  Uiso   1.00
C992   C     0.11135   0.62362   0.70376   0.00000  Uiso   1.00
C993   C     0.30189   0.44175   0.69414   0.00000  Uiso   1.00
C994   C     0.21515   0.42739   0.95403   0.00000  Uiso   1.00
C995   C     0.03170   0.55935   0.80457   0.00000  Uiso   1.00
C996   C     0.07419   0.45389   0.52957   0.00000  Uiso   1.00
C997   C     0.24987   0.44516   0.97100   0.00000  Uiso   1.00
C998   C     0.19291   0.64579   0.77647   0.00000  Uiso   1.00
C999   C     0.12888   0.35352   0.74245   0.00000  Uiso   1.00
C1000  C     0.19410   0.35551   0.77594   0.00000  Uiso   1.00
H1001  H     0.24838   0.55642   0.62275   0.00000  Uiso   1.00
H1002  H     0.28058   0.57251   0.82606   0.00000  Uiso   1.00
H1003  H     0.03811   0.51153   0.88304   0.00000  Uiso   1.00
H1004  H     0.03125   0.54735   0.98795   0.00000  Uiso   1.00
H1005  H     0.28289   0.55278   0.50673   0.00000  Uiso   1.00
H1006  H     0.06004   0.45625   0.61510   0.00000  Uiso   1.00
H1007  H     0.19838   0.39260   0.90778   0.00000  Uiso   1.00
H1008  H     0.22651   0.64208   0.82282   0.00000  Uiso   1.00
H1009  H     0.06577   0.35392   0.73549   0.00000  Uiso   1.00
H1010  H     0.04814   0.41861   0.68786   0.00000  Uiso   1.00
N1011  N     0.04759   0.50001   0.75001   0.00000  Uiso   1.00
N1012  N     0.04411   0.58430   0.82687   0.00000  Uiso   1.00
N1013  N     0.28574   0.49999   0.74999   0.00000  Uiso   1.00
N1014  N     0.31728   0.44352   0.57004   0.00000  Uiso   1.00
N1015  N     0.00496   0.43715   0.92142   0.00000  Uiso   1.00
N1016  N     0.15486   0.39340   0.64626   0.00000  Uiso   1.00
N1017  N     0.24572   0.48730   0.87200   0.00000  Uiso   1.00
N1018  N     0.25436   0.39574   0.80841   0.00000  Uiso   1.00
N1019  N     0.09261   0.60692   0.67971   0.00000  Uiso   1.00
N1020  N     0.28952   0.41773   0.67083   0.00000  Uiso   1.00
O1021  O     0.12846   0.56108   0.75001   0.00000  Uiso   1.00
O1022  O     0.04963   0.52928   0.90480   0.00000  Uiso   1.00
O1023  O     0.03222   0.51977   0.50074   0.00000  Uiso   1.00
O1024  O     0.28197   0.52425   0.99374   0.00000  Uiso   1.00
O1025  O     0.09140   0.44301   0.60163   0.00000  Uiso   1.00
O1026  O     0.22772   0.40380   0.91260   0.00000  Uiso   1.00
O1027  O     0.21772   0.62390   0.79958   0.00000  Uiso   1.00
O1028  O     0.09182   0.37362   0.73425   0.00000  Uiso   1.00
O1029  O     0.06455   0.44170   0.69885   0.00000  Uiso   1.00
O1030  O     0.26720   0.55547   0.80525   0.00000  Uiso   1.00
O1031  O     0.20488   0.43892   0.75000   0.00000  Uiso   1.00
O1032  O     0.20490   0.56107   0.75000   0.00000  Uiso   1.00
O1033  O     0.12843   0.43893   0.75000   0.00000  Uiso   1.00
O1034  O     0.10661   0.50001   0.81613   0.00000  Uiso   1.00
O1035  O     0.22672   0.49999   0.68388   0.00000  Uiso   1.00
O1036  O     0.18305   0.50000   0.81612   0.00000  Uiso   1.00
O1037  O     0.15028   0.50000   0.68388   0.00000  Uiso   1.00
O1038  O     0.26430   0.54825   0.58946   0.00000  Uiso   1.00
Zn1039 Zn    0.11562   0.50001   0.75000   0.00000  Uiso   1.00
Zn1040 Zn    0.21771   0.49999   0.75000   0.00000  Uiso   1.00
C1041  C     0.50020   0.57987   0.75008   0.00000  Uiso   1.00
C1042  C     0.46825   0.64467   0.73393   0.00000  Uiso   1.00
C1043  C     0.49611   0.37591   0.75738   0.00000  Uiso   1.00
C1044  C     0.49932   0.62415   0.75225   0.00000  Uiso   1.00
C1045  C     0.65087   0.47137   0.72325   0.00000  Uiso   1.00
C1046  C     0.34905   0.52861   0.77686   0.00000  Uiso   1.00
C1047  C     0.36559   0.47089   0.72394   0.00000  Uiso   1.00
C1048  C     0.63391   0.52828   0.77736   0.00000  Uiso   1.00
C1049  C     0.47133   0.49933   0.83852   0.00000  Uiso   1.00
C1050  C     0.52873   0.49886   0.66181   0.00000  Uiso   1.00
C1051  C     0.45669   0.49219   0.88983   0.00000  Uiso   1.00
C1052  C     0.49880   0.42014   0.75254   0.00000  Uiso   1.00
C1053  C     0.54306   0.48931   0.61090   0.00000  Uiso   1.00
C1054  C     0.39903   0.49627   0.96768   0.00000  Uiso   1.00
C1055  C     0.58979   0.49957   0.52924   0.00000  Uiso   1.00
C1056  C     0.41209   0.50483   0.91991   0.00000  Uiso   1.00
C1057  C     0.57663   0.51307   0.57727   0.00000  Uiso   1.00
C1058  C     0.48869   0.47433   0.91006   0.00000  Uiso   1.00
C1059  C     0.51915   0.45677   0.59510   0.00000  Uiso   1.00
C1060  C     0.47157   0.45785   0.95566   0.00000  Uiso   1.00
C1061  C     0.52535   0.45114   0.54733   0.00000  Uiso   1.00
C1062  C     0.42472   0.46739   0.98338   0.00000  Uiso   1.00
C1063  C     0.43969   0.44535   0.55356   0.00000  Uiso   1.00
C1064  C     0.56867   0.46395   0.51634   0.00000  Uiso   1.00
C1065  C     0.50132   0.43904   0.97807   0.00000  Uiso   1.00
C1066  C     0.48829   0.44207   0.52774   0.00000  Uiso   1.00
C1067  C     0.35729   0.44846   0.55206   0.00000  Uiso   1.00
C1068  C     0.63238   0.44121   0.94366   0.00000  Uiso   1.00
C1069  C     0.50160   0.42194   0.62406   0.00000  Uiso   1.00
C1070  C     0.53896   0.48145   0.88871   0.00000  Uiso   1.00
C1071  C     0.56080   0.37794   0.79420   0.00000  Uiso   1.00
C1072  C     0.44469   0.62362   0.70376   0.00000  Uiso   1.00
C1073  C     0.63522   0.44175   0.69414   0.00000  Uiso   1.00
C1074  C     0.54849   0.42739   0.95403   0.00000  Uiso   1.00
C1075  C     0.36503   0.55935   0.80457   0.00000  Uiso   1.00
C1076  C     0.40752   0.45389   0.52957   0.00000  Uiso   1.00
C1077  C     0.58321   0.44516   0.97100   0.00000  Uiso   1.00
C1078  C     0.52624   0.64579   0.77647   0.00000  Uiso   1.00
C1079  C     0.46222   0.35352   0.74245   0.00000  Uiso   1.00
C1080  C     0.52743   0.35551   0.77594   0.00000  Uiso   1.00
H1081  H     0.58171   0.55642   0.62275   0.00000  Uiso   1.00
H1082  H     0.61391   0.57251   0.82606   0.00000  Uiso   1.00
H1083  H     0.37145   0.51153   0.88304   0.00000  Uiso   1.00
H1084  H     0.36458   0.54735   0.98795   0.00000  Uiso   1.00
H1085  H     0.61623   0.55278   0.50673   0.00000  Uiso   1.00
H1086  H     0.39337   0.45625   0.61510   0.00000  Uiso   1.00
H1087  H     0.53172   0.39260   0.90778   0.00000  Uiso   1.00
H1088  H     0.55984   0.64208   0.82282   0.00000  Uiso   1.00
H1089  H     0.39910   0.35392   0.73549   0.00000  Uiso   1.00
H1090  H     0.38147   0.41861   0.68786   0.00000  Uiso   1.00
N1091  N     0.38093   0.50001   0.75001   0.00000  Uiso   1.00
N1092  N     0.37745   0.58430   0.82687   0.00000  Uiso   1.00
N1093  N     0.61907   0.49999   0.74999   0.00000  Uiso   1.00
N1094  N     0.65062   0.44352   0.57004   0.00000  Uiso   1.00
N1095  N     0.33829   0.43715   0.92142   0.00000  Uiso   1.00
N1096  N     0.48820   0.39340   0.64626   0.00000  Uiso   1.00
N1097  N     0.57905   0.48730   0.87200   0.00000  Uiso   1.00
N1098  N     0.58769   0.39574   0.80841   0.00000  Uiso   1.00
N1099  N     0.42594   0.60692   0.67971   0.00000  Uiso   1.00
N1100  N     0.62285   0.41773   0.67083   0.00000  Uiso   1.00
O1101  O     0.46179   0.56108   0.75001   0.00000  Uiso   1.00
O1102  O     0.38296   0.52928   0.90480   0.00000  Uiso   1.00
O1103  O     0.36555   0.51977   0.50074   0.00000  Uiso   1.00
O1104  O     0.61530   0.52425   0.99374   0.00000  Uiso   1.00
O1105  O     0.42473   0.44301   0.60163   0.00000  Uiso   1.00
O1106  O     0.56106   0.40380   0.91260   0.00000  Uiso   1.00
O1107  O     0.55106   0.62390   0.79958   0.00000  Uiso   1.00
O1108  O     0.42515   0.37362   0.73425   0.00000  Uiso   1.00
O1109  O     0.39788   0.44170   0.69885   0.00000  Uiso   1.00
O1110  O     0.60053   0.55547   0.80525   0.00000  Uiso   1.00
O1111  O     0.53821   0.43892   0.75000   0.00000  Uiso   1.00
O1112  O     0.53823   0.56107   0.75000   0.00000  Uiso   1.00
O1113  O     0.46177   0.43893   0.75000   0.00000  Uiso   1.00
O1114  O     0.43994   0.50001   0.81613   0.00000  Uiso   1.00
O1115  O     0.56006   0.49999   0.68388   0.00000  Uiso   1.00
O1116  O     0.51639   0.50000   0.81612   0.00000  Uiso   1.00
O1117  O     0.48361   0.50000   0.68388   0.00000  Uiso   1.00
O1118  O     0.59764   0.54825   0.58946   0.00000  Uiso   1.00
Zn1119 Zn    0.44896   0.50001   0.75000   0.00000  Uiso   1.00
Zn1120 Zn    0.55104   0.49999   0.75000   0.00000  Uiso   1.00
C1121  C     0.83353   0.57987   0.75008   0.00000  Uiso   1.00
C1122  C     0.80158   0.64467   0.73393   0.00000  Uiso   1.00
C1123  C     0.82945   0.37591   0.75738   0.00000  Uiso   1.00
C1124  C     0.83265   0.62415   0.75225   0.00000  Uiso   1.00
C1125  C     0.98421   0.47137   0.72325   0.00000  Uiso   1.00
C1126  C     0.68238   0.52861   0.77686   0.00000  Uiso   1.00
C1127  C     0.69893   0.47089   0.72394   0.00000  Uiso   1.00
C1128  C     0.96724   0.52828   0.77736   0.00000  Uiso   1.00
C1129  C     0.80466   0.49933   0.83852   0.00000  Uiso   1.00
C1130  C     0.86206   0.49886   0.66181   0.00000  Uiso   1.00
C1131  C     0.79003   0.49219   0.88983   0.00000  Uiso   1.00
C1132  C     0.83214   0.42014   0.75254   0.00000  Uiso   1.00
C1133  C     0.87640   0.48931   0.61090   0.00000  Uiso   1.00
C1134  C     0.73236   0.49627   0.96768   0.00000  Uiso   1.00
C1135  C     0.92312   0.49957   0.52924   0.00000  Uiso   1.00
C1136  C     0.74542   0.50483   0.91991   0.00000  Uiso   1.00
C1137  C     0.90997   0.51307   0.57727   0.00000  Uiso   1.00
C1138  C     0.82203   0.47433   0.91006   0.00000  Uiso   1.00
C1139  C     0.85248   0.45677   0.59510   0.00000  Uiso   1.00
C1140  C     0.80490   0.45785   0.95566   0.00000  Uiso   1.00
C1141  C     0.85868   0.45114   0.54733   0.00000  Uiso   1.00
C1142  C     0.75805   0.46739   0.98338   0.00000  Uiso   1.00
C1143  C     0.77302   0.44535   0.55356   0.00000  Uiso   1.00
C1144  C     0.90200   0.46395   0.51634   0.00000  Uiso   1.00
C1145  C     0.83465   0.43904   0.97807   0.00000  Uiso   1.00
C1146  C     0.82163   0.44207   0.52774   0.00000  Uiso   1.00
C1147  C     0.69063   0.44846   0.55206   0.00000  Uiso   1.00
C1148  C     0.96571   0.44121   0.94366   0.00000  Uiso   1.00
C1149  C     0.83493   0.42194   0.62406   0.00000  Uiso   1.00
C1150  C     0.87229   0.48145   0.88871   0.00000  Uiso   1.00
C1151  C     0.89413   0.37794   0.79420   0.00000  Uiso   1.00
C1152  C     0.77802   0.62362   0.70376   0.00000  Uiso   1.00
C1153  C     0.96856   0.44175   0.69414   0.00000  Uiso   1.00
C1154  C     0.88182   0.42739   0.95403   0.00000  Uiso   1.00
C1155  C     0.69837   0.55935   0.80457   0.00000  Uiso   1.00
C1156  C     0.74085   0.45389   0.52957   0.00000  Uiso   1.00
C1157  C     0.91654   0.44516   0.97100   0.00000  Uiso   1.00
C1158  C     0.85957   0.64579   0.77647   0.00000  Uiso   1.00
C1159  C     0.79555   0.35352   0.74245   0.00000  Uiso   1.00
C1160  C     0.86077   0.35551   0.77594   0.00000  Uiso   1.00
H1161  H     0.91504   0.55642   0.62275   0.00000  Uiso   1.00
H1162  H     0.94725   0.57251   0.82606   0.00000  Uiso   1.00
H1163  H     0.70478   0.51153   0.88304   0.00000  Uiso   1.00
H1164  H     0.69792   0.54735   0.98795   0.00000  Uiso   1.00
H1165  H     0.94956   0.55278   0.50673   0.00000  Uiso   1.00
H1166  H     0.72670   0.45625   0.61510   0.00000  Uiso   1.00
H1167  H     0.86505   0.39260   0.90778   0.00000  Uiso   1.00
H1168  H     0.89317   0.64208   0.82282   0.00000  Uiso   1.00
H1169  H     0.73243   0.35392   0.73549   0.00000  Uiso   1.00
H1170  H     0.71481   0.41861   0.68786   0.00000  Uiso   1.00
N1171  N     0.71426   0.50001   0.75001   0.00000  Uiso   1.00
N1172  N     0.71078   0.58430   0.82687   0.00000  Uiso   1.00
N1173  N     0.95241   0.49999   0.74999   0.00000  Uiso   1.00
N1174  N     0.98395   0.44352   0.57004   0.00000  Uiso   1.00
N1175  N     0.67162   0.43715   0.92142   0.00000  Uiso   1.00
N1176  N     0.82153   0.39340   0.64626   0.00000  Uiso   1.00
N1177  N     0.91238   0.48730   0.87200   0.00000  Uiso   1.00
N1178  N     0.92103   0.39574   0.80841   0.00000  Uiso   1.00
N1179  N     0.75928   0.60692   0.67971   0.00000  Uiso   1.00
N1180  N     0.95619   0.41773   0.67083   0.00000  Uiso   1.00
O1181  O     0.79512   0.56108   0.75001   0.00000  Uiso   1.00
O1182  O     0.71629   0.52928   0.90480   0.00000  Uiso   1.00
O1183  O     0.69889   0.51977   0.50074   0.00000  Uiso   1.00
O1184  O     0.94863   0.52425   0.99374   0.00000  Uiso   1.00
O1185  O     0.75806   0.44301   0.60163   0.00000  Uiso   1.00
O1186  O     0.89439   0.40380   0.91260   0.00000  Uiso   1.00
O1187  O     0.88439   0.62390   0.79958   0.00000  Uiso   1.00
O1188  O     0.75849   0.37362   0.73425   0.00000  Uiso   1.00
O1189  O     0.73121   0.44170   0.69885   0.00000  Uiso   1.00
O1190  O     0.93387   0.55547   0.80525   0.00000  Uiso   1.00
O1191  O     0.87154   0.43892   0.75000   0.00000  Uiso   1.00
O1192  O     0.87157   0.56107   0.75000   0.00000  Uiso   1.00
O1193  O     0.79510   0.43893   0.75000   0.00000  Uiso   1.00
O1194  O     0.77328   0.50001   0.81613   0.00000  Uiso   1.00
O1195  O     0.89339   0.49999   0.68388   0.00000  Uiso   1.00
O1196  O     0.84972   0.50000   0.81612   0.00000  Uiso   1.00
O1197  O     0.81695   0.50000   0.68388   0.00000  Uiso   1.00
O1198  O     0.93097   0.54825   0.58946   0.00000  Uiso   1.00
Zn1199 Zn    0.78229   0.50001   0.75000   0.00000  Uiso   1.00
Zn1200 Zn    0.88438   0.49999   0.75000   0.00000  Uiso   1.00
C1201  C     0.16686   0.91321   0.75008   0.00000  Uiso   1.00
C1202  C     0.13492   0.97800   0.73393   0.00000  Uiso   1.00
C1203  C     0.16278   0.70924   0.75738   0.00000  Uiso   1.00
C1204  C     0.16599   0.95748   0.75225   0.00000  Uiso   1.00
C1205  C     0.31754   0.80470   0.72325   0.00000  Uiso   1.00
C1206  C     0.01572   0.86195   0.77686   0.00000  Uiso   1.00
C1207  C     0.03226   0.80422   0.72394   0.00000  Uiso   1.00
C1208  C     0.30058   0.86161   0.77736   0.00000  Uiso   1.00
C1209  C     0.13799   0.83266   0.83852   0.00000  Uiso   1.00
C1210  C     0.19540   0.83219   0.66181   0.00000  Uiso   1.00
C1211  C     0.12336   0.82553   0.88983   0.00000  Uiso   1.00
C1212  C     0.16547   0.75347   0.75254   0.00000  Uiso   1.00
C1213  C     0.20973   0.82264   0.61090   0.00000  Uiso   1.00
C1214  C     0.06570   0.82960   0.96768   0.00000  Uiso   1.00
C1215  C     0.25646   0.83291   0.52924   0.00000  Uiso   1.00
C1216  C     0.07875   0.83817   0.91991   0.00000  Uiso   1.00
C1217  C     0.24330   0.84640   0.57727   0.00000  Uiso   1.00
C1218  C     0.15536   0.80767   0.91006   0.00000  Uiso   1.00
C1219  C     0.18582   0.79010   0.59510   0.00000  Uiso   1.00
C1220  C     0.13823   0.79118   0.95566   0.00000  Uiso   1.00
C1221  C     0.19202   0.78447   0.54733   0.00000  Uiso   1.00
C1222  C     0.09138   0.80073   0.98338   0.00000  Uiso   1.00
C1223  C     0.10636   0.77868   0.55356   0.00000  Uiso   1.00
C1224  C     0.23533   0.79728   0.51634   0.00000  Uiso   1.00
C1225  C     0.16799   0.77238   0.97807   0.00000  Uiso   1.00
C1226  C     0.15496   0.77540   0.52774   0.00000  Uiso   1.00
C1227  C     0.02396   0.78179   0.55206   0.00000  Uiso   1.00
C1228  C     0.29904   0.77454   0.94366   0.00000  Uiso   1.00
C1229  C     0.16827   0.75528   0.62406   0.00000  Uiso   1.00
C1230  C     0.20562   0.81479   0.88871   0.00000  Uiso   1.00
C1231  C     0.22747   0.71127   0.79420   0.00000  Uiso   1.00
C1232  C     0.11135   0.95696   0.70376   0.00000  Uiso   1.00
C1233  C     0.30189   0.77508   0.69414   0.00000  Uiso   1.00
C1234  C     0.21515   0.76072   0.95403   0.00000  Uiso   1.00
C1235  C     0.03170   0.89269   0.80457   0.00000  Uiso   1.00
C1236  C     0.07419   0.78723   0.52957   0.00000  Uiso   1.00
C1237  C     0.24987   0.77849   0.97100   0.00000  Uiso   1.00
C1238  C     0.19291   0.97913   0.77647   0.00000  Uiso   1.00
C1239  C     0.12888   0.68686   0.74245   0.00000  Uiso   1.00
C1240  C     0.19410   0.68885   0.77594   0.00000  Uiso   1.00
H1241  H     0.24838   0.88975   0.62275   0.00000  Uiso   1.00
H1242  H     0.28058   0.90584   0.82606   0.00000  Uiso   1.00
H1243  H     0.03811   0.84487   0.88304   0.00000  Uiso   1.00
H1244  H     0.03125   0.88069   0.98795   0.00000  Uiso   1.00
H1245  H     0.28289   0.88612   0.50673   0.00000  Uiso   1.00
H1246  H     0.06004   0.78959   0.61510   0.00000  Uiso   1.00
H1247  H     0.19838   0.72593   0.90778   0.00000  Uiso   1.00
H1248  H     0.22651   0.97541   0.82282   0.00000  Uiso   1.00
H1249  H     0.06577   0.68725   0.73549   0.00000  Uiso   1.00
H1250  H     0.04814   0.75195   0.68786   0.00000  Uiso   1.00
N1251  N     0.04759   0.83334   0.75001   0.00000  Uiso   1.00
N1252  N     0.04411   0.91763   0.82687   0.00000  Uiso   1.00
N1253  N     0.28574   0.83332   0.74999   0.00000  Uiso   1.00
N1254  N     0.31728   0.77685   0.57004   0.00000  Uiso   1.00
N1255  N     0.00496   0.77048   0.92142   0.00000  Uiso   1.00
N1256  N     0.15486   0.72673   0.64626   0.00000  Uiso   1.00
N1257  N     0.24572   0.82063   0.87200   0.00000  Uiso   1.00
N1258  N     0.25436   0.72907   0.80841   0.00000  Uiso   1.00
N1259  N     0.09261   0.94025   0.67971   0.00000  Uiso   1.00
N1260  N     0.28952   0.75106   0.67083   0.00000  Uiso   1.00
O1261  O     0.12846   0.89442   0.75001   0.00000  Uiso   1.00
O1262  O     0.04963   0.86261   0.90480   0.00000  Uiso   1.00
O1263  O     0.03222   0.85311   0.50074   0.00000  Uiso   1.00
O1264  O     0.28197   0.85758   0.99374   0.00000  Uiso   1.00
O1265  O     0.09140   0.77635   0.60163   0.00000  Uiso   1.00
O1266  O     0.22772   0.73713   0.91260   0.00000  Uiso   1.00
O1267  O     0.21772   0.95724   0.79958   0.00000  Uiso   1.00
O1268  O     0.09182   0.70696   0.73425   0.00000  Uiso   1.00
O1269  O     0.06455   0.77504   0.69885   0.00000  Uiso   1.00
O1270  O     0.26720   0.88881   0.80525   0.00000  Uiso   1.00
O1271  O     0.20488   0.77225   0.75000   0.00000  Uiso   1.00
O1272  O     0.20490   0.89441   0.75000   0.00000  Uiso   1.00
O1273  O     0.12843   0.77226   0.75000   0.00000  Uiso   1.00
O1274  O     0.10661   0.83334   0.81613   0.00000  Uiso   1.00
O1275  O     0.22672   0.83333   0.68388   0.00000  Uiso   1.00
O1276  O     0.18305   0.83333   0.81612   0.00000  Uiso   1.00
O1277  O     0.15028   0.83334   0.68388   0.00000  Uiso   1.00
O1278  O     0.26430   0.88158   0.58946   0.00000  Uiso   1.00
Zn1279 Zn    0.11562   0.83334   0.75000   0.00000  Uiso   1.00
Zn1280 Zn    0.21771   0.83333   0.75000   0.00000  Uiso   1.00
C1281  C     0.50020   0.91321   0.75008   0.00000  Uiso   1.00
C1282  C     0.46825   0.97800   0.73393   0.00000  Uiso   1.00
C1283  C     0.49611   0.70924   0.75738   0.00000  Uiso   1.00
C1284  C     0.49932   0.95748   0.75225   0.00000  Uiso   1.00
C1285  C     0.65087   0.80470   0.72325   0.00000  Uiso   1.00
C1286  C     0.34905   0.86195   0.77686   0.00000  Uiso   1.00
C1287  C     0.36559   0.80422   0.72394   0.00000  Uiso   1.00
C1288  C     0.63391   0.86161   0.77736   0.00000  Uiso   1.00
C1289  C     0.47133   0.83266   0.83852   0.00000  Uiso   1.00
C1290  C     0.52873   0.83219   0.66181   0.00000  Uiso   1.00
C1291  C     0.45669   0.82553   0.88983   0.00000  Uiso   1.00
C1292  C     0.49880   0.75347   0.75254   0.00000  Uiso   1.00
C1293  C     0.54306   0.82264   0.61090   0.00000  Uiso   1.00
C1294  C     0.39903   0.82960   0.96768   0.00000  Uiso   1.00
C1295  C     0.58979   0.83291   0.52924   0.00000  Uiso   1.00
C1296  C     0.41209   0.83817   0.91991   0.00000  Uiso   1.00
C1297  C     0.57663   0.84640   0.57727   0.00000  Uiso   1.00
C1298  C     0.48869   0.80767   0.91006   0.00000  Uiso   1.00
C1299  C     0.51915   0.79010   0.59510   0.00000  Uiso   1.00
C1300  C     0.47157   0.79118   0.95566   0.00000  Uiso   1.00
C1301  C     0.52535   0.78447   0.54733   0.00000  Uiso   1.00
C1302  C     0.42472   0.80073   0.98338   0.00000  Uiso   1.00
C1303  C     0.43969   0.77868   0.55356   0.00000  Uiso   1.00
C1304  C     0.56867   0.79728   0.51634   0.00000  Uiso   1.00
C1305  C     0.50132   0.77238   0.97807   0.00000  Uiso   1.00
C1306  C     0.48829   0.77540   0.52774   0.00000  Uiso   1.00
C1307  C     0.35729   0.78179   0.55206   0.00000  Uiso   1.00
C1308  C     0.63238   0.77454   0.94366   0.00000  Uiso   1.00
C1309  C     0.50160   0.75528   0.62406   0.00000  Uiso   1.00
C1310  C     0.53896   0.81479   0.88871   0.00000  Uiso   1.00
C1311  C     0.56080   0.71127   0.79420   0.00000  Uiso   1.00
C1312  C     0.44469   0.95696   0.70376   0.00000  Uiso   1.00
C1313  C     0.63522   0.77508   0.69414   0.00000  Uiso   1.00
C1314  C     0.54849   0.76072   0.95403   0.00000  Uiso   1.00
C1315  C     0.36503   0.89269   0.80457   0.00000  Uiso   1.00
C1316  C     0.40752   0.78723   0.52957   0.00000  Uiso   1.00
C1317  C     0.58321   0.77849   0.97100   0.00000  Uiso   1.00
C1318  C     0.52624   0.97913   0.77647   0.00000  Uiso   1.00
C1319  C     0.46222   0.68686   0.74245   0.00000  Uiso   1.00
C1320  C     0.52743   0.68885   0.77594   0.00000  Uiso   1.00
H1321  H     0.58171   0.88975   0.62275   0.00000  Uiso   1.00
H1322  H     0.61391   0.90584   0.82606   0.00000  Uiso   1.00
H1323  H     0.37145   0.84487   0.88304   0.00000  Uiso   1.00
H1324  H     0.36458   0.88069   0.98795   0.00000  Uiso   1.00
H1325  H     0.61623   0.88612   0.50673   0.00000  Uiso   1.00
H1326  H     0.39337   0.78959   0.61510   0.00000  Uiso   1.00
H1327  H     0.53172   0.72593   0.90778   0.00000  Uiso   1.00
H1328  H     0.55984   0.97541   0.82282   0.00000  Uiso   1.00
H1329  H     0.39910   0.68725   0.73549   0.00000  Uiso   1.00
H1330  H     0.38147   0.75195   0.68786   0.00000  Uiso   1.00
N1331  N     0.38093   0.83334   0.75001   0.00000  Uiso   1.00
N1332  N     0.37745   0.91763   0.82687   0.00000  Uiso   1.00
N1333  N     0.61907   0.83332   0.74999   0.00000  Uiso   1.00
N1334  N     0.65062   0.77685   0.57004   0.00000  Uiso   1.00
N1335  N     0.33829   0.77048   0.92142   0.00000  Uiso   1.00
N1336  N     0.48820   0.72673   0.64626   0.00000  Uiso   1.00
N1337  N     0.57905   0.82063   0.87200   0.00000  Uiso   1.00
N1338  N     0.58769   0.72907   0.80841   0.00000  Uiso   1.00
N1339  N     0.42594   0.94025   0.67971   0.00000  Uiso   1.00
N1340  N     0.62285   0.75106   0.67083   0.00000  Uiso   1.00
O1341  O     0.46179   0.89442   0.75001   0.00000  Uiso   1.00
O1342  O     0.38296   0.86261   0.90480   0.00000  Uiso   1.00
O1343  O     0.36555   0.85311   0.50074   0.00000  Uiso   1.00
O1344  O     0.61530   0.85758   0.99374   0.00000  Uiso   1.00
O1345  O     0.42473   0.77635   0.60163   0.00000  Uiso   1.00
O1346  O     0.56106   0.73713   0.91260   0.00000  Uiso   1.00
O1347  O     0.55106   0.95724   0.79958   0.00000  Uiso   1.00
O1348  O     0.42515   0.70696   0.73425   0.00000  Uiso   1.00
O1349  O     0.39788   0.77504   0.69885   0.00000  Uiso   1.00
O1350  O     0.60053   0.88881   0.80525   0.00000  Uiso   1.00
O1351  O     0.53821   0.77225   0.75000   0.00000  Uiso   1.00
O1352  O     0.53823   0.89441   0.75000   0.00000  Uiso   1.00
O1353  O     0.46177   0.77226   0.75000   0.00000  Uiso   1.00
O1354  O     0.43994   0.83334   0.81613   0.00000  Uiso   1.00
O1355  O     0.56006   0.83333   0.68388   0.00000  Uiso   1.00
O1356  O     0.51639   0.83333   0.81612   0.00000  Uiso   1.00
O1357  O     0.48361   0.83334   0.68388   0.00000  Uiso   1.00
O1358  O     0.59764   0.88158   0.58946   0.00000  Uiso   1.00
Zn1359 Zn    0.44896   0.83334   0.75000   0.00000  Uiso   1.00
Zn1360 Zn    0.55104   0.83333   0.75000   0.00000  Uiso   1.00
C1361  C     0.83353   0.91321   0.75008   0.00000  Uiso   1.00
C1362  C     0.80158   0.97800   0.73393   0.00000  Uiso   1.00
C1363  C     0.82945   0.70924   0.75738   0.00000  Uiso   1.00
C1364  C     0.83265   0.95748   0.75225   0.00000  Uiso   1.00
C1365  C     0.98421   0.80470   0.72325   0.00000  Uiso   1.00
C1366  C     0.68238   0.86195   0.77686   0.00000  Uiso   1.00
C1367  C     0.69893   0.80422   0.72394   0.00000  Uiso   1.00
C1368  C     0.96724   0.86161   0.77736   0.00000  Uiso   1.00
C1369  C     0.80466   0.83266   0.83852   0.00000  Uiso   1.00
C1370  C     0.86206   0.83219   0.66181   0.00000  Uiso   1.00
C1371  C     0.79003   0.82553   0.88983   0.00000  Uiso   1.00
C1372  C     0.83214   0.75347   0.75254   0.00000  Uiso   1.00
C1373  C     0.87640   0.82264   0.61090   0.00000  Uiso   1.00
C1374  C     0.73236   0.82960   0.96768   0.00000  Uiso   1.00
C1375  C     0.92312   0.83291   0.52924   0.00000  Uiso   1.00
C1376  C     0.74542   0.83817   0.91991   0.00000  Uiso   1.00
C1377  C     0.90997   0.84640   0.57727   0.00000  Uiso   1.00
C1378  C     0.82203   0.80767   0.91006   0.00000  Uiso   1.00
C1379  C     0.85248   0.79010   0.59510   0.00000  Uiso   1.00
C1380  C     0.80490   0.79118   0.95566   0.00000  Uiso   1.00
C1381  C     0.85868   0.78447   0.54733   0.00000  Uiso   1.00
C1382  C     0.75805   0.80073   0.98338   0.00000  Uiso   1.00
C1383  C     0.77302   0.77868   0.55356   0.00000  Uiso   1.00
C1384  C     0.90200   0.79728   0.51634   0.00000  Uiso   1.00
C1385  C     0.83465   0.77238   0.97807   0.00000  Uiso   1.00
C1386  C     0.82163   0.77540   0.52774   0.00000  Uiso   1.00
C1387  C     0.69063   0.78179   0.55206   0.00000  Uiso   1.00
C1388  C     0.96571   0.77454   0.94366   0.00000  Uiso   1.00
C1389  C     0.83493   0.75528   0.62406   0.00000  Uiso   1.00
C1390  C     0.87229   0.81479   0.88871   0.00000  Uiso   1.00
C1391  C     0.89413   0.71127   0.79420   0.00000  Uiso   1.00
C1392  C     0.77802   0.95696   0.70376   0.00000  Uiso   1.00
C1393  C     0.96856   0.77508   0.69414   0.00000  Uiso   1.00
C1394  C     0.88182   0.76072   0.95403   0.00000  Uiso   1.00
C1395  C     0.69837   0.89269   0.80457   0.00000  Uiso   1.00
C1396  C     0.74085   0.78723   0.52957   0.00000  Uiso   1.00
C1397  C     0.91654   0.77849   0.97100   0.00000  Uiso   1.00
C1398  C     0.85957   0.97913   0.77647   0.00000  Uiso   1.00
C1399  C     0.79555   0.68686   0.74245   0.00000  Uiso   1.00
C1400  C     0.86077   0.68885   0.77594   0.00000  Uiso   1.00
H1401  H     0.91504   0.88975   0.62275   0.00000  Uiso   1.00
H1402  H     0.94725   0.90584   0.82606   0.00000  Uiso   1.00
H1403  H     0.70478   0.84487   0.88304   0.00000  Uiso   1.00
H1404  H     0.69792   0.88069   0.98795   0.00000  Uiso   1.00
H1405  H     0.94956   0.88612   0.50673   0.00000  Uiso   1.00
H1406  H     0.72670   0.78959   0.61510   0.00000  Uiso   1.00
H1407  H     0.86505   0.72593   0.90778   0.00000  Uiso   1.00
H1408  H     0.89317   0.97541   0.82282   0.00000  Uiso   1.00
H1409  H     0.73243   0.68725   0.73549   0.00000  Uiso   1.00
H1410  H     0.71481   0.75195   0.68786   0.00000  Uiso   1.00
N1411  N     0.71426   0.83334   0.75001   0.00000  Uiso   1.00
N1412  N     0.71078   0.91763   0.82687   0.00000  Uiso   1.00
N1413  N     0.95241   0.83332   0.74999   0.00000  Uiso   1.00
N1414  N     0.98395   0.77685   0.57004   0.00000  Uiso   1.00
N1415  N     0.67162   0.77048   0.92142   0.00000  Uiso   1.00
N1416  N     0.82153   0.72673   0.64626   0.00000  Uiso   1.00
N1417  N     0.91238   0.82063   0.87200   0.00000  Uiso   1.00
N1418  N     0.92103   0.72907   0.80841   0.00000  Uiso   1.00
N1419  N     0.75928   0.94025   0.67971   0.00000  Uiso   1.00
N1420  N     0.95619   0.75106   0.67083   0.00000  Uiso   1.00
O1421  O     0.79512   0.89442   0.75001   0.00000  Uiso   1.00
O1422  O     0.71629   0.86261   0.90480   0.00000  Uiso   1.00
O1423  O     0.69889   0.85311   0.50074   0.00000  Uiso   1.00
O1424  O     0.94863   0.85758   0.99374   0.00000  Uiso   1.00
O1425  O     0.75806   0.77635   0.60163   0.00000  Uiso   1.00
O1426  O     0.89439   0.73713   0.91260   0.00000  Uiso   1.00
O1427  O     0.88439   0.95724   0.79958   0.00000  Uiso   1.00
O1428  O     0.75849   0.70696   0.73425   0.00000  Uiso   1.00
O1429  O     0.73121   0.77504   0.69885   0.00000  Uiso   1.00
O1430  O     0.93387   0.88881   0.80525   0.00000  Uiso   1.00
O1431  O     0.87154   0.77225   0.75000   0.00000  Uiso   1.00
O1432  O     0.87157   0.89441   0.75000   0.00000  Uiso   1.00
O1433  O     0.79510   0.77226   0.75000   0.00000  Uiso   1.00
O1434  O     0.77328   0.83334   0.81613   0.00000  Uiso   1.00
O1435  O     0.89339   0.83333   0.68388   0.00000  Uiso   1.00
O1436  O     0.84972   0.83333   0.81612   0.00000  Uiso   1.00
O1437  O     0.81695   0.83334   0.68388   0.00000  Uiso   1.00
O1438  O     0.93097   0.88158   0.58946   0.00000  Uiso   1.00
Zn1439 Zn    0.78229   0.83334   0.75000   0.00000  Uiso   1.00
Zn1440 Zn    0.88438   0.83333   0.75000   0.00000  Uiso   1.00
loop_
_geom_bond_atom_site_label_1
_geom_bond_atom_site_label_2
_geom_bond_distance
_geom_bond_site_symmetry_2
_ccdc_geom_bond_type
C1     O72     1.294   .     A
C1     O61     1.290   .     A
C1     C4      1.432   .     S
C2     C32     1.455   .     S
C2     C4      1.406   .     A
C2     C279    1.382   .     S
C3     C12     1.444   .     S
C3     C39     1.409   .     A
C3     C40     1.414   .     A
C4     C38     1.405   .     A
C5     N53     1.372   .     A
C5     C33     1.441   .     S
C5     C87     1.440   .     S
C6     C35     1.441   .     S
C6     N51     1.374   .     A
C6     C168    1.441   1_455 S
C7     O69     1.376   .     S
C7     N51     1.365   .     A
C7     C165    1.440   1_455 S
C8     N53     1.365   .     A
C8     O70     1.379   .     S
C8     C86     1.441   .     S
C9     O76     1.300   .     A
C9     C11     1.492   .     S
C9     O74     1.315   .     A
C10    O75     1.305   .     A
C10    O77     1.299   .     A
C10    C13     1.474   .     S
C11    C18     1.424   .     A
C11    C16     1.407   .     A
C12    O73     1.293   .     A
C12    O71     1.297   .     A
C13    C19     1.411   .     A
C13    C17     1.422   .     A
C14    C16     1.404   .     A
C14    C22     1.404   .     A
C14    O783    1.376   .     S
C15    C24     1.404   .     A
C15    C17     1.422   .     A
C15    O784    1.379   1_554 S
C16    O62     1.374   .     S
C17    O78     1.383   .     S
C18    C30     1.452   .     S
C18    C20     1.428   .     A
C19    C21     1.393   .     A
C19    C29     1.444   .     S
C20    C25     1.429   .     A
C20    C22     1.413   .     A
C21    C26     1.429   .     A
C21    C24     1.402   .     A
C22    C756    1.407   .     S
C23    C26     1.415   .     A
C23    O65     1.377   .     S
C23    C36     1.407   .     A
C24    C757    1.407   1_554 S
C25    C34     1.412   .     A
C25    C746    1.419   .     S
C26    C745    1.419   1_554 S
C27    C36     1.447   .     S
C27    N214    1.156   1_455 S
C28    C37     1.441   .     S
C28    N135    1.156   .     S
C29    N56     1.155   .     T
C30    N57     1.158   .     T
C31    N58     1.157   .     T
C31    C40     1.452   .     S
C32    N59     1.158   .     T
C33    N60     1.157   .     T
C34    C37     1.398   .     A
C34    O66     1.381   .     S
C35    N52     1.158   .     T
C36    C742    1.407   1_554 S
C37    C744    1.407   .     S
C38    O67     1.384   .     S
C38    C280    1.394   .     S
C39    O68     1.383   .     S
C39    C482    1.382   1_545 S
C40    C518    1.394   1_545 S
H41    O78     0.989   .     S
H42    O70     0.988   .     S
H43    O62     0.990   .     S
H44    O783    0.992   .     S
H45    O784    0.991   1_554 S
H46    O65     0.990   .     S
H47    O66     0.992   .     S
H48    O67     0.989   .     S
H49    O68     0.991   .     S
H50    O69     0.989   .     S
N51    Zn79    2.029   .     S
N53    Zn80    2.029   .     S
N54    C107    1.156   .     S
N55    C188    1.156   1_455 S
O61    Zn79    2.008   .     S
O63    H764    0.992   1_554 S
O63    C734    1.376   1_554 S
O64    H765    0.991   .     S
O64    C735    1.379   .     S
O71    Zn80    2.008   .     S
O72    Zn80    2.019   .     S
O73    Zn79    2.019   .     S
O74    Zn79    1.921   .     S
O75    Zn80    1.921   .     S
O76    Zn80    1.930   .     S
O77    Zn79    1.930   .     S
C81    O152    1.294   .     A
C81    O141    1.290   .     A
C81    C84     1.432   .     S
C82    C112    1.455   .     S
C82    C84     1.406   .     A
C82    C359    1.382   .     S
C83    C92     1.444   .     S
C83    C119    1.409   .     A
C83    C120    1.414   .     A
C84    C118    1.405   .     A
C85    N133    1.372   .     A
C85    C113    1.441   .     S
C85    C167    1.440   .     S
C86    C115    1.441   .     S
C86    N131    1.374   .     A
C87    O149    1.376   .     S
C87    N131    1.365   .     A
C88    N133    1.365   .     A
C88    O150    1.379   .     S
C88    C166    1.441   .     S
C89    O156    1.300   .     A
C89    C91     1.492   .     S
C89    O154    1.315   .     A
C90    O155    1.305   .     A
C90    O157    1.299   .     A
C90    C93     1.474   .     S
C91    C98     1.424   .     A
C91    C96     1.407   .     A
C92    O153    1.293   .     A
C92    O151    1.297   .     A
C93    C99     1.411   .     A
C93    C97     1.422   .     A
C94    C96     1.404   .     A
C94    C102    1.404   .     A
C94    O863    1.376   .     S
C95    C104    1.404   .     A
C95    C97     1.422   .     A
C95    O864    1.379   1_554 S
C96    O142    1.374   .     S
C97    O158    1.383   .     S
C98    C110    1.452   .     S
C98    C100    1.428   .     A
C99    C101    1.393   .     A
C99    C109    1.444   .     S
C100   C105    1.429   .     A
C100   C102    1.413   .     A
C101   C106    1.429   .     A
C101   C104    1.402   .     A
C102   C836    1.407   .     S
C103   C106    1.415   .     A
C103   O145    1.377   .     S
C103   C116    1.407   .     A
C104   C837    1.407   1_554 S
C105   C114    1.412   .     A
C105   C826    1.419   .     S
C106   C825    1.419   1_554 S
C107   C116    1.447   .     S
C108   C117    1.441   .     S
C108   N215    1.156   .     S
C109   N136    1.155   .     T
C110   N137    1.158   .     T
C111   N138    1.157   .     T
C111   C120    1.452   .     S
C112   N139    1.158   .     T
C113   N140    1.157   .     T
C114   C117    1.398   .     A
C114   O146    1.381   .     S
C115   N132    1.158   .     T
C116   C822    1.407   1_554 S
C117   C824    1.407   .     S
C118   O147    1.384   .     S
C118   C360    1.394   .     S
C119   O148    1.383   .     S
C119   C562    1.382   1_545 S
C120   C598    1.394   1_545 S
H121   O158    0.989   .     S
H122   O150    0.988   .     S
H123   O142    0.990   .     S
H124   O863    0.992   .     S
H125   O864    0.991   1_554 S
H126   O145    0.990   .     S
H127   O146    0.992   .     S
H128   O147    0.989   .     S
H129   O148    0.991   .     S
H130   O149    0.989   .     S
N131   Zn159   2.029   .     S
N133   Zn160   2.029   .     S
N134   C187    1.156   .     S
O141   Zn159   2.008   .     S
O143   H844    0.992   1_554 S
O143   C814    1.376   1_554 S
O144   H845    0.991   .     S
O144   C815    1.379   .     S
O151   Zn160   2.008   .     S
O152   Zn160   2.019   .     S
O153   Zn159   2.019   .     S
O154   Zn159   1.921   .     S
O155   Zn160   1.921   .     S
O156   Zn160   1.930   .     S
O157   Zn159   1.930   .     S
C161   O232    1.294   .     A
C161   O221    1.290   .     A
C161   C164    1.432   .     S
C162   C192    1.455   .     S
C162   C164    1.406   .     A
C162   C439    1.382   .     S
C163   C172    1.444   .     S
C163   C199    1.409   .     A
C163   C200    1.414   .     A
C164   C198    1.405   .     A
C165   N213    1.372   .     A
C165   C193    1.441   .     S
C165   C7      1.440   1_655 S
C166   C195    1.441   .     S
C166   N211    1.374   .     A
C167   O229    1.376   .     S
C167   N211    1.365   .     A
C168   N213    1.365   .     A
C168   O230    1.379   .     S
C168   C6      1.441   1_655 S
C169   O236    1.300   .     A
C169   C171    1.492   .     S
C169   O234    1.315   .     A
C170   O235    1.305   .     A
C170   O237    1.299   .     A
C170   C173    1.474   .     S
C171   C178    1.424   .     A
C171   C176    1.407   .     A
C172   O233    1.293   .     A
C172   O231    1.297   .     A
C173   C179    1.411   .     A
C173   C177    1.422   .     A
C174   C176    1.404   .     A
C174   C182    1.404   .     A
C174   O943    1.376   .     S
C175   C184    1.404   .     A
C175   C177    1.422   .     A
C175   O944    1.379   1_554 S
C176   O222    1.374   .     S
C177   O238    1.383   .     S
C178   C190    1.452   .     S
C178   C180    1.428   .     A
C179   C181    1.393   .     A
C179   C189    1.444   .     S
C180   C185    1.429   .     A
C180   C182    1.413   .     A
C181   C186    1.429   .     A
C181   C184    1.402   .     A
C182   C916    1.407   .     S
C183   C186    1.415   .     A
C183   O225    1.377   .     S
C183   C196    1.407   .     A
C184   C917    1.407   1_554 S
C185   C194    1.412   .     A
C185   C906    1.419   .     S
C186   C905    1.419   1_554 S
C187   C196    1.447   .     S
C188   C197    1.441   .     S
C188   N55     1.156   1_655 S
C189   N216    1.155   .     T
C190   N217    1.158   .     T
C191   N218    1.157   .     T
C191   C200    1.452   .     S
C192   N219    1.158   .     T
C193   N220    1.157   .     T
C194   C197    1.398   .     A
C194   O226    1.381   .     S
C195   N212    1.158   .     T
C196   C902    1.407   1_554 S
C197   C904    1.407   .     S
C198   O227    1.384   .     S
C198   C440    1.394   .     S
C199   O228    1.383   .     S
C199   C642    1.382   1_545 S
C200   C678    1.394   1_545 S
H201   O238    0.989   .     S
H202   O230    0.988   .     S
H203   O222    0.990   .     S
H204   O943    0.992   .     S
H205   O944    0.991   1_554 S
H206   O225    0.990   .     S
H207   O226    0.992   .     S
H208   O227    0.989   .     S
H209   O228    0.991   .     S
H210   O229    0.989   .     S
N211   Zn239   2.029   .     S
N213   Zn240   2.029   .     S
N214   C27     1.156   1_655 S
O221   Zn239   2.008   .     S
O223   H924    0.992   1_554 S
O223   C894    1.376   1_554 S
O224   H925    0.991   .     S
O224   C895    1.379   .     S
O231   Zn240   2.008   .     S
O232   Zn240   2.019   .     S
O233   Zn239   2.019   .     S
O234   Zn239   1.921   .     S
O235   Zn240   1.921   .     S
O236   Zn240   1.930   .     S
O237   Zn239   1.930   .     S
C241   O312    1.294   .     A
C241   O301    1.290   .     A
C241   C244    1.432   .     S
C242   C272    1.455   .     S
C242   C244    1.406   .     A
C242   C519    1.382   .     S
C243   C252    1.444   .     S
C243   C279    1.409   .     A
C243   C280    1.414   .     A
C244   C278    1.405   .     A
C245   N293    1.372   .     A
C245   C273    1.441   .     S
C245   C327    1.440   .     S
C246   C275    1.441   .     S
C246   N291    1.374   .     A
C246   C408    1.441   1_455 S
C247   O309    1.376   .     S
C247   N291    1.365   .     A
C247   C405    1.440   1_455 S
C248   N293    1.365   .     A
C248   O310    1.379   .     S
C248   C326    1.441   .     S
C249   O316    1.300   .     A
C249   C251    1.492   .     S
C249   O314    1.315   .     A
C250   O315    1.305   .     A
C250   O317    1.299   .     A
C250   C253    1.474   .     S
C251   C258    1.424   .     A
C251   C256    1.407   .     A
C252   O313    1.293   .     A
C252   O311    1.297   .     A
C253   C259    1.411   .     A
C253   C257    1.422   .     A
C254   C256    1.404   .     A
C254   C262    1.404   .     A
C254   O1023   1.376   .     S
C255   C264    1.404   .     A
C255   C257    1.422   .     A
C255   O1024   1.379   1_554 S
C256   O302    1.374   .     S
C257   O318    1.383   .     S
C258   C270    1.452   .     S
C258   C260    1.428   .     A
C259   C261    1.393   .     A
C259   C269    1.444   .     S
C260   C265    1.429   .     A
C260   C262    1.413   .     A
C261   C266    1.429   .     A
C261   C264    1.402   .     A
C262   C996    1.407   .     S
C263   C266    1.415   .     A
C263   O305    1.377   .     S
C263   C276    1.407   .     A
C264   C997    1.407   1_554 S
C265   C274    1.412   .     A
C265   C986    1.419   .     S
C266   C985    1.419   1_554 S
C267   C276    1.447   .     S
C267   N454    1.156   1_455 S
C268   C277    1.441   .     S
C268   N375    1.156   .     S
C269   N296    1.155   .     T
C270   N297    1.158   .     T
C271   N298    1.157   .     T
C271   C280    1.452   .     S
C272   N299    1.158   .     T
C273   N300    1.157   .     T
C274   C277    1.398   .     A
C274   O306    1.381   .     S
C275   N292    1.158   .     T
C276   C982    1.407   1_554 S
C277   C984    1.407   .     S
C278   O307    1.384   .     S
C278   C520    1.394   .     S
C279   O308    1.383   .     S
H281   O318    0.989   .     S
H282   O310    0.988   .     S
H283   O302    0.990   .     S
H284   O1023   0.992   .     S
H285   O1024   0.991   1_554 S
H286   O305    0.990   .     S
H287   O306    0.992   .     S
H288   O307    0.989   .     S
H289   O308    0.991   .     S
H290   O309    0.989   .     S
N291   Zn319   2.029   .     S
N293   Zn320   2.029   .     S
N294   C347    1.156   .     S
N295   C428    1.156   1_455 S
O301   Zn319   2.008   .     S
O303   H1004   0.992   1_554 S
O303   C974    1.376   1_554 S
O304   H1005   0.991   .     S
O304   C975    1.379   .     S
O311   Zn320   2.008   .     S
O312   Zn320   2.019   .     S
O313   Zn319   2.019   .     S
O314   Zn319   1.921   .     S
O315   Zn320   1.921   .     S
O316   Zn320   1.930   .     S
O317   Zn319   1.930   .     S
C321   O392    1.294   .     A
C321   O381    1.290   .     A
C321   C324    1.432   .     S
C322   C352    1.455   .     S
C322   C324    1.406   .     A
C322   C599    1.382   .     S
C323   C332    1.444   .     S
C323   C359    1.409   .     A
C323   C360    1.414   .     A
C324   C358    1.405   .     A
C325   N373    1.372   .     A
C325   C353    1.441   .     S
C325   C407    1.440   .     S
C326   C355    1.441   .     S
C326   N371    1.374   .     A
C327   O389    1.376   .     S
C327   N371    1.365   .     A
C328   N373    1.365   .     A
C328   O390    1.379   .     S
C328   C406    1.441   .     S
C329   O396    1.300   .     A
C329   C331    1.492   .     S
C329   O394    1.315   .     A
C330   O395    1.305   .     A
C330   O397    1.299   .     A
C330   C333    1.474   .     S
C331   C338    1.424   .     A
C331   C336    1.407   .     A
C332   O393    1.293   .     A
C332   O391    1.297   .     A
C333   C339    1.411   .     A
C333   C337    1.422   .     A
C334   C336    1.404   .     A
C334   C342    1.404   .     A
C334   O1103   1.376   .     S
C335   C344    1.404   .     A
C335   C337    1.422   .     A
C335   O1104   1.379   1_554 S
C336   O382    1.374   .     S
C337   O398    1.383   .     S
C338   C350    1.452   .     S
C338   C340    1.428   .     A
C339   C341    1.393   .     A
C339   C349    1.444   .     S
C340   C345    1.429   .     A
C340   C342    1.413   .     A
C341   C346    1.429   .     A
C341   C344    1.402   .     A
C342   C1076   1.407   .     S
C343   C346    1.415   .     A
C343   O385    1.377   .     S
C343   C356    1.407   .     A
C344   C1077   1.407   1_554 S
C345   C354    1.412   .     A
C345   C1066   1.419   .     S
C346   C1065   1.419   1_554 S
C347   C356    1.447   .     S
C348   C357    1.441   .     S
C348   N455    1.156   .     S
C349   N376    1.155   .     T
C350   N377    1.158   .     T
C351   N378    1.157   .     T
C351   C360    1.452   .     S
C352   N379    1.158   .     T
C353   N380    1.157   .     T
C354   C357    1.398   .     A
C354   O386    1.381   .     S
C355   N372    1.158   .     T
C356   C1062   1.407   1_554 S
C357   C1064   1.407   .     S
C358   O387    1.384   .     S
C358   C600    1.394   .     S
C359   O388    1.383   .     S
H361   O398    0.989   .     S
H362   O390    0.988   .     S
H363   O382    0.990   .     S
H364   O1103   0.992   .     S
H365   O1104   0.991   1_554 S
H366   O385    0.990   .     S
H367   O386    0.992   .     S
H368   O387    0.989   .     S
H369   O388    0.991   .     S
H370   O389    0.989   .     S
N371   Zn399   2.029   .     S
N373   Zn400   2.029   .     S
N374   C427    1.156   .     S
O381   Zn399   2.008   .     S
O383   H1084   0.992   1_554 S
O383   C1054   1.376   1_554 S
O384   H1085   0.991   .     S
O384   C1055   1.379   .     S
O391   Zn400   2.008   .     S
O392   Zn400   2.019   .     S
O393   Zn399   2.019   .     S
O394   Zn399   1.921   .     S
O395   Zn400   1.921   .     S
O396   Zn400   1.930   .     S
O397   Zn399   1.930   .     S
C401   O472    1.294   .     A
C401   O461    1.290   .     A
C401   C404    1.432   .     S
C402   C432    1.455   .     S
C402   C404    1.406   .     A
C402   C679    1.382   .     S
C403   C412    1.444   .     S
C403   C439    1.409   .     A
C403   C440    1.414   .     A
C404   C438    1.405   .     A
C405   N453    1.372   .     A
C405   C433    1.441   .     S
C405   C247    1.440   1_655 S
C406   C435    1.441   .     S
C406   N451    1.374   .     A
C407   O469    1.376   .     S
C407   N451    1.365   .     A
C408   N453    1.365   .     A
C408   O470    1.379   .     S
C408   C246    1.441   1_655 S
C409   O476    1.300   .     A
C409   C411    1.492   .     S
C409   O474    1.315   .     A
C410   O475    1.305   .     A
C410   O477    1.299   .     A
C410   C413    1.474   .     S
C411   C418    1.424   .     A
C411   C416    1.407   .     A
C412   O473    1.293   .     A
C412   O471    1.297   .     A
C413   C419    1.411   .     A
C413   C417    1.422   .     A
C414   C416    1.404   .     A
C414   C422    1.404   .     A
C414   O1183   1.376   .     S
C415   C424    1.404   .     A
C415   C417    1.422   .     A
C415   O1184   1.379   1_554 S
C416   O462    1.374   .     S
C417   O478    1.383   .     S
C418   C430    1.452   .     S
C418   C420    1.428   .     A
C419   C421    1.393   .     A
C419   C429    1.444   .     S
C420   C425    1.429   .     A
C420   C422    1.413   .     A
C421   C426    1.429   .     A
C421   C424    1.402   .     A
C422   C1156   1.407   .     S
C423   C426    1.415   .     A
C423   O465    1.377   .     S
C423   C436    1.407   .     A
C424   C1157   1.407   1_554 S
C425   C434    1.412   .     A
C425   C1146   1.419   .     S
C426   C1145   1.419   1_554 S
C427   C436    1.447   .     S
C428   C437    1.441   .     S
C428   N295    1.156   1_655 S
C429   N456    1.155   .     T
C430   N457    1.158   .     T
C431   N458    1.157   .     T
C431   C440    1.452   .     S
C432   N459    1.158   .     T
C433   N460    1.157   .     T
C434   C437    1.398   .     A
C434   O466    1.381   .     S
C435   N452    1.158   .     T
C436   C1142   1.407   1_554 S
C437   C1144   1.407   .     S
C438   O467    1.384   .     S
C438   C680    1.394   .     S
C439   O468    1.383   .     S
H441   O478    0.989   .     S
H442   O470    0.988   .     S
H443   O462    0.990   .     S
H444   O1183   0.992   .     S
H445   O1184   0.991   1_554 S
H446   O465    0.990   .     S
H447   O466    0.992   .     S
H448   O467    0.989   .     S
H449   O468    0.991   .     S
H450   O469    0.989   .     S
N451   Zn479   2.029   .     S
N453   Zn480   2.029   .     S
N454   C267    1.156   1_655 S
O461   Zn479   2.008   .     S
O463   H1164   0.992   1_554 S
O463   C1134   1.376   1_554 S
O464   H1165   0.991   .     S
O464   C1135   1.379   .     S
O471   Zn480   2.008   .     S
O472   Zn480   2.019   .     S
O473   Zn479   2.019   .     S
O474   Zn479   1.921   .     S
O475   Zn480   1.921   .     S
O476   Zn480   1.930   .     S
O477   Zn479   1.930   .     S
C481   O552    1.294   .     A
C481   O541    1.290   .     A
C481   C484    1.432   .     S
C482   C512    1.455   .     S
C482   C484    1.406   .     A
C482   C39     1.382   1_565 S
C483   C492    1.444   .     S
C483   C519    1.409   .     A
C483   C520    1.414   .     A
C484   C518    1.405   .     A
C485   N533    1.372   .     A
C485   C513    1.441   .     S
C485   C567    1.440   .     S
C486   C515    1.441   .     S
C486   N531    1.374   .     A
C486   C648    1.441   1_455 S
C487   O549    1.376   .     S
C487   N531    1.365   .     A
C487   C645    1.440   1_455 S
C488   N533    1.365   .     A
C488   O550    1.379   .     S
C488   C566    1.441   .     S
C489   O556    1.300   .     A
C489   C491    1.492   .     S
C489   O554    1.315   .     A
C490   O555    1.305   .     A
C490   O557    1.299   .     A
C490   C493    1.474   .     S
C491   C498    1.424   .     A
C491   C496    1.407   .     A
C492   O553    1.293   .     A
C492   O551    1.297   .     A
C493   C499    1.411   .     A
C493   C497    1.422   .     A
C494   C496    1.404   .     A
C494   C502    1.404   .     A
C494   O1263   1.376   .     S
C495   C504    1.404   .     A
C495   C497    1.422   .     A
C495   O1264   1.379   1_554 S
C496   O542    1.374   .     S
C497   O558    1.383   .     S
C498   C510    1.452   .     S
C498   C500    1.428   .     A
C499   C501    1.393   .     A
C499   C509    1.444   .     S
C500   C505    1.429   .     A
C500   C502    1.413   .     A
C501   C506    1.429   .     A
C501   C504    1.402   .     A
C502   C1236   1.407   .     S
C503   C506    1.415   .     A
C503   O545    1.377   .     S
C503   C516    1.407   .     A
C504   C1237   1.407   1_554 S
C505   C514    1.412   .     A
C505   C1226   1.419   .     S
C506   C1225   1.419   1_554 S
C507   C516    1.447   .     S
C507   N694    1.156   1_455 S
C508   C517    1.441   .     S
C508   N615    1.156   .     S
C509   N536    1.155   .     T
C510   N537    1.158   .     T
C511   N538    1.157   .     T
C511   C520    1.452   .     S
C512   N539    1.158   .     T
C513   N540    1.157   .     T
C514   C517    1.398   .     A
C514   O546    1.381   .     S
C515   N532    1.158   .     T
C516   C1222   1.407   1_554 S
C517   C1224   1.407   .     S
C518   O547    1.384   .     S
C518   C40     1.394   1_565 S
C519   O548    1.383   .     S
H521   O558    0.989   .     S
H522   O550    0.988   .     S
H523   O542    0.990   .     S
H524   O1263   0.992   .     S
H525   O1264   0.991   1_554 S
H526   O545    0.990   .     S
H527   O546    0.992   .     S
H528   O547    0.989   .     S
H529   O548    0.991   .     S
H530   O549    0.989   .     S
N531   Zn559   2.029   .     S
N533   Zn560   2.029   .     S
N534   C587    1.156   .     S
N535   C668    1.156   1_455 S
O541   Zn559   2.008   .     S
O543   H1244   0.992   1_554 S
O543   C1214   1.376   1_554 S
O544   H1245   0.991   .     S
O544   C1215   1.379   .     S
O551   Zn560   2.008   .     S
O552   Zn560   2.019   .     S
O553   Zn559   2.019   .     S
O554   Zn559   1.921   .     S
O555   Zn560   1.921   .     S
O556   Zn560   1.930   .     S
O557   Zn559   1.930   .     S
C561   O632    1.294   .     A
C561   O621    1.290   .     A
C561   C564    1.432   .     S
C562   C592    1.455   .     S
C562   C564    1.406   .     A
C562   C119    1.382   1_565 S
C563   C572    1.444   .     S
C563   C599    1.409   .     A
C563   C600    1.414   .     A
C564   C598    1.405   .     A
C565   N613    1.372   .     A
C565   C593    1.441   .     S
C565   C647    1.440   .     S
C566   C595    1.441   .     S
C566   N611    1.374   .     A
C567   O629    1.376   .     S
C567   N611    1.365   .     A
C568   N613    1.365   .     A
C568   O630    1.379   .     S
C568   C646    1.441   .     S
C569   O636    1.300   .     A
C569   C571    1.492   .     S
C569   O634    1.315   .     A
C570   O635    1.305   .     A
C570   O637    1.299   .     A
C570   C573    1.474   .     S
C571   C578    1.424   .     A
C571   C576    1.407   .     A
C572   O633    1.293   .     A
C572   O631    1.297   .     A
C573   C579    1.411   .     A
C573   C577    1.422   .     A
C574   C576    1.404   .     A
C574   C582    1.404   .     A
C574   O1343   1.376   .     S
C575   C584    1.404   .     A
C575   C577    1.422   .     A
C575   O1344   1.379   1_554 S
C576   O622    1.374   .     S
C577   O638    1.383   .     S
C578   C590    1.452   .     S
C578   C580    1.428   .     A
C579   C581    1.393   .     A
C579   C589    1.444   .     S
C580   C585    1.429   .     A
C580   C582    1.413   .     A
C581   C586    1.429   .     A
C581   C584    1.402   .     A
C582   C1316   1.407   .     S
C583   C586    1.415   .     A
C583   O625    1.377   .     S
C583   C596    1.407   .     A
C584   C1317   1.407   1_554 S
C585   C594    1.412   .     A
C585   C1306   1.419   .     S
C586   C1305   1.419   1_554 S
C587   C596    1.447   .     S
C588   C597    1.441   .     S
C588   N695    1.156   .     S
C589   N616    1.155   .     T
C590   N617    1.158   .     T
C591   N618    1.157   .     T
C591   C600    1.452   .     S
C592   N619    1.158   .     T
C593   N620    1.157   .     T
C594   C597    1.398   .     A
C594   O626    1.381   .     S
C595   N612    1.158   .     T
C596   C1302   1.407   1_554 S
C597   C1304   1.407   .     S
C598   O627    1.384   .     S
C598   C120    1.394   1_565 S
C599   O628    1.383   .     S
H601   O638    0.989   .     S
H602   O630    0.988   .     S
H603   O622    0.990   .     S
H604   O1343   0.992   .     S
H605   O1344   0.991   1_554 S
H606   O625    0.990   .     S
H607   O626    0.992   .     S
H608   O627    0.989   .     S
H609   O628    0.991   .     S
H610   O629    0.989   .     S
N611   Zn639   2.029   .     S
N613   Zn640   2.029   .     S
N614   C667    1.156   .     S
O621   Zn639   2.008   .     S
O623   H1324   0.992   1_554 S
O623   C1294   1.376   1_554 S
O624   H1325   0.991   .     S
O624   C1295   1.379   .     S
O631   Zn640   2.008   .     S
O632   Zn640   2.019   .     S
O633   Zn639   2.019   .     S
O634   Zn639   1.921   .     S
O635   Zn640   1.921   .     S
O636   Zn640   1.930   .     S
O637   Zn639   1.930   .     S
C641   O712    1.294   .     A
C641   O701    1.290   .     A
C641   C644    1.432   .     S
C642   C672    1.455   .     S
C642   C644    1.406   .     A
C642   C199    1.382   1_565 S
C643   C652    1.444   .     S
C643   C679    1.409   .     A
C643   C680    1.414   .     A
C644   C678    1.405   .     A
C645   N693    1.372   .     A
C645   C673    1.441   .     S
C645   C487    1.440   1_655 S
C646   C675    1.441   .     S
C646   N691    1.374   .     A
C647   O709    1.376   .     S
C647   N691    1.365   .     A
C648   N693    1.365   .     A
C648   O710    1.379   .     S
C648   C486    1.441   1_655 S
C649   O716    1.300   .     A
C649   C651    1.492   .     S
C649   O714    1.315   .     A
C650   O715    1.305   .     A
C650   O717    1.299   .     A
C650   C653    1.474   .     S
C651   C658    1.424   .     A
C651   C656    1.407   .     A
C652   O713    1.293   .     A
C652   O711    1.297   .     A
C653   C659    1.411   .     A
C653   C657    1.422   .     A
C654   C656    1.404   .     A
C654   C662    1.404   .     A
C654   O1423   1.376   .     S
C655   C664    1.404   .     A
C655   C657    1.422   .     A
C655   O1424   1.379   1_554 S
C656   O702    1.374   .     S
C657   O718    1.383   .     S
C658   C670    1.452   .     S
C658   C660    1.428   .     A
C659   C661    1.393   .     A
C659   C669    1.444   .     S
C660   C665    1.429   .     A
C660   C662    1.413   .     A
C661   C666    1.429   .     A
C661   C664    1.402   .     A
C662   C1396   1.407   .     S
C663   C666    1.415   .     A
C663   O705    1.377   .     S
C663   C676    1.407   .     A
C664   C1397   1.407   1_554 S
C665   C674    1.412   .     A
C665   C1386   1.419   .     S
C666   C1385   1.419   1_554 S
C667   C676    1.447   .     S
C668   C677    1.441   .     S
C668   N535    1.156   1_655 S
C669   N696    1.155   .     T
C670   N697    1.158   .     T
C671   N698    1.157   .     T
C671   C680    1.452   .     S
C672   N699    1.158   .     T
C673   N700    1.157   .     T
C674   C677    1.398   .     A
C674   O706    1.381   .     S
C675   N692    1.158   .     T
C676   C1382   1.407   1_554 S
C677   C1384   1.407   .     S
C678   O707    1.384   .     S
C678   C200    1.394   1_565 S
C679   O708    1.383   .     S
H681   O718    0.989   .     S
H682   O710    0.988   .     S
H683   O702    0.990   .     S
H684   O1423   0.992   .     S
H685   O1424   0.991   1_554 S
H686   O705    0.990   .     S
H687   O706    0.992   .     S
H688   O707    0.989   .     S
H689   O708    0.991   .     S
H690   O709    0.989   .     S
N691   Zn719   2.029   .     S
N693   Zn720   2.029   .     S
N694   C507    1.156   1_655 S
O701   Zn719   2.008   .     S
O703   H1404   0.992   1_554 S
O703   C1374   1.376   1_554 S
O704   H1405   0.991   .     S
O704   C1375   1.379   .     S
O711   Zn720   2.008   .     S
O712   Zn720   2.019   .     S
O713   Zn719   2.019   .     S
O714   Zn719   1.921   .     S
O715   Zn720   1.921   .     S
O716   Zn720   1.930   .     S
O717   Zn719   1.930   .     S
C721   O792    1.294   .     A
C721   O781    1.290   .     A
C721   C724    1.432   .     S
C722   C752    1.455   .     S
C722   C724    1.406   .     A
C722   C999    1.382   .     S
C723   C732    1.444   .     S
C723   C759    1.409   .     A
C723   C760    1.414   .     A
C724   C758    1.405   .     A
C725   N773    1.372   .     A
C725   C753    1.441   .     S
C725   C807    1.440   .     S
C726   C755    1.441   .     S
C726   N771    1.374   .     A
C726   C888    1.441   1_455 S
C727   O789    1.376   .     S
C727   N771    1.365   .     A
C727   C885    1.440   1_455 S
C728   N773    1.365   .     A
C728   O790    1.379   .     S
C728   C806    1.441   .     S
C729   O796    1.300   .     A
C729   C731    1.492   .     S
C729   O794    1.315   .     A
C730   O795    1.305   .     A
C730   O797    1.299   .     A
C730   C733    1.474   .     S
C731   C738    1.424   .     A
C731   C736    1.407   .     A
C732   O793    1.293   .     A
C732   O791    1.297   .     A
C733   C739    1.411   .     A
C733   C737    1.422   .     A
C734   C736    1.404   .     A
C734   C742    1.404   .     A
C734   O63     1.376   1_556 S
C735   C744    1.404   .     A
C735   C737    1.422   .     A
C736   O782    1.374   .     S
C737   O798    1.383   .     S
C738   C750    1.452   .     S
C738   C740    1.428   .     A
C739   C741    1.393   .     A
C739   C749    1.444   .     S
C740   C745    1.429   .     A
C740   C742    1.413   .     A
C741   C746    1.429   .     A
C741   C744    1.402   .     A
C742   C36     1.407   1_556 S
C743   C746    1.415   .     A
C743   O785    1.377   .     S
C743   C756    1.407   .     A
C745   C754    1.412   .     A
C745   C26     1.419   1_556 S
C747   C756    1.447   .     S
C747   N934    1.156   1_455 S
C748   C757    1.441   .     S
C748   N855    1.156   .     S
C749   N776    1.155   .     T
C750   N777    1.158   .     T
C751   N778    1.157   .     T
C751   C760    1.452   .     S
C752   N779    1.158   .     T
C753   N780    1.157   .     T
C754   C757    1.398   .     A
C754   O786    1.381   .     S
C755   N772    1.158   .     T
C757   C24     1.407   1_556 S
C758   O787    1.384   .     S
C758   C1000   1.394   .     S
C759   O788    1.383   .     S
C759   C1202   1.382   1_545 S
C760   C1238   1.394   1_545 S
H761   O798    0.989   .     S
H762   O790    0.988   .     S
H763   O782    0.990   .     S
H764   O63     0.992   1_556 S
H766   O785    0.990   .     S
H767   O786    0.992   .     S
H768   O787    0.989   .     S
H769   O788    0.991   .     S
H770   O789    0.989   .     S
N771   Zn799   2.029   .     S
N773   Zn800   2.029   .     S
N774   C827    1.156   .     S
N775   C908    1.156   1_455 S
O781   Zn799   2.008   .     S
O784   H45     0.991   1_556 S
O784   C15     1.379   1_556 S
O791   Zn800   2.008   .     S
O792   Zn800   2.019   .     S
O793   Zn799   2.019   .     S
O794   Zn799   1.921   .     S
O795   Zn800   1.921   .     S
O796   Zn800   1.930   .     S
O797   Zn799   1.930   .     S
C801   O872    1.294   .     A
C801   O861    1.290   .     A
C801   C804    1.432   .     S
C802   C832    1.455   .     S
C802   C804    1.406   .     A
C802   C1079   1.382   .     S
C803   C812    1.444   .     S
C803   C839    1.409   .     A
C803   C840    1.414   .     A
C804   C838    1.405   .     A
C805   N853    1.372   .     A
C805   C833    1.441   .     S
C805   C887    1.440   .     S
C806   C835    1.441   .     S
C806   N851    1.374   .     A
C807   O869    1.376   .     S
C807   N851    1.365   .     A
C808   N853    1.365   .     A
C808   O870    1.379   .     S
C808   C886    1.441   .     S
C809   O876    1.300   .     A
C809   C811    1.492   .     S
C809   O874    1.315   .     A
C810   O875    1.305   .     A
C810   O877    1.299   .     A
C810   C813    1.474   .     S
C811   C818    1.424   .     A
C811   C816    1.407   .     A
C812   O873    1.293   .     A
C812   O871    1.297   .     A
C813   C819    1.411   .     A
C813   C817    1.422   .     A
C814   C816    1.404   .     A
C814   C822    1.404   .     A
C814   O143    1.376   1_556 S
C815   C824    1.404   .     A
C815   C817    1.422   .     A
C816   O862    1.374   .     S
C817   O878    1.383   .     S
C818   C830    1.452   .     S
C818   C820    1.428   .     A
C819   C821    1.393   .     A
C819   C829    1.444   .     S
C820   C825    1.429   .     A
C820   C822    1.413   .     A
C821   C826    1.429   .     A
C821   C824    1.402   .     A
C822   C116    1.407   1_556 S
C823   C826    1.415   .     A
C823   O865    1.377   .     S
C823   C836    1.407   .     A
C825   C834    1.412   .     A
C825   C106    1.419   1_556 S
C827   C836    1.447   .     S
C828   C837    1.441   .     S
C828   N935    1.156   .     S
C829   N856    1.155   .     T
C830   N857    1.158   .     T
C831   N858    1.157   .     T
C831   C840    1.452   .     S
C832   N859    1.158   .     T
C833   N860    1.157   .     T
C834   C837    1.398   .     A
C834   O866    1.381   .     S
C835   N852    1.158   .     T
C837   C104    1.407   1_556 S
C838   O867    1.384   .     S
C838   C1080   1.394   .     S
C839   O868    1.383   .     S
C839   C1282   1.382   1_545 S
C840   C1318   1.394   1_545 S
H841   O878    0.989   .     S
H842   O870    0.988   .     S
H843   O862    0.990   .     S
H844   O143    0.992   1_556 S
H846   O865    0.990   .     S
H847   O866    0.992   .     S
H848   O867    0.989   .     S
H849   O868    0.991   .     S
H850   O869    0.989   .     S
N851   Zn879   2.029   .     S
N853   Zn880   2.029   .     S
N854   C907    1.156   .     S
O861   Zn879   2.008   .     S
O864   H125    0.991   1_556 S
O864   C95     1.379   1_556 S
O871   Zn880   2.008   .     S
O872   Zn880   2.019   .     S
O873   Zn879   2.019   .     S
O874   Zn879   1.921   .     S
O875   Zn880   1.921   .     S
O876   Zn880   1.930   .     S
O877   Zn879   1.930   .     S
C881   O952    1.294   .     A
C881   O941    1.290   .     A
C881   C884    1.432   .     S
C882   C912    1.455   .     S
C882   C884    1.406   .     A
C882   C1159   1.382   .     S
C883   C892    1.444   .     S
C883   C919    1.409   .     A
C883   C920    1.414   .     A
C884   C918    1.405   .     A
C885   N933    1.372   .     A
C885   C913    1.441   .     S
C885   C727    1.440   1_655 S
C886   C915    1.441   .     S
C886   N931    1.374   .     A
C887   O949    1.376   .     S
C887   N931    1.365   .     A
C888   N933    1.365   .     A
C888   O950    1.379   .     S
C888   C726    1.441   1_655 S
C889   O956    1.300   .     A
C889   C891    1.492   .     S
C889   O954    1.315   .     A
C890   O955    1.305   .     A
C890   O957    1.299   .     A
C890   C893    1.474   .     S
C891   C898    1.424   .     A
C891   C896    1.407   .     A
C892   O953    1.293   .     A
C892   O951    1.297   .     A
C893   C899    1.411   .     A
C893   C897    1.422   .     A
C894   C896    1.404   .     A
C894   C902    1.404   .     A
C894   O223    1.376   1_556 S
C895   C904    1.404   .     A
C895   C897    1.422   .     A
C896   O942    1.374   .     S
C897   O958    1.383   .     S
C898   C910    1.452   .     S
C898   C900    1.428   .     A
C899   C901    1.393   .     A
C899   C909    1.444   .     S
C900   C905    1.429   .     A
C900   C902    1.413   .     A
C901   C906    1.429   .     A
C901   C904    1.402   .     A
C902   C196    1.407   1_556 S
C903   C906    1.415   .     A
C903   O945    1.377   .     S
C903   C916    1.407   .     A
C905   C914    1.412   .     A
C905   C186    1.419   1_556 S
C907   C916    1.447   .     S
C908   C917    1.441   .     S
C908   N775    1.156   1_655 S
C909   N936    1.155   .     T
C910   N937    1.158   .     T
C911   N938    1.157   .     T
C911   C920    1.452   .     S
C912   N939    1.158   .     T
C913   N940    1.157   .     T
C914   C917    1.398   .     A
C914   O946    1.381   .     S
C915   N932    1.158   .     T
C917   C184    1.407   1_556 S
C918   O947    1.384   .     S
C918   C1160   1.394   .     S
C919   O948    1.383   .     S
C919   C1362   1.382   1_545 S
C920   C1398   1.394   1_545 S
H921   O958    0.989   .     S
H922   O950    0.988   .     S
H923   O942    0.990   .     S
H924   O223    0.992   1_556 S
H926   O945    0.990   .     S
H927   O946    0.992   .     S
H928   O947    0.989   .     S
H929   O948    0.991   .     S
H930   O949    0.989   .     S
N931   Zn959   2.029   .     S
N933   Zn960   2.029   .     S
N934   C747    1.156   1_655 S
O941   Zn959   2.008   .     S
O944   H205    0.991   1_556 S
O944   C175    1.379   1_556 S
O951   Zn960   2.008   .     S
O952   Zn960   2.019   .     S
O953   Zn959   2.019   .     S
O954   Zn959   1.921   .     S
O955   Zn960   1.921   .     S
O956   Zn960   1.930   .     S
O957   Zn959   1.930   .     S
C961   O1032   1.294   .     A
C961   O1021   1.290   .     A
C961   C964    1.432   .     S
C962   C992    1.455   .     S
C962   C964    1.406   .     A
C962   C1239   1.382   .     S
C963   C972    1.444   .     S
C963   C999    1.409   .     A
C963   C1000   1.414   .     A
C964   C998    1.405   .     A
C965   N1013   1.372   .     A
C965   C993    1.441   .     S
C965   C1047   1.440   .     S
C966   C995    1.441   .     S
C966   N1011   1.374   .     A
C966   C1128   1.441   1_455 S
C967   O1029   1.376   .     S
C967   N1011   1.365   .     A
C967   C1125   1.440   1_455 S
C968   N1013   1.365   .     A
C968   O1030   1.379   .     S
C968   C1046   1.441   .     S
C969   O1036   1.300   .     A
C969   C971    1.492   .     S
C969   O1034   1.315   .     A
C970   O1035   1.305   .     A
C970   O1037   1.299   .     A
C970   C973    1.474   .     S
C971   C978    1.424   .     A
C971   C976    1.407   .     A
C972   O1033   1.293   .     A
C972   O1031   1.297   .     A
C973   C979    1.411   .     A
C973   C977    1.422   .     A
C974   C976    1.404   .     A
C974   C982    1.404   .     A
C974   O303    1.376   1_556 S
C975   C984    1.404   .     A
C975   C977    1.422   .     A
C976   O1022   1.374   .     S
C977   O1038   1.383   .     S
C978   C990    1.452   .     S
C978   C980    1.428   .     A
C979   C981    1.393   .     A
C979   C989    1.444   .     S
C980   C985    1.429   .     A
C980   C982    1.413   .     A
C981   C986    1.429   .     A
C981   C984    1.402   .     A
C982   C276    1.407   1_556 S
C983   C986    1.415   .     A
C983   O1025   1.377   .     S
C983   C996    1.407   .     A
C985   C994    1.412   .     A
C985   C266    1.419   1_556 S
C987   C996    1.447   .     S
C987   N1174   1.156   1_455 S
C988   C997    1.441   .     S
C988   N1095   1.156   .     S
C989   N1016   1.155   .     T
C990   N1017   1.158   .     T
C991   N1018   1.157   .     T
C991   C1000   1.452   .     S
C992   N1019   1.158   .     T
C993   N1020   1.157   .     T
C994   C997    1.398   .     A
C994   O1026   1.381   .     S
C995   N1012   1.158   .     T
C997   C264    1.407   1_556 S
C998   O1027   1.384   .     S
C998   C1240   1.394   .     S
C999   O1028   1.383   .     S
H1001  O1038   0.989   .     S
H1002  O1030   0.988   .     S
H1003  O1022   0.990   .     S
H1004  O303    0.992   1_556 S
H1006  O1025   0.990   .     S
H1007  O1026   0.992   .     S
H1008  O1027   0.989   .     S
H1009  O1028   0.991   .     S
H1010  O1029   0.989   .     S
N1011  Zn1039  2.029   .     S
N1013  Zn1040  2.029   .     S
N1014  C1067   1.156   .     S
N1015  C1148   1.156   1_455 S
O1021  Zn1039  2.008   .     S
O1024  H285    0.991   1_556 S
O1024  C255    1.379   1_556 S
O1031  Zn1040  2.008   .     S
O1032  Zn1040  2.019   .     S
O1033  Zn1039  2.019   .     S
O1034  Zn1039  1.921   .     S
O1035  Zn1040  1.921   .     S
O1036  Zn1040  1.930   .     S
O1037  Zn1039  1.930   .     S
C1041  O1112   1.294   .     A
C1041  O1101   1.290   .     A
C1041  C1044   1.432   .     S
C1042  C1072   1.455   .     S
C1042  C1044   1.406   .     A
C1042  C1319   1.382   .     S
C1043  C1052   1.444   .     S
C1043  C1079   1.409   .     A
C1043  C1080   1.414   .     A
C1044  C1078   1.405   .     A
C1045  N1093   1.372   .     A
C1045  C1073   1.441   .     S
C1045  C1127   1.440   .     S
C1046  C1075   1.441   .     S
C1046  N1091   1.374   .     A
C1047  O1109   1.376   .     S
C1047  N1091   1.365   .     A
C1048  N1093   1.365   .     A
C1048  O1110   1.379   .     S
C1048  C1126   1.441   .     S
C1049  O1116   1.300   .     A
C1049  C1051   1.492   .     S
C1049  O1114   1.315   .     A
C1050  O1115   1.305   .     A
C1050  O1117   1.299   .     A
C1050  C1053   1.474   .     S
C1051  C1058   1.424   .     A
C1051  C1056   1.407   .     A
C1052  O1113   1.293   .     A
C1052  O1111   1.297   .     A
C1053  C1059   1.411   .     A
C1053  C1057   1.422   .     A
C1054  C1056   1.404   .     A
C1054  C1062   1.404   .     A
C1054  O383    1.376   1_556 S
C1055  C1064   1.404   .     A
C1055  C1057   1.422   .     A
C1056  O1102   1.374   .     S
C1057  O1118   1.383   .     S
C1058  C1070   1.452   .     S
C1058  C1060   1.428   .     A
C1059  C1061   1.393   .     A
C1059  C1069   1.444   .     S
C1060  C1065   1.429   .     A
C1060  C1062   1.413   .     A
C1061  C1066   1.429   .     A
C1061  C1064   1.402   .     A
C1062  C356    1.407   1_556 S
C1063  C1066   1.415   .     A
C1063  O1105   1.377   .     S
C1063  C1076   1.407   .     A
C1065  C1074   1.412   .     A
C1065  C346    1.419   1_556 S
C1067  C1076   1.447   .     S
C1068  C1077   1.441   .     S
C1068  N1175   1.156   .     S
C1069  N1096   1.155   .     T
C1070  N1097   1.158   .     T
C1071  N1098   1.157   .     T
C1071  C1080   1.452   .     S
C1072  N1099   1.158   .     T
C1073  N1100   1.157   .     T
C1074  C1077   1.398   .     A
C1074  O1106   1.381   .     S
C1075  N1092   1.158   .     T
C1077  C344    1.407   1_556 S
C1078  O1107   1.384   .     S
C1078  C1320   1.394   .     S
C1079  O1108   1.383   .     S
H1081  O1118   0.989   .     S
H1082  O1110   0.988   .     S
H1083  O1102   0.990   .     S
H1084  O383    0.992   1_556 S
H1086  O1105   0.990   .     S
H1087  O1106   0.992   .     S
H1088  O1107   0.989   .     S
H1089  O1108   0.991   .     S
H1090  O1109   0.989   .     S
N1091  Zn1119  2.029   .     S
N1093  Zn1120  2.029   .     S
N1094  C1147   1.156   .     S
O1101  Zn1119  2.008   .     S
O1104  H365    0.991   1_556 S
O1104  C335    1.379   1_556 S
O1111  Zn1120  2.008   .     S
O1112  Zn1120  2.019   .     S
O1113  Zn1119  2.019   .     S
O1114  Zn1119  1.921   .     S
O1115  Zn1120  1.921   .     S
O1116  Zn1120  1.930   .     S
O1117  Zn1119  1.930   .     S
C1121  O1192   1.294   .     A
C1121  O1181   1.290   .     A
C1121  C1124   1.432   .     S
C1122  C1152   1.455   .     S
C1122  C1124   1.406   .     A
C1122  C1399   1.382   .     S
C1123  C1132   1.444   .     S
C1123  C1159   1.409   .     A
C1123  C1160   1.414   .     A
C1124  C1158   1.405   .     A
C1125  N1173   1.372   .     A
C1125  C1153   1.441   .     S
C1125  C967    1.440   1_655 S
C1126  C1155   1.441   .     S
C1126  N1171   1.374   .     A
C1127  O1189   1.376   .     S
C1127  N1171   1.365   .     A
C1128  N1173   1.365   .     A
C1128  O1190   1.379   .     S
C1128  C966    1.441   1_655 S
C1129  O1196   1.300   .     A
C1129  C1131   1.492   .     S
C1129  O1194   1.315   .     A
C1130  O1195   1.305   .     A
C1130  O1197   1.299   .     A
C1130  C1133   1.474   .     S
C1131  C1138   1.424   .     A
C1131  C1136   1.407   .     A
C1132  O1193   1.293   .     A
C1132  O1191   1.297   .     A
C1133  C1139   1.411   .     A
C1133  C1137   1.422   .     A
C1134  C1136   1.404   .     A
C1134  C1142   1.404   .     A
C1134  O463    1.376   1_556 S
C1135  C1144   1.404   .     A
C1135  C1137   1.422   .     A
C1136  O1182   1.374   .     S
C1137  O1198   1.383   .     S
C1138  C1150   1.452   .     S
C1138  C1140   1.428   .     A
C1139  C1141   1.393   .     A
C1139  C1149   1.444   .     S
C1140  C1145   1.429   .     A
C1140  C1142   1.413   .     A
C1141  C1146   1.429   .     A
C1141  C1144   1.402   .     A
C1142  C436    1.407   1_556 S
C1143  C1146   1.415   .     A
C1143  O1185   1.377   .     S
C1143  C1156   1.407   .     A
C1145  C1154   1.412   .     A
C1145  C426    1.419   1_556 S
C1147  C1156   1.447   .     S
C1148  C1157   1.441   .     S
C1148  N1015   1.156   1_655 S
C1149  N1176   1.155   .     T
C1150  N1177   1.158   .     T
C1151  N1178   1.157   .     T
C1151  C1160   1.452   .     S
C1152  N1179   1.158   .     T
C1153  N1180   1.157   .     T
C1154  C1157   1.398   .     A
C1154  O1186   1.381   .     S
C1155  N1172   1.158   .     T
C1157  C424    1.407   1_556 S
C1158  O1187   1.384   .     S
C1158  C1400   1.394   .     S
C1159  O1188   1.383   .     S
H1161  O1198   0.989   .     S
H1162  O1190   0.988   .     S
H1163  O1182   0.990   .     S
H1164  O463    0.992   1_556 S
H1166  O1185   0.990   .     S
H1167  O1186   0.992   .     S
H1168  O1187   0.989   .     S
H1169  O1188   0.991   .     S
H1170  O1189   0.989   .     S
N1171  Zn1199  2.029   .     S
N1173  Zn1200  2.029   .     S
N1174  C987    1.156   1_655 S
O1181  Zn1199  2.008   .     S
O1184  H445    0.991   1_556 S
O1184  C415    1.379   1_556 S
O1191  Zn1200  2.008   .     S
O1192  Zn1200  2.019   .     S
O1193  Zn1199  2.019   .     S
O1194  Zn1199  1.921   .     S
O1195  Zn1200  1.921   .     S
O1196  Zn1200  1.930   .     S
O1197  Zn1199  1.930   .     S
C1201  O1272   1.294   .     A
C1201  O1261   1.290   .     A
C1201  C1204   1.432   .     S
C1202  C1232   1.455   .     S
C1202  C1204   1.406   .     A
C1202  C759    1.382   1_565 S
C1203  C1212   1.444   .     S
C1203  C1239   1.409   .     A
C1203  C1240   1.414   .     A
C1204  C1238   1.405   .     A
C1205  N1253   1.372   .     A
C1205  C1233   1.441   .     S
C1205  C1287   1.440   .     S
C1206  C1235   1.441   .     S
C1206  N1251   1.374   .     A
C1206  C1368   1.441   1_455 S
C1207  O1269   1.376   .     S
C1207  N1251   1.365   .     A
C1207  C1365   1.440   1_455 S
C1208  N1253   1.365   .     A
C1208  O1270   1.379   .     S
C1208  C1286   1.441   .     S
C1209  O1276   1.300   .     A
C1209  C1211   1.492   .     S
C1209  O1274   1.315   .     A
C1210  O1275   1.305   .     A
C1210  O1277   1.299   .     A
C1210  C1213   1.474   .     S
C1211  C1218   1.424   .     A
C1211  C1216   1.407   .     A
C1212  O1273   1.293   .     A
C1212  O1271   1.297   .     A
C1213  C1219   1.411   .     A
C1213  C1217   1.422   .     A
C1214  C1216   1.404   .     A
C1214  C1222   1.404   .     A
C1214  O543    1.376   1_556 S
C1215  C1224   1.404   .     A
C1215  C1217   1.422   .     A
C1216  O1262   1.374   .     S
C1217  O1278   1.383   .     S
C1218  C1230   1.452   .     S
C1218  C1220   1.428   .     A
C1219  C1221   1.393   .     A
C1219  C1229   1.444   .     S
C1220  C1225   1.429   .     A
C1220  C1222   1.413   .     A
C1221  C1226   1.429   .     A
C1221  C1224   1.402   .     A
C1222  C516    1.407   1_556 S
C1223  C1226   1.415   .     A
C1223  O1265   1.377   .     S
C1223  C1236   1.407   .     A
C1225  C1234   1.412   .     A
C1225  C506    1.419   1_556 S
C1227  C1236   1.447   .     S
C1227  N1414   1.156   1_455 S
C1228  C1237   1.441   .     S
C1228  N1335   1.156   .     S
C1229  N1256   1.155   .     T
C1230  N1257   1.158   .     T
C1231  N1258   1.157   .     T
C1231  C1240   1.452   .     S
C1232  N1259   1.158   .     T
C1233  N1260   1.157   .     T
C1234  C1237   1.398   .     A
C1234  O1266   1.381   .     S
C1235  N1252   1.158   .     T
C1237  C504    1.407   1_556 S
C1238  O1267   1.384   .     S
C1238  C760    1.394   1_565 S
C1239  O1268   1.383   .     S
H1241  O1278   0.989   .     S
H1242  O1270   0.988   .     S
H1243  O1262   0.990   .     S
H1244  O543    0.992   1_556 S
H1246  O1265   0.990   .     S
H1247  O1266   0.992   .     S
H1248  O1267   0.989   .     S
H1249  O1268   0.991   .     S
H1250  O1269   0.989   .     S
N1251  Zn1279  2.029   .     S
N1253  Zn1280  2.029   .     S
N1254  C1307   1.156   .     S
N1255  C1388   1.156   1_455 S
O1261  Zn1279  2.008   .     S
O1264  H525    0.991   1_556 S
O1264  C495    1.379   1_556 S
O1271  Zn1280  2.008   .     S
O1272  Zn1280  2.019   .     S
O1273  Zn1279  2.019   .     S
O1274  Zn1279  1.921   .     S
O1275  Zn1280  1.921   .     S
O1276  Zn1280  1.930   .     S
O1277  Zn1279  1.930   .     S
C1281  O1352   1.294   .     A
C1281  O1341   1.290   .     A
C1281  C1284   1.432   .     S
C1282  C1312   1.455   .     S
C1282  C1284   1.406   .     A
C1282  C839    1.382   1_565 S
C1283  C1292   1.444   .     S
C1283  C1319   1.409   .     A
C1283  C1320   1.414   .     A
C1284  C1318   1.405   .     A
C1285  N1333   1.372   .     A
C1285  C1313   1.441   .     S
C1285  C1367   1.440   .     S
C1286  C1315   1.441   .     S
C1286  N1331   1.374   .     A
C1287  O1349   1.376   .     S
C1287  N1331   1.365   .     A
C1288  N1333   1.365   .     A
C1288  O1350   1.379   .     S
C1288  C1366   1.441   .     S
C1289  O1356   1.300   .     A
C1289  C1291   1.492   .     S
C1289  O1354   1.315   .     A
C1290  O1355   1.305   .     A
C1290  O1357   1.299   .     A
C1290  C1293   1.474   .     S
C1291  C1298   1.424   .     A
C1291  C1296   1.407   .     A
C1292  O1353   1.293   .     A
C1292  O1351   1.297   .     A
C1293  C1299   1.411   .     A
C1293  C1297   1.422   .     A
C1294  C1296   1.404   .     A
C1294  C1302   1.404   .     A
C1294  O623    1.376   1_556 S
C1295  C1304   1.404   .     A
C1295  C1297   1.422   .     A
C1296  O1342   1.374   .     S
C1297  O1358   1.383   .     S
C1298  C1310   1.452   .     S
C1298  C1300   1.428   .     A
C1299  C1301   1.393   .     A
C1299  C1309   1.444   .     S
C1300  C1305   1.429   .     A
C1300  C1302   1.413   .     A
C1301  C1306   1.429   .     A
C1301  C1304   1.402   .     A
C1302  C596    1.407   1_556 S
C1303  C1306   1.415   .     A
C1303  O1345   1.377   .     S
C1303  C1316   1.407   .     A
C1305  C1314   1.412   .     A
C1305  C586    1.419   1_556 S
C1307  C1316   1.447   .     S
C1308  C1317   1.441   .     S
C1308  N1415   1.156   .     S
C1309  N1336   1.155   .     T
C1310  N1337   1.158   .     T
C1311  N1338   1.157   .     T
C1311  C1320   1.452   .     S
C1312  N1339   1.158   .     T
C1313  N1340   1.157   .     T
C1314  C1317   1.398   .     A
C1314  O1346   1.381   .     S
C1315  N1332   1.158   .     T
C1317  C584    1.407   1_556 S
C1318  O1347   1.384   .     S
C1318  C840    1.394   1_565 S
C1319  O1348   1.383   .     S
H1321  O1358   0.989   .     S
H1322  O1350   0.988   .     S
H1323  O1342   0.990   .     S
H1324  O623    0.992   1_556 S
H1326  O1345   0.990   .     S
H1327  O1346   0.992   .     S
H1328  O1347   0.989   .     S
H1329  O1348   0.991   .     S
H1330  O1349   0.989   .     S
N1331  Zn1359  2.029   .     S
N1333  Zn1360  2.029   .     S
N1334  C1387   1.156   .     S
O1341  Zn1359  2.008   .     S
O1344  H605    0.991   1_556 S
O1344  C575    1.379   1_556 S
O1351  Zn1360  2.008   .     S
O1352  Zn1360  2.019   .     S
O1353  Zn1359  2.019   .     S
O1354  Zn1359  1.921   .     S
O1355  Zn1360  1.921   .     S
O1356  Zn1360  1.930   .     S
O1357  Zn1359  1.930   .     S
C1361  O1432   1.294   .     A
C1361  O1421   1.290   .     A
C1361  C1364   1.432   .     S
C1362  C1392   1.455   .     S
C1362  C1364   1.406   .     A
C1362  C919    1.382   1_565 S
C1363  C1372   1.444   .     S
C1363  C1399   1.409   .     A
C1363  C1400   1.414   .     A
C1364  C1398   1.405   .     A
C1365  N1413   1.372   .     A
C1365  C1393   1.441   .     S
C1365  C1207   1.440   1_655 S
C1366  C1395   1.441   .     S
C1366  N1411   1.374   .     A
C1367  O1429   1.376   .     S
C1367  N1411   1.365   .     A
C1368  N1413   1.365   .     A
C1368  O1430   1.379   .     S
C1368  C1206   1.441   1_655 S
C1369  O1436   1.300   .     A
C1369  C1371   1.492   .     S
C1369  O1434   1.315   .     A
C1370  O1435   1.305   .     A
C1370  O1437   1.299   .     A
C1370  C1373   1.474   .     S
C1371  C1378   1.424   .     A
C1371  C1376   1.407   .     A
C1372  O1433   1.293   .     A
C1372  O1431   1.297   .     A
C1373  C1379   1.411   .     A
C1373  C1377   1.422   .     A
C1374  C1376   1.404   .     A
C1374  C1382   1.404   .     A
C1374  O703    1.376   1_556 S
C1375  C1384   1.404   .     A
C1375  C1377   1.422   .     A
C1376  O1422   1.374   .     S
C1377  O1438   1.383   .     S
C1378  C1390   1.452   .     S
C1378  C1380   1.428   .     A
C1379  C1381   1.393   .     A
C1379  C1389   1.444   .     S
C1380  C1385   1.429   .     A
C1380  C1382   1.413   .     A
C1381  C1386   1.429   .     A
C1381  C1384   1.402   .     A
C1382  C676    1.407   1_556 S
C1383  C1386   1.415   .     A
C1383  O1425   1.377   .     S
C1383  C1396   1.407   .     A
C1385  C1394   1.412   .     A
C1385  C666    1.419   1_556 S
C1387  C1396   1.447   .     S
C1388  C1397   1.441   .     S
C1388  N1255   1.156   1_655 S
C1389  N1416   1.155   .     T
C1390  N1417   1.158   .     T
C1391  N1418   1.157   .     T
C1391  C1400   1.452   .     S
C1392  N1419   1.158   .     T
C1393  N1420   1.157   .     T
C1394  C1397   1.398   .     A
C1394  O1426   1.381   .     S
C1395  N1412   1.158   .     T
C1397  C664    1.407   1_556 S
C1398  O1427   1.384   .     S
C1398  C920    1.394   1_565 S
C1399  O1428   1.383   .     S
H1401  O1438   0.989   .     S
H1402  O1430   0.988   .     S
H1403  O1422   0.990   .     S
H1404  O703    0.992   1_556 S
H1406  O1425   0.990   .     S
H1407  O1426   0.992   .     S
H1408  O1427   0.989   .     S
H1409  O1428   0.991   .     S
H1410  O1429   0.989   .     S
N1411  Zn1439  2.029   .     S
N1413  Zn1440  2.029   .     S
N1414  C1227   1.156   1_655 S
O1421  Zn1439  2.008   .     S
O1424  H685    0.991   1_556 S
O1424  C655    1.379   1_556 S
O1431  Zn1440  2.008   .     S
O1432  Zn1440  2.019   .     S
O1433  Zn1439  2.019   .     S
O1434  Zn1439  1.921   .     S
O1435  Zn1440  1.921   .     S
O1436  Zn1440  1.930   .     S
O1437  Zn1439  1.930   .     S
