data_str_m2_o1_o10_pcu_sym.182
_audit_creation_date              2020-01-03
_audit_creation_method            'Materials Studio'
_symmetry_space_group_name_H-M    'P1'
_symmetry_Int_Tables_number       1
_symmetry_cell_setting            triclinic
loop_
_symmetry_equiv_pos_as_xyz
  x,y,z
_cell_length_a                    26.5172
_cell_length_b                    32.2628
_cell_length_c                    28.7643
_cell_angle_alpha                 91.6316
_cell_angle_beta                  98.5120
_cell_angle_gamma                 92.1308
loop_
_atom_site_label
_atom_site_type_symbol
_atom_site_fract_x
_atom_site_fract_y
_atom_site_fract_z
_atom_site_U_iso_or_equiv
_atom_site_adp_type
_atom_site_occupancy
C1     C     0.16747   0.08752   0.16627   0.00000  Uiso   1.00
C2     C     0.16586   0.24581   0.16707   0.00000  Uiso   1.00
C3     C     0.06810   0.16651   0.15467   0.00000  Uiso   1.00
C4     C     0.26524   0.16682   0.17866   0.00000  Uiso   1.00
C5     C     0.01307   0.16405   0.14806   0.00000  Uiso   1.00
C6     C     0.32026   0.16929   0.18527   0.00000  Uiso   1.00
C7     C     0.12716   0.02013   0.13983   0.00000  Uiso   1.00
C8     C     0.20617   0.31320   0.19350   0.00000  Uiso   1.00
C9     C     0.12520   0.31045   0.14074   0.00000  Uiso   1.00
C10    C     0.20814   0.02289   0.19260   0.00000  Uiso   1.00
C11    C     0.16505   0.29042   0.16771   0.00000  Uiso   1.00
C12    C     0.16829   0.04292   0.16562   0.00000  Uiso   1.00
C13    C     0.13976   0.13596   0.01916   0.00000  Uiso   1.00
C14    C     0.19358   0.19737   0.31417   0.00000  Uiso   1.00
C15    C     0.14117   0.13625   0.30326   0.00000  Uiso   1.00
C16    C     0.19217   0.19709   0.03008   0.00000  Uiso   1.00
Cu17   Cu    0.16667   0.16667   0.21355   0.00000  Uiso   1.00
Cu18   Cu    0.16667   0.16666   0.11978   0.00000  Uiso   1.00
H19    H     0.09604   0.03591   0.12011   0.00000  Uiso   1.00
H20    H     0.23729   0.29742   0.21322   0.00000  Uiso   1.00
H21    H     0.12187   0.11233   0.27962   0.00000  Uiso   1.00
H22    H     0.21146   0.22100   0.05371   0.00000  Uiso   1.00
N23    N     0.16668   0.16668   0.28403   0.00000  Uiso   1.00
N24    N     0.16665   0.16666   0.04931   0.00000  Uiso   1.00
O25    O     0.16666   0.10655   0.20625   0.00000  Uiso   1.00
O26    O     0.16667   0.22678   0.12709   0.00000  Uiso   1.00
O27    O     0.16666   0.10654   0.12706   0.00000  Uiso   1.00
O28    O     0.16667   0.22679   0.20628   0.00000  Uiso   1.00
O29    O     0.09161   0.16667   0.19712   0.00000  Uiso   1.00
O30    O     0.24172   0.16666   0.13621   0.00000  Uiso   1.00
O31    O     0.09161   0.16666   0.11793   0.00000  Uiso   1.00
O32    O     0.24172   0.16667   0.21540   0.00000  Uiso   1.00
I33    I     0.31454   0.14812   0.07585   0.00000  Uiso   1.00
I34    I     0.01879   0.18522   0.25748   0.00000  Uiso   1.00
I35    I     0.05993   0.27779   0.10327   0.00000  Uiso   1.00
I36    I     0.27340   0.05554   0.23006   0.00000  Uiso   1.00
C37    C     0.11083   0.09968   0.03745   0.00000  Uiso   1.00
C38    C     0.06377   0.08165   0.00395   0.00000  Uiso   1.00
C39    C     0.03403   0.04929   0.02796   0.00000  Uiso   1.00
H40    H     0.05735   0.02174   0.03545   0.00000  Uiso   1.00
H41    H     0.02367   0.06199   0.06135   0.00000  Uiso   1.00
H42    H     0.33171   0.03948   0.00438   0.00000  Uiso   1.00
H43    H     0.03820   0.10700   0.32541   0.00000  Uiso   1.00
H44    H     0.07536   0.06565   0.30613   0.00000  Uiso   1.00
H45    H     0.13771   0.07443   0.04600   0.00000  Uiso   1.00
H46    H     0.09605   0.10969   0.06933   0.00000  Uiso   1.00
C47    C     0.22250   0.23366   0.29589   0.00000  Uiso   1.00
C48    C     0.26956   0.25168   0.32938   0.00000  Uiso   1.00
C49    C     0.29930   0.28405   0.30538   0.00000  Uiso   1.00
H50    H     0.30967   0.27135   0.27198   0.00000  Uiso   1.00
H51    H     0.27598   0.31160   0.29788   0.00000  Uiso   1.00
H52    H     0.00163   0.29385   0.32896   0.00000  Uiso   1.00
H53    H     0.25797   0.26768   0.02720   0.00000  Uiso   1.00
H54    H     0.29513   0.22634   0.00793   0.00000  Uiso   1.00
H55    H     0.23728   0.22364   0.26400   0.00000  Uiso   1.00
H56    H     0.19562   0.25890   0.28733   0.00000  Uiso   1.00
C57    C     0.50081   0.08752   0.16627   0.00000  Uiso   1.00
C58    C     0.49919   0.24581   0.16707   0.00000  Uiso   1.00
C59    C     0.40143   0.16651   0.15467   0.00000  Uiso   1.00
C60    C     0.59857   0.16682   0.17866   0.00000  Uiso   1.00
C61    C     0.34640   0.16405   0.14806   0.00000  Uiso   1.00
C62    C     0.65360   0.16929   0.18527   0.00000  Uiso   1.00
C63    C     0.46050   0.02013   0.13983   0.00000  Uiso   1.00
C64    C     0.53950   0.31320   0.19350   0.00000  Uiso   1.00
C65    C     0.45853   0.31045   0.14074   0.00000  Uiso   1.00
C66    C     0.54147   0.02289   0.19260   0.00000  Uiso   1.00
C67    C     0.49838   0.29042   0.16771   0.00000  Uiso   1.00
C68    C     0.50162   0.04292   0.16562   0.00000  Uiso   1.00
C69    C     0.47309   0.13596   0.01916   0.00000  Uiso   1.00
C70    C     0.52691   0.19737   0.31417   0.00000  Uiso   1.00
C71    C     0.47450   0.13625   0.30326   0.00000  Uiso   1.00
C72    C     0.52550   0.19709   0.03008   0.00000  Uiso   1.00
Cu73   Cu    0.50000   0.16667   0.21355   0.00000  Uiso   1.00
Cu74   Cu    0.50000   0.16666   0.11978   0.00000  Uiso   1.00
H75    H     0.42938   0.03591   0.12011   0.00000  Uiso   1.00
H76    H     0.57062   0.29742   0.21322   0.00000  Uiso   1.00
H77    H     0.45521   0.11233   0.27962   0.00000  Uiso   1.00
H78    H     0.54479   0.22100   0.05371   0.00000  Uiso   1.00
N79    N     0.50001   0.16668   0.28403   0.00000  Uiso   1.00
N80    N     0.49999   0.16666   0.04931   0.00000  Uiso   1.00
O81    O     0.50000   0.10655   0.20625   0.00000  Uiso   1.00
O82    O     0.50000   0.22678   0.12709   0.00000  Uiso   1.00
O83    O     0.50000   0.10654   0.12706   0.00000  Uiso   1.00
O84    O     0.50000   0.22679   0.20628   0.00000  Uiso   1.00
O85    O     0.42495   0.16667   0.19712   0.00000  Uiso   1.00
O86    O     0.57505   0.16666   0.13621   0.00000  Uiso   1.00
O87    O     0.42494   0.16666   0.11793   0.00000  Uiso   1.00
O88    O     0.57506   0.16667   0.21540   0.00000  Uiso   1.00
I89    I     0.64788   0.14812   0.07585   0.00000  Uiso   1.00
I90    I     0.35212   0.18522   0.25748   0.00000  Uiso   1.00
I91    I     0.39327   0.27779   0.10327   0.00000  Uiso   1.00
I92    I     0.60673   0.05554   0.23006   0.00000  Uiso   1.00
C93    C     0.44416   0.09968   0.03745   0.00000  Uiso   1.00
C94    C     0.39711   0.08165   0.00395   0.00000  Uiso   1.00
C95    C     0.36736   0.04929   0.02796   0.00000  Uiso   1.00
H96    H     0.39068   0.02174   0.03545   0.00000  Uiso   1.00
H97    H     0.35700   0.06199   0.06135   0.00000  Uiso   1.00
H98    H     0.66504   0.03948   0.00438   0.00000  Uiso   1.00
H99    H     0.37154   0.10700   0.32541   0.00000  Uiso   1.00
H100   H     0.40870   0.06565   0.30613   0.00000  Uiso   1.00
H101   H     0.47104   0.07443   0.04600   0.00000  Uiso   1.00
H102   H     0.42939   0.10969   0.06933   0.00000  Uiso   1.00
C103   C     0.55584   0.23366   0.29589   0.00000  Uiso   1.00
C104   C     0.60289   0.25168   0.32938   0.00000  Uiso   1.00
C105   C     0.63264   0.28405   0.30538   0.00000  Uiso   1.00
H106   H     0.64300   0.27135   0.27198   0.00000  Uiso   1.00
H107   H     0.60932   0.31160   0.29788   0.00000  Uiso   1.00
H108   H     0.33496   0.29385   0.32896   0.00000  Uiso   1.00
H109   H     0.59130   0.26768   0.02720   0.00000  Uiso   1.00
H110   H     0.62846   0.22634   0.00793   0.00000  Uiso   1.00
H111   H     0.57061   0.22364   0.26400   0.00000  Uiso   1.00
H112   H     0.52896   0.25890   0.28733   0.00000  Uiso   1.00
C113   C     0.83414   0.08752   0.16627   0.00000  Uiso   1.00
C114   C     0.83252   0.24581   0.16707   0.00000  Uiso   1.00
C115   C     0.73476   0.16651   0.15467   0.00000  Uiso   1.00
C116   C     0.93190   0.16682   0.17866   0.00000  Uiso   1.00
C117   C     0.67974   0.16405   0.14806   0.00000  Uiso   1.00
C118   C     0.98693   0.16929   0.18527   0.00000  Uiso   1.00
C119   C     0.79383   0.02013   0.13983   0.00000  Uiso   1.00
C120   C     0.87284   0.31320   0.19350   0.00000  Uiso   1.00
C121   C     0.79186   0.31045   0.14074   0.00000  Uiso   1.00
C122   C     0.87480   0.02289   0.19260   0.00000  Uiso   1.00
C123   C     0.83171   0.29042   0.16771   0.00000  Uiso   1.00
C124   C     0.83495   0.04292   0.16562   0.00000  Uiso   1.00
C125   C     0.80642   0.13596   0.01916   0.00000  Uiso   1.00
C126   C     0.86024   0.19737   0.31417   0.00000  Uiso   1.00
C127   C     0.80783   0.13625   0.30326   0.00000  Uiso   1.00
C128   C     0.85883   0.19709   0.03008   0.00000  Uiso   1.00
Cu129  Cu    0.83333   0.16667   0.21355   0.00000  Uiso   1.00
Cu130  Cu    0.83333   0.16666   0.11978   0.00000  Uiso   1.00
H131   H     0.76271   0.03591   0.12011   0.00000  Uiso   1.00
H132   H     0.90396   0.29742   0.21322   0.00000  Uiso   1.00
H133   H     0.78854   0.11233   0.27962   0.00000  Uiso   1.00
H134   H     0.87813   0.22100   0.05371   0.00000  Uiso   1.00
N135   N     0.83335   0.16668   0.28403   0.00000  Uiso   1.00
N136   N     0.83332   0.16666   0.04931   0.00000  Uiso   1.00
O137   O     0.83333   0.10655   0.20625   0.00000  Uiso   1.00
O138   O     0.83334   0.22678   0.12709   0.00000  Uiso   1.00
O139   O     0.83333   0.10654   0.12706   0.00000  Uiso   1.00
O140   O     0.83334   0.22679   0.20628   0.00000  Uiso   1.00
O141   O     0.75828   0.16667   0.19712   0.00000  Uiso   1.00
O142   O     0.90839   0.16666   0.13621   0.00000  Uiso   1.00
O143   O     0.75828   0.16666   0.11793   0.00000  Uiso   1.00
O144   O     0.90839   0.16667   0.21540   0.00000  Uiso   1.00
I145   I     0.98121   0.14812   0.07585   0.00000  Uiso   1.00
I146   I     0.68546   0.18522   0.25748   0.00000  Uiso   1.00
I147   I     0.72660   0.27779   0.10327   0.00000  Uiso   1.00
I148   I     0.94007   0.05554   0.23006   0.00000  Uiso   1.00
C149   C     0.77750   0.09968   0.03745   0.00000  Uiso   1.00
C150   C     0.73044   0.08165   0.00395   0.00000  Uiso   1.00
C151   C     0.70070   0.04929   0.02796   0.00000  Uiso   1.00
H152   H     0.72402   0.02174   0.03545   0.00000  Uiso   1.00
H153   H     0.69033   0.06199   0.06135   0.00000  Uiso   1.00
H154   H     0.99837   0.03948   0.00438   0.00000  Uiso   1.00
H155   H     0.70487   0.10700   0.32541   0.00000  Uiso   1.00
H156   H     0.74203   0.06565   0.30613   0.00000  Uiso   1.00
H157   H     0.80438   0.07443   0.04600   0.00000  Uiso   1.00
H158   H     0.76272   0.10969   0.06933   0.00000  Uiso   1.00
C159   C     0.88917   0.23366   0.29589   0.00000  Uiso   1.00
C160   C     0.93623   0.25168   0.32938   0.00000  Uiso   1.00
C161   C     0.96597   0.28405   0.30538   0.00000  Uiso   1.00
H162   H     0.97633   0.27135   0.27198   0.00000  Uiso   1.00
H163   H     0.94265   0.31160   0.29788   0.00000  Uiso   1.00
H164   H     0.66829   0.29385   0.32896   0.00000  Uiso   1.00
H165   H     0.92464   0.26768   0.02720   0.00000  Uiso   1.00
H166   H     0.96180   0.22634   0.00793   0.00000  Uiso   1.00
H167   H     0.90394   0.22364   0.26400   0.00000  Uiso   1.00
H168   H     0.86229   0.25890   0.28733   0.00000  Uiso   1.00
C169   C     0.16747   0.42086   0.16627   0.00000  Uiso   1.00
C170   C     0.16586   0.57914   0.16707   0.00000  Uiso   1.00
C171   C     0.06810   0.49985   0.15467   0.00000  Uiso   1.00
C172   C     0.26524   0.50015   0.17866   0.00000  Uiso   1.00
C173   C     0.01307   0.49738   0.14806   0.00000  Uiso   1.00
C174   C     0.32026   0.50262   0.18527   0.00000  Uiso   1.00
C175   C     0.12716   0.35347   0.13983   0.00000  Uiso   1.00
C176   C     0.20617   0.64654   0.19350   0.00000  Uiso   1.00
C177   C     0.12520   0.64378   0.14074   0.00000  Uiso   1.00
C178   C     0.20814   0.35622   0.19260   0.00000  Uiso   1.00
C179   C     0.16505   0.62375   0.16771   0.00000  Uiso   1.00
C180   C     0.16829   0.37625   0.16562   0.00000  Uiso   1.00
C181   C     0.13976   0.46930   0.01916   0.00000  Uiso   1.00
C182   C     0.19358   0.53070   0.31417   0.00000  Uiso   1.00
C183   C     0.14117   0.46958   0.30326   0.00000  Uiso   1.00
C184   C     0.19217   0.53042   0.03008   0.00000  Uiso   1.00
Cu185  Cu    0.16667   0.50001   0.21355   0.00000  Uiso   1.00
Cu186  Cu    0.16667   0.49999   0.11978   0.00000  Uiso   1.00
H187   H     0.09604   0.36924   0.12011   0.00000  Uiso   1.00
H188   H     0.23729   0.63076   0.21322   0.00000  Uiso   1.00
H189   H     0.12187   0.44566   0.27962   0.00000  Uiso   1.00
H190   H     0.21146   0.55434   0.05371   0.00000  Uiso   1.00
N191   N     0.16668   0.50001   0.28403   0.00000  Uiso   1.00
N192   N     0.16665   0.49999   0.04931   0.00000  Uiso   1.00
O193   O     0.16666   0.43989   0.20625   0.00000  Uiso   1.00
O194   O     0.16667   0.56011   0.12709   0.00000  Uiso   1.00
O195   O     0.16666   0.43988   0.12706   0.00000  Uiso   1.00
O196   O     0.16667   0.56012   0.20628   0.00000  Uiso   1.00
O197   O     0.09161   0.50000   0.19712   0.00000  Uiso   1.00
O198   O     0.24172   0.50000   0.13621   0.00000  Uiso   1.00
O199   O     0.09161   0.49999   0.11793   0.00000  Uiso   1.00
O200   O     0.24172   0.50001   0.21540   0.00000  Uiso   1.00
I201   I     0.31454   0.48145   0.07585   0.00000  Uiso   1.00
I202   I     0.01879   0.51855   0.25748   0.00000  Uiso   1.00
I203   I     0.05993   0.61113   0.10327   0.00000  Uiso   1.00
I204   I     0.27340   0.38887   0.23006   0.00000  Uiso   1.00
C205   C     0.11083   0.43301   0.03745   0.00000  Uiso   1.00
C206   C     0.06377   0.41498   0.00395   0.00000  Uiso   1.00
C207   C     0.03403   0.38262   0.02796   0.00000  Uiso   1.00
H208   H     0.05735   0.35507   0.03545   0.00000  Uiso   1.00
H209   H     0.02367   0.39532   0.06135   0.00000  Uiso   1.00
H210   H     0.33171   0.37281   0.00438   0.00000  Uiso   1.00
H211   H     0.03820   0.44033   0.32541   0.00000  Uiso   1.00
H212   H     0.07536   0.39898   0.30613   0.00000  Uiso   1.00
H213   H     0.13771   0.40776   0.04600   0.00000  Uiso   1.00
H214   H     0.09605   0.44302   0.06933   0.00000  Uiso   1.00
C215   C     0.22250   0.56699   0.29589   0.00000  Uiso   1.00
C216   C     0.26956   0.58502   0.32938   0.00000  Uiso   1.00
C217   C     0.29930   0.61738   0.30538   0.00000  Uiso   1.00
H218   H     0.30967   0.60468   0.27198   0.00000  Uiso   1.00
H219   H     0.27598   0.64493   0.29788   0.00000  Uiso   1.00
H220   H     0.00163   0.62719   0.32896   0.00000  Uiso   1.00
H221   H     0.25797   0.60102   0.02720   0.00000  Uiso   1.00
H222   H     0.29513   0.55967   0.00793   0.00000  Uiso   1.00
H223   H     0.23728   0.55698   0.26400   0.00000  Uiso   1.00
H224   H     0.19562   0.59224   0.28733   0.00000  Uiso   1.00
C225   C     0.50081   0.42086   0.16627   0.00000  Uiso   1.00
C226   C     0.49919   0.57914   0.16707   0.00000  Uiso   1.00
C227   C     0.40143   0.49985   0.15467   0.00000  Uiso   1.00
C228   C     0.59857   0.50015   0.17866   0.00000  Uiso   1.00
C229   C     0.34640   0.49738   0.14806   0.00000  Uiso   1.00
C230   C     0.65360   0.50262   0.18527   0.00000  Uiso   1.00
C231   C     0.46050   0.35347   0.13983   0.00000  Uiso   1.00
C232   C     0.53950   0.64654   0.19350   0.00000  Uiso   1.00
C233   C     0.45853   0.64378   0.14074   0.00000  Uiso   1.00
C234   C     0.54147   0.35622   0.19260   0.00000  Uiso   1.00
C235   C     0.49838   0.62375   0.16771   0.00000  Uiso   1.00
C236   C     0.50162   0.37625   0.16562   0.00000  Uiso   1.00
C237   C     0.47309   0.46930   0.01916   0.00000  Uiso   1.00
C238   C     0.52691   0.53070   0.31417   0.00000  Uiso   1.00
C239   C     0.47450   0.46958   0.30326   0.00000  Uiso   1.00
C240   C     0.52550   0.53042   0.03008   0.00000  Uiso   1.00
Cu241  Cu    0.50000   0.50001   0.21355   0.00000  Uiso   1.00
Cu242  Cu    0.50000   0.49999   0.11978   0.00000  Uiso   1.00
H243   H     0.42938   0.36924   0.12011   0.00000  Uiso   1.00
H244   H     0.57062   0.63076   0.21322   0.00000  Uiso   1.00
H245   H     0.45521   0.44566   0.27962   0.00000  Uiso   1.00
H246   H     0.54479   0.55434   0.05371   0.00000  Uiso   1.00
N247   N     0.50001   0.50001   0.28403   0.00000  Uiso   1.00
N248   N     0.49999   0.49999   0.04931   0.00000  Uiso   1.00
O249   O     0.50000   0.43989   0.20625   0.00000  Uiso   1.00
O250   O     0.50000   0.56011   0.12709   0.00000  Uiso   1.00
O251   O     0.50000   0.43988   0.12706   0.00000  Uiso   1.00
O252   O     0.50000   0.56012   0.20628   0.00000  Uiso   1.00
O253   O     0.42495   0.50000   0.19712   0.00000  Uiso   1.00
O254   O     0.57505   0.50000   0.13621   0.00000  Uiso   1.00
O255   O     0.42494   0.49999   0.11793   0.00000  Uiso   1.00
O256   O     0.57506   0.50001   0.21540   0.00000  Uiso   1.00
I257   I     0.64788   0.48145   0.07585   0.00000  Uiso   1.00
I258   I     0.35212   0.51855   0.25748   0.00000  Uiso   1.00
I259   I     0.39327   0.61113   0.10327   0.00000  Uiso   1.00
I260   I     0.60673   0.38887   0.23006   0.00000  Uiso   1.00
C261   C     0.44416   0.43301   0.03745   0.00000  Uiso   1.00
C262   C     0.39711   0.41498   0.00395   0.00000  Uiso   1.00
C263   C     0.36736   0.38262   0.02796   0.00000  Uiso   1.00
H264   H     0.39068   0.35507   0.03545   0.00000  Uiso   1.00
H265   H     0.35700   0.39532   0.06135   0.00000  Uiso   1.00
H266   H     0.66504   0.37281   0.00438   0.00000  Uiso   1.00
H267   H     0.37154   0.44033   0.32541   0.00000  Uiso   1.00
H268   H     0.40870   0.39898   0.30613   0.00000  Uiso   1.00
H269   H     0.47104   0.40776   0.04600   0.00000  Uiso   1.00
H270   H     0.42939   0.44302   0.06933   0.00000  Uiso   1.00
C271   C     0.55584   0.56699   0.29589   0.00000  Uiso   1.00
C272   C     0.60289   0.58502   0.32938   0.00000  Uiso   1.00
C273   C     0.63264   0.61738   0.30538   0.00000  Uiso   1.00
H274   H     0.64300   0.60468   0.27198   0.00000  Uiso   1.00
H275   H     0.60932   0.64493   0.29788   0.00000  Uiso   1.00
H276   H     0.33496   0.62719   0.32896   0.00000  Uiso   1.00
H277   H     0.59130   0.60102   0.02720   0.00000  Uiso   1.00
H278   H     0.62846   0.55967   0.00793   0.00000  Uiso   1.00
H279   H     0.57061   0.55698   0.26400   0.00000  Uiso   1.00
H280   H     0.52896   0.59224   0.28733   0.00000  Uiso   1.00
C281   C     0.83414   0.42086   0.16627   0.00000  Uiso   1.00
C282   C     0.83252   0.57914   0.16707   0.00000  Uiso   1.00
C283   C     0.73476   0.49985   0.15467   0.00000  Uiso   1.00
C284   C     0.93190   0.50015   0.17866   0.00000  Uiso   1.00
C285   C     0.67974   0.49738   0.14806   0.00000  Uiso   1.00
C286   C     0.98693   0.50262   0.18527   0.00000  Uiso   1.00
C287   C     0.79383   0.35347   0.13983   0.00000  Uiso   1.00
C288   C     0.87284   0.64654   0.19350   0.00000  Uiso   1.00
C289   C     0.79186   0.64378   0.14074   0.00000  Uiso   1.00
C290   C     0.87480   0.35622   0.19260   0.00000  Uiso   1.00
C291   C     0.83171   0.62375   0.16771   0.00000  Uiso   1.00
C292   C     0.83495   0.37625   0.16562   0.00000  Uiso   1.00
C293   C     0.80642   0.46930   0.01916   0.00000  Uiso   1.00
C294   C     0.86024   0.53070   0.31417   0.00000  Uiso   1.00
C295   C     0.80783   0.46958   0.30326   0.00000  Uiso   1.00
C296   C     0.85883   0.53042   0.03008   0.00000  Uiso   1.00
Cu297  Cu    0.83333   0.50001   0.21355   0.00000  Uiso   1.00
Cu298  Cu    0.83333   0.49999   0.11978   0.00000  Uiso   1.00
H299   H     0.76271   0.36924   0.12011   0.00000  Uiso   1.00
H300   H     0.90396   0.63076   0.21322   0.00000  Uiso   1.00
H301   H     0.78854   0.44566   0.27962   0.00000  Uiso   1.00
H302   H     0.87813   0.55434   0.05371   0.00000  Uiso   1.00
N303   N     0.83335   0.50001   0.28403   0.00000  Uiso   1.00
N304   N     0.83332   0.49999   0.04931   0.00000  Uiso   1.00
O305   O     0.83333   0.43989   0.20625   0.00000  Uiso   1.00
O306   O     0.83334   0.56011   0.12709   0.00000  Uiso   1.00
O307   O     0.83333   0.43988   0.12706   0.00000  Uiso   1.00
O308   O     0.83334   0.56012   0.20628   0.00000  Uiso   1.00
O309   O     0.75828   0.50000   0.19712   0.00000  Uiso   1.00
O310   O     0.90839   0.50000   0.13621   0.00000  Uiso   1.00
O311   O     0.75828   0.49999   0.11793   0.00000  Uiso   1.00
O312   O     0.90839   0.50001   0.21540   0.00000  Uiso   1.00
I313   I     0.98121   0.48145   0.07585   0.00000  Uiso   1.00
I314   I     0.68546   0.51855   0.25748   0.00000  Uiso   1.00
I315   I     0.72660   0.61113   0.10327   0.00000  Uiso   1.00
I316   I     0.94007   0.38887   0.23006   0.00000  Uiso   1.00
C317   C     0.77750   0.43301   0.03745   0.00000  Uiso   1.00
C318   C     0.73044   0.41498   0.00395   0.00000  Uiso   1.00
C319   C     0.70070   0.38262   0.02796   0.00000  Uiso   1.00
H320   H     0.72402   0.35507   0.03545   0.00000  Uiso   1.00
H321   H     0.69033   0.39532   0.06135   0.00000  Uiso   1.00
H322   H     0.99837   0.37281   0.00438   0.00000  Uiso   1.00
H323   H     0.70487   0.44033   0.32541   0.00000  Uiso   1.00
H324   H     0.74203   0.39898   0.30613   0.00000  Uiso   1.00
H325   H     0.80438   0.40776   0.04600   0.00000  Uiso   1.00
H326   H     0.76272   0.44302   0.06933   0.00000  Uiso   1.00
C327   C     0.88917   0.56699   0.29589   0.00000  Uiso   1.00
C328   C     0.93623   0.58502   0.32938   0.00000  Uiso   1.00
C329   C     0.96597   0.61738   0.30538   0.00000  Uiso   1.00
H330   H     0.97633   0.60468   0.27198   0.00000  Uiso   1.00
H331   H     0.94265   0.64493   0.29788   0.00000  Uiso   1.00
H332   H     0.66829   0.62719   0.32896   0.00000  Uiso   1.00
H333   H     0.92464   0.60102   0.02720   0.00000  Uiso   1.00
H334   H     0.96180   0.55967   0.00793   0.00000  Uiso   1.00
H335   H     0.90394   0.55698   0.26400   0.00000  Uiso   1.00
H336   H     0.86229   0.59224   0.28733   0.00000  Uiso   1.00
C337   C     0.16747   0.75419   0.16627   0.00000  Uiso   1.00
C338   C     0.16586   0.91248   0.16707   0.00000  Uiso   1.00
C339   C     0.06810   0.83318   0.15467   0.00000  Uiso   1.00
C340   C     0.26524   0.83349   0.17866   0.00000  Uiso   1.00
C341   C     0.01307   0.83071   0.14806   0.00000  Uiso   1.00
C342   C     0.32026   0.83595   0.18527   0.00000  Uiso   1.00
C343   C     0.12716   0.68680   0.13983   0.00000  Uiso   1.00
C344   C     0.20617   0.97987   0.19350   0.00000  Uiso   1.00
C345   C     0.12520   0.97711   0.14074   0.00000  Uiso   1.00
C346   C     0.20814   0.68956   0.19260   0.00000  Uiso   1.00
C347   C     0.16505   0.95708   0.16771   0.00000  Uiso   1.00
C348   C     0.16829   0.70958   0.16562   0.00000  Uiso   1.00
C349   C     0.13976   0.80263   0.01916   0.00000  Uiso   1.00
C350   C     0.19358   0.86404   0.31417   0.00000  Uiso   1.00
C351   C     0.14117   0.80291   0.30326   0.00000  Uiso   1.00
C352   C     0.19217   0.86375   0.03008   0.00000  Uiso   1.00
Cu353  Cu    0.16667   0.83334   0.21355   0.00000  Uiso   1.00
Cu354  Cu    0.16667   0.83333   0.11978   0.00000  Uiso   1.00
H355   H     0.09604   0.70258   0.12011   0.00000  Uiso   1.00
H356   H     0.23729   0.96409   0.21322   0.00000  Uiso   1.00
H357   H     0.12187   0.77900   0.27962   0.00000  Uiso   1.00
H358   H     0.21146   0.88767   0.05371   0.00000  Uiso   1.00
N359   N     0.16668   0.83334   0.28403   0.00000  Uiso   1.00
N360   N     0.16665   0.83332   0.04931   0.00000  Uiso   1.00
O361   O     0.16666   0.77322   0.20625   0.00000  Uiso   1.00
O362   O     0.16667   0.89345   0.12709   0.00000  Uiso   1.00
O363   O     0.16666   0.77321   0.12706   0.00000  Uiso   1.00
O364   O     0.16667   0.89346   0.20628   0.00000  Uiso   1.00
O365   O     0.09161   0.83334   0.19712   0.00000  Uiso   1.00
O366   O     0.24172   0.83333   0.13621   0.00000  Uiso   1.00
O367   O     0.09161   0.83333   0.11793   0.00000  Uiso   1.00
O368   O     0.24172   0.83334   0.21540   0.00000  Uiso   1.00
I369   I     0.31454   0.81478   0.07585   0.00000  Uiso   1.00
I370   I     0.01879   0.85188   0.25748   0.00000  Uiso   1.00
I371   I     0.05993   0.94446   0.10327   0.00000  Uiso   1.00
I372   I     0.27340   0.72221   0.23006   0.00000  Uiso   1.00
C373   C     0.11083   0.76634   0.03745   0.00000  Uiso   1.00
C374   C     0.06377   0.74832   0.00395   0.00000  Uiso   1.00
C375   C     0.03403   0.71595   0.02796   0.00000  Uiso   1.00
H376   H     0.05735   0.68840   0.03545   0.00000  Uiso   1.00
H377   H     0.02367   0.72865   0.06135   0.00000  Uiso   1.00
H378   H     0.33171   0.70615   0.00438   0.00000  Uiso   1.00
H379   H     0.03820   0.77366   0.32541   0.00000  Uiso   1.00
H380   H     0.07536   0.73232   0.30613   0.00000  Uiso   1.00
H381   H     0.13771   0.74110   0.04600   0.00000  Uiso   1.00
H382   H     0.09605   0.77636   0.06933   0.00000  Uiso   1.00
C383   C     0.22250   0.90032   0.29589   0.00000  Uiso   1.00
C384   C     0.26956   0.91835   0.32938   0.00000  Uiso   1.00
C385   C     0.29930   0.95071   0.30538   0.00000  Uiso   1.00
H386   H     0.30967   0.93801   0.27198   0.00000  Uiso   1.00
H387   H     0.27598   0.97826   0.29788   0.00000  Uiso   1.00
H388   H     0.00163   0.96052   0.32896   0.00000  Uiso   1.00
H389   H     0.25797   0.93435   0.02720   0.00000  Uiso   1.00
H390   H     0.29513   0.89300   0.00793   0.00000  Uiso   1.00
H391   H     0.23728   0.89031   0.26400   0.00000  Uiso   1.00
H392   H     0.19562   0.92557   0.28733   0.00000  Uiso   1.00
C393   C     0.50081   0.75419   0.16627   0.00000  Uiso   1.00
C394   C     0.49919   0.91248   0.16707   0.00000  Uiso   1.00
C395   C     0.40143   0.83318   0.15467   0.00000  Uiso   1.00
C396   C     0.59857   0.83349   0.17866   0.00000  Uiso   1.00
C397   C     0.34640   0.83071   0.14806   0.00000  Uiso   1.00
C398   C     0.65360   0.83595   0.18527   0.00000  Uiso   1.00
C399   C     0.46050   0.68680   0.13983   0.00000  Uiso   1.00
C400   C     0.53950   0.97987   0.19350   0.00000  Uiso   1.00
C401   C     0.45853   0.97711   0.14074   0.00000  Uiso   1.00
C402   C     0.54147   0.68956   0.19260   0.00000  Uiso   1.00
C403   C     0.49838   0.95708   0.16771   0.00000  Uiso   1.00
C404   C     0.50162   0.70958   0.16562   0.00000  Uiso   1.00
C405   C     0.47309   0.80263   0.01916   0.00000  Uiso   1.00
C406   C     0.52691   0.86404   0.31417   0.00000  Uiso   1.00
C407   C     0.47450   0.80291   0.30326   0.00000  Uiso   1.00
C408   C     0.52550   0.86375   0.03008   0.00000  Uiso   1.00
Cu409  Cu    0.50000   0.83334   0.21355   0.00000  Uiso   1.00
Cu410  Cu    0.50000   0.83333   0.11978   0.00000  Uiso   1.00
H411   H     0.42938   0.70258   0.12011   0.00000  Uiso   1.00
H412   H     0.57062   0.96409   0.21322   0.00000  Uiso   1.00
H413   H     0.45521   0.77900   0.27962   0.00000  Uiso   1.00
H414   H     0.54479   0.88767   0.05371   0.00000  Uiso   1.00
N415   N     0.50001   0.83334   0.28403   0.00000  Uiso   1.00
N416   N     0.49999   0.83332   0.04931   0.00000  Uiso   1.00
O417   O     0.50000   0.77322   0.20625   0.00000  Uiso   1.00
O418   O     0.50000   0.89345   0.12709   0.00000  Uiso   1.00
O419   O     0.50000   0.77321   0.12706   0.00000  Uiso   1.00
O420   O     0.50000   0.89346   0.20628   0.00000  Uiso   1.00
O421   O     0.42495   0.83334   0.19712   0.00000  Uiso   1.00
O422   O     0.57505   0.83333   0.13621   0.00000  Uiso   1.00
O423   O     0.42494   0.83333   0.11793   0.00000  Uiso   1.00
O424   O     0.57506   0.83334   0.21540   0.00000  Uiso   1.00
I425   I     0.64788   0.81478   0.07585   0.00000  Uiso   1.00
I426   I     0.35212   0.85188   0.25748   0.00000  Uiso   1.00
I427   I     0.39327   0.94446   0.10327   0.00000  Uiso   1.00
I428   I     0.60673   0.72221   0.23006   0.00000  Uiso   1.00
C429   C     0.44416   0.76634   0.03745   0.00000  Uiso   1.00
C430   C     0.39711   0.74832   0.00395   0.00000  Uiso   1.00
C431   C     0.36736   0.71595   0.02796   0.00000  Uiso   1.00
H432   H     0.39068   0.68840   0.03545   0.00000  Uiso   1.00
H433   H     0.35700   0.72865   0.06135   0.00000  Uiso   1.00
H434   H     0.66504   0.70615   0.00438   0.00000  Uiso   1.00
H435   H     0.37154   0.77366   0.32541   0.00000  Uiso   1.00
H436   H     0.40870   0.73232   0.30613   0.00000  Uiso   1.00
H437   H     0.47104   0.74110   0.04600   0.00000  Uiso   1.00
H438   H     0.42939   0.77636   0.06933   0.00000  Uiso   1.00
C439   C     0.55584   0.90032   0.29589   0.00000  Uiso   1.00
C440   C     0.60289   0.91835   0.32938   0.00000  Uiso   1.00
C441   C     0.63264   0.95071   0.30538   0.00000  Uiso   1.00
H442   H     0.64300   0.93801   0.27198   0.00000  Uiso   1.00
H443   H     0.60932   0.97826   0.29788   0.00000  Uiso   1.00
H444   H     0.33496   0.96052   0.32896   0.00000  Uiso   1.00
H445   H     0.59130   0.93435   0.02720   0.00000  Uiso   1.00
H446   H     0.62846   0.89300   0.00793   0.00000  Uiso   1.00
H447   H     0.57061   0.89031   0.26400   0.00000  Uiso   1.00
H448   H     0.52896   0.92557   0.28733   0.00000  Uiso   1.00
C449   C     0.83414   0.75419   0.16627   0.00000  Uiso   1.00
C450   C     0.83252   0.91248   0.16707   0.00000  Uiso   1.00
C451   C     0.73476   0.83318   0.15467   0.00000  Uiso   1.00
C452   C     0.93190   0.83349   0.17866   0.00000  Uiso   1.00
C453   C     0.67974   0.83071   0.14806   0.00000  Uiso   1.00
C454   C     0.98693   0.83595   0.18527   0.00000  Uiso   1.00
C455   C     0.79383   0.68680   0.13983   0.00000  Uiso   1.00
C456   C     0.87284   0.97987   0.19350   0.00000  Uiso   1.00
C457   C     0.79186   0.97711   0.14074   0.00000  Uiso   1.00
C458   C     0.87480   0.68956   0.19260   0.00000  Uiso   1.00
C459   C     0.83171   0.95708   0.16771   0.00000  Uiso   1.00
C460   C     0.83495   0.70958   0.16562   0.00000  Uiso   1.00
C461   C     0.80642   0.80263   0.01916   0.00000  Uiso   1.00
C462   C     0.86024   0.86404   0.31417   0.00000  Uiso   1.00
C463   C     0.80783   0.80291   0.30326   0.00000  Uiso   1.00
C464   C     0.85883   0.86375   0.03008   0.00000  Uiso   1.00
Cu465  Cu    0.83333   0.83334   0.21355   0.00000  Uiso   1.00
Cu466  Cu    0.83333   0.83333   0.11978   0.00000  Uiso   1.00
H467   H     0.76271   0.70258   0.12011   0.00000  Uiso   1.00
H468   H     0.90396   0.96409   0.21322   0.00000  Uiso   1.00
H469   H     0.78854   0.77900   0.27962   0.00000  Uiso   1.00
H470   H     0.87813   0.88767   0.05371   0.00000  Uiso   1.00
N471   N     0.83335   0.83334   0.28403   0.00000  Uiso   1.00
N472   N     0.83332   0.83332   0.04931   0.00000  Uiso   1.00
O473   O     0.83333   0.77322   0.20625   0.00000  Uiso   1.00
O474   O     0.83334   0.89345   0.12709   0.00000  Uiso   1.00
O475   O     0.83333   0.77321   0.12706   0.00000  Uiso   1.00
O476   O     0.83334   0.89346   0.20628   0.00000  Uiso   1.00
O477   O     0.75828   0.83334   0.19712   0.00000  Uiso   1.00
O478   O     0.90839   0.83333   0.13621   0.00000  Uiso   1.00
O479   O     0.75828   0.83333   0.11793   0.00000  Uiso   1.00
O480   O     0.90839   0.83334   0.21540   0.00000  Uiso   1.00
I481   I     0.98121   0.81478   0.07585   0.00000  Uiso   1.00
I482   I     0.68546   0.85188   0.25748   0.00000  Uiso   1.00
I483   I     0.72660   0.94446   0.10327   0.00000  Uiso   1.00
I484   I     0.94007   0.72221   0.23006   0.00000  Uiso   1.00
C485   C     0.77750   0.76634   0.03745   0.00000  Uiso   1.00
C486   C     0.73044   0.74832   0.00395   0.00000  Uiso   1.00
C487   C     0.70070   0.71595   0.02796   0.00000  Uiso   1.00
H488   H     0.72402   0.68840   0.03545   0.00000  Uiso   1.00
H489   H     0.69033   0.72865   0.06135   0.00000  Uiso   1.00
H490   H     0.99837   0.70615   0.00438   0.00000  Uiso   1.00
H491   H     0.70487   0.77366   0.32541   0.00000  Uiso   1.00
H492   H     0.74203   0.73232   0.30613   0.00000  Uiso   1.00
H493   H     0.80438   0.74110   0.04600   0.00000  Uiso   1.00
H494   H     0.76272   0.77636   0.06933   0.00000  Uiso   1.00
C495   C     0.88917   0.90032   0.29589   0.00000  Uiso   1.00
C496   C     0.93623   0.91835   0.32938   0.00000  Uiso   1.00
C497   C     0.96597   0.95071   0.30538   0.00000  Uiso   1.00
H498   H     0.97633   0.93801   0.27198   0.00000  Uiso   1.00
H499   H     0.94265   0.97826   0.29788   0.00000  Uiso   1.00
H500   H     0.66829   0.96052   0.32896   0.00000  Uiso   1.00
H501   H     0.92464   0.93435   0.02720   0.00000  Uiso   1.00
H502   H     0.96180   0.89300   0.00793   0.00000  Uiso   1.00
H503   H     0.90394   0.89031   0.26400   0.00000  Uiso   1.00
H504   H     0.86229   0.92557   0.28733   0.00000  Uiso   1.00
C505   C     0.16747   0.08752   0.49960   0.00000  Uiso   1.00
C506   C     0.16586   0.24581   0.50040   0.00000  Uiso   1.00
C507   C     0.06810   0.16651   0.48801   0.00000  Uiso   1.00
C508   C     0.26524   0.16682   0.51199   0.00000  Uiso   1.00
C509   C     0.01307   0.16405   0.48139   0.00000  Uiso   1.00
C510   C     0.32026   0.16929   0.51861   0.00000  Uiso   1.00
C511   C     0.12716   0.02013   0.47316   0.00000  Uiso   1.00
C512   C     0.20617   0.31320   0.52684   0.00000  Uiso   1.00
C513   C     0.12520   0.31045   0.47407   0.00000  Uiso   1.00
C514   C     0.20814   0.02289   0.52593   0.00000  Uiso   1.00
C515   C     0.16505   0.29042   0.50104   0.00000  Uiso   1.00
C516   C     0.16829   0.04292   0.49896   0.00000  Uiso   1.00
C517   C     0.13976   0.13596   0.35250   0.00000  Uiso   1.00
C518   C     0.19358   0.19737   0.64750   0.00000  Uiso   1.00
C519   C     0.14117   0.13625   0.63659   0.00000  Uiso   1.00
C520   C     0.19217   0.19709   0.36341   0.00000  Uiso   1.00
Cu521  Cu    0.16667   0.16667   0.54689   0.00000  Uiso   1.00
Cu522  Cu    0.16667   0.16666   0.45311   0.00000  Uiso   1.00
H523   H     0.09604   0.03591   0.45345   0.00000  Uiso   1.00
H524   H     0.23729   0.29742   0.54655   0.00000  Uiso   1.00
H525   H     0.12187   0.11233   0.61295   0.00000  Uiso   1.00
H526   H     0.21146   0.22100   0.38705   0.00000  Uiso   1.00
N527   N     0.16668   0.16668   0.61736   0.00000  Uiso   1.00
N528   N     0.16665   0.16666   0.38264   0.00000  Uiso   1.00
O529   O     0.16666   0.10655   0.53958   0.00000  Uiso   1.00
O530   O     0.16667   0.22678   0.46042   0.00000  Uiso   1.00
O531   O     0.16666   0.10654   0.46039   0.00000  Uiso   1.00
O532   O     0.16667   0.22679   0.53961   0.00000  Uiso   1.00
O533   O     0.09161   0.16667   0.53046   0.00000  Uiso   1.00
O534   O     0.24172   0.16666   0.46954   0.00000  Uiso   1.00
O535   O     0.09161   0.16666   0.45127   0.00000  Uiso   1.00
O536   O     0.24172   0.16667   0.54873   0.00000  Uiso   1.00
I537   I     0.31454   0.14812   0.40919   0.00000  Uiso   1.00
I538   I     0.01879   0.18522   0.59081   0.00000  Uiso   1.00
I539   I     0.05993   0.27779   0.43660   0.00000  Uiso   1.00
I540   I     0.27340   0.05554   0.56340   0.00000  Uiso   1.00
C541   C     0.11083   0.09968   0.37078   0.00000  Uiso   1.00
C542   C     0.06377   0.08165   0.33729   0.00000  Uiso   1.00
C543   C     0.03403   0.04929   0.36129   0.00000  Uiso   1.00
H544   H     0.05735   0.02174   0.36879   0.00000  Uiso   1.00
H545   H     0.02367   0.06199   0.39468   0.00000  Uiso   1.00
H546   H     0.33171   0.03948   0.33771   0.00000  Uiso   1.00
H547   H     0.03820   0.10700   0.65874   0.00000  Uiso   1.00
H548   H     0.07536   0.06565   0.63947   0.00000  Uiso   1.00
H549   H     0.13771   0.07443   0.37933   0.00000  Uiso   1.00
H550   H     0.09605   0.10969   0.40266   0.00000  Uiso   1.00
C551   C     0.22250   0.23366   0.62922   0.00000  Uiso   1.00
C552   C     0.26956   0.25168   0.66271   0.00000  Uiso   1.00
C553   C     0.29930   0.28405   0.63871   0.00000  Uiso   1.00
H554   H     0.30967   0.27135   0.60532   0.00000  Uiso   1.00
H555   H     0.27598   0.31160   0.63121   0.00000  Uiso   1.00
H556   H     0.00163   0.29385   0.66229   0.00000  Uiso   1.00
H557   H     0.25797   0.26768   0.36053   0.00000  Uiso   1.00
H558   H     0.29513   0.22634   0.34126   0.00000  Uiso   1.00
H559   H     0.23728   0.22364   0.59734   0.00000  Uiso   1.00
H560   H     0.19562   0.25890   0.62067   0.00000  Uiso   1.00
C561   C     0.50081   0.08752   0.49960   0.00000  Uiso   1.00
C562   C     0.49919   0.24581   0.50040   0.00000  Uiso   1.00
C563   C     0.40143   0.16651   0.48801   0.00000  Uiso   1.00
C564   C     0.59857   0.16682   0.51199   0.00000  Uiso   1.00
C565   C     0.34640   0.16405   0.48139   0.00000  Uiso   1.00
C566   C     0.65360   0.16929   0.51861   0.00000  Uiso   1.00
C567   C     0.46050   0.02013   0.47316   0.00000  Uiso   1.00
C568   C     0.53950   0.31320   0.52684   0.00000  Uiso   1.00
C569   C     0.45853   0.31045   0.47407   0.00000  Uiso   1.00
C570   C     0.54147   0.02289   0.52593   0.00000  Uiso   1.00
C571   C     0.49838   0.29042   0.50104   0.00000  Uiso   1.00
C572   C     0.50162   0.04292   0.49896   0.00000  Uiso   1.00
C573   C     0.47309   0.13596   0.35250   0.00000  Uiso   1.00
C574   C     0.52691   0.19737   0.64750   0.00000  Uiso   1.00
C575   C     0.47450   0.13625   0.63659   0.00000  Uiso   1.00
C576   C     0.52550   0.19709   0.36341   0.00000  Uiso   1.00
Cu577  Cu    0.50000   0.16667   0.54689   0.00000  Uiso   1.00
Cu578  Cu    0.50000   0.16666   0.45311   0.00000  Uiso   1.00
H579   H     0.42938   0.03591   0.45345   0.00000  Uiso   1.00
H580   H     0.57062   0.29742   0.54655   0.00000  Uiso   1.00
H581   H     0.45521   0.11233   0.61295   0.00000  Uiso   1.00
H582   H     0.54479   0.22100   0.38705   0.00000  Uiso   1.00
N583   N     0.50001   0.16668   0.61736   0.00000  Uiso   1.00
N584   N     0.49999   0.16666   0.38264   0.00000  Uiso   1.00
O585   O     0.50000   0.10655   0.53958   0.00000  Uiso   1.00
O586   O     0.50000   0.22678   0.46042   0.00000  Uiso   1.00
O587   O     0.50000   0.10654   0.46039   0.00000  Uiso   1.00
O588   O     0.50000   0.22679   0.53961   0.00000  Uiso   1.00
O589   O     0.42495   0.16667   0.53046   0.00000  Uiso   1.00
O590   O     0.57505   0.16666   0.46954   0.00000  Uiso   1.00
O591   O     0.42494   0.16666   0.45127   0.00000  Uiso   1.00
O592   O     0.57506   0.16667   0.54873   0.00000  Uiso   1.00
I593   I     0.64788   0.14812   0.40919   0.00000  Uiso   1.00
I594   I     0.35212   0.18522   0.59081   0.00000  Uiso   1.00
I595   I     0.39327   0.27779   0.43660   0.00000  Uiso   1.00
I596   I     0.60673   0.05554   0.56340   0.00000  Uiso   1.00
C597   C     0.44416   0.09968   0.37078   0.00000  Uiso   1.00
C598   C     0.39711   0.08165   0.33729   0.00000  Uiso   1.00
C599   C     0.36736   0.04929   0.36129   0.00000  Uiso   1.00
H600   H     0.39068   0.02174   0.36879   0.00000  Uiso   1.00
H601   H     0.35700   0.06199   0.39468   0.00000  Uiso   1.00
H602   H     0.66504   0.03948   0.33771   0.00000  Uiso   1.00
H603   H     0.37154   0.10700   0.65874   0.00000  Uiso   1.00
H604   H     0.40870   0.06565   0.63947   0.00000  Uiso   1.00
H605   H     0.47104   0.07443   0.37933   0.00000  Uiso   1.00
H606   H     0.42939   0.10969   0.40266   0.00000  Uiso   1.00
C607   C     0.55584   0.23366   0.62922   0.00000  Uiso   1.00
C608   C     0.60289   0.25168   0.66271   0.00000  Uiso   1.00
C609   C     0.63264   0.28405   0.63871   0.00000  Uiso   1.00
H610   H     0.64300   0.27135   0.60532   0.00000  Uiso   1.00
H611   H     0.60932   0.31160   0.63121   0.00000  Uiso   1.00
H612   H     0.33496   0.29385   0.66229   0.00000  Uiso   1.00
H613   H     0.59130   0.26768   0.36053   0.00000  Uiso   1.00
H614   H     0.62846   0.22634   0.34126   0.00000  Uiso   1.00
H615   H     0.57061   0.22364   0.59734   0.00000  Uiso   1.00
H616   H     0.52896   0.25890   0.62067   0.00000  Uiso   1.00
C617   C     0.83414   0.08752   0.49960   0.00000  Uiso   1.00
C618   C     0.83252   0.24581   0.50040   0.00000  Uiso   1.00
C619   C     0.73476   0.16651   0.48801   0.00000  Uiso   1.00
C620   C     0.93190   0.16682   0.51199   0.00000  Uiso   1.00
C621   C     0.67974   0.16405   0.48139   0.00000  Uiso   1.00
C622   C     0.98693   0.16929   0.51861   0.00000  Uiso   1.00
C623   C     0.79383   0.02013   0.47316   0.00000  Uiso   1.00
C624   C     0.87284   0.31320   0.52684   0.00000  Uiso   1.00
C625   C     0.79186   0.31045   0.47407   0.00000  Uiso   1.00
C626   C     0.87480   0.02289   0.52593   0.00000  Uiso   1.00
C627   C     0.83171   0.29042   0.50104   0.00000  Uiso   1.00
C628   C     0.83495   0.04292   0.49896   0.00000  Uiso   1.00
C629   C     0.80642   0.13596   0.35250   0.00000  Uiso   1.00
C630   C     0.86024   0.19737   0.64750   0.00000  Uiso   1.00
C631   C     0.80783   0.13625   0.63659   0.00000  Uiso   1.00
C632   C     0.85883   0.19709   0.36341   0.00000  Uiso   1.00
Cu633  Cu    0.83333   0.16667   0.54689   0.00000  Uiso   1.00
Cu634  Cu    0.83333   0.16666   0.45311   0.00000  Uiso   1.00
H635   H     0.76271   0.03591   0.45345   0.00000  Uiso   1.00
H636   H     0.90396   0.29742   0.54655   0.00000  Uiso   1.00
H637   H     0.78854   0.11233   0.61295   0.00000  Uiso   1.00
H638   H     0.87813   0.22100   0.38705   0.00000  Uiso   1.00
N639   N     0.83335   0.16668   0.61736   0.00000  Uiso   1.00
N640   N     0.83332   0.16666   0.38264   0.00000  Uiso   1.00
O641   O     0.83333   0.10655   0.53958   0.00000  Uiso   1.00
O642   O     0.83334   0.22678   0.46042   0.00000  Uiso   1.00
O643   O     0.83333   0.10654   0.46039   0.00000  Uiso   1.00
O644   O     0.83334   0.22679   0.53961   0.00000  Uiso   1.00
O645   O     0.75828   0.16667   0.53046   0.00000  Uiso   1.00
O646   O     0.90839   0.16666   0.46954   0.00000  Uiso   1.00
O647   O     0.75828   0.16666   0.45127   0.00000  Uiso   1.00
O648   O     0.90839   0.16667   0.54873   0.00000  Uiso   1.00
I649   I     0.98121   0.14812   0.40919   0.00000  Uiso   1.00
I650   I     0.68546   0.18522   0.59081   0.00000  Uiso   1.00
I651   I     0.72660   0.27779   0.43660   0.00000  Uiso   1.00
I652   I     0.94007   0.05554   0.56340   0.00000  Uiso   1.00
C653   C     0.77750   0.09968   0.37078   0.00000  Uiso   1.00
C654   C     0.73044   0.08165   0.33729   0.00000  Uiso   1.00
C655   C     0.70070   0.04929   0.36129   0.00000  Uiso   1.00
H656   H     0.72402   0.02174   0.36879   0.00000  Uiso   1.00
H657   H     0.69033   0.06199   0.39468   0.00000  Uiso   1.00
H658   H     0.99837   0.03948   0.33771   0.00000  Uiso   1.00
H659   H     0.70487   0.10700   0.65874   0.00000  Uiso   1.00
H660   H     0.74203   0.06565   0.63947   0.00000  Uiso   1.00
H661   H     0.80438   0.07443   0.37933   0.00000  Uiso   1.00
H662   H     0.76272   0.10969   0.40266   0.00000  Uiso   1.00
C663   C     0.88917   0.23366   0.62922   0.00000  Uiso   1.00
C664   C     0.93623   0.25168   0.66271   0.00000  Uiso   1.00
C665   C     0.96597   0.28405   0.63871   0.00000  Uiso   1.00
H666   H     0.97633   0.27135   0.60532   0.00000  Uiso   1.00
H667   H     0.94265   0.31160   0.63121   0.00000  Uiso   1.00
H668   H     0.66829   0.29385   0.66229   0.00000  Uiso   1.00
H669   H     0.92464   0.26768   0.36053   0.00000  Uiso   1.00
H670   H     0.96180   0.22634   0.34126   0.00000  Uiso   1.00
H671   H     0.90394   0.22364   0.59734   0.00000  Uiso   1.00
H672   H     0.86229   0.25890   0.62067   0.00000  Uiso   1.00
C673   C     0.16747   0.42086   0.49960   0.00000  Uiso   1.00
C674   C     0.16586   0.57914   0.50040   0.00000  Uiso   1.00
C675   C     0.06810   0.49985   0.48801   0.00000  Uiso   1.00
C676   C     0.26524   0.50015   0.51199   0.00000  Uiso   1.00
C677   C     0.01307   0.49738   0.48139   0.00000  Uiso   1.00
C678   C     0.32026   0.50262   0.51861   0.00000  Uiso   1.00
C679   C     0.12716   0.35347   0.47316   0.00000  Uiso   1.00
C680   C     0.20617   0.64654   0.52684   0.00000  Uiso   1.00
C681   C     0.12520   0.64378   0.47407   0.00000  Uiso   1.00
C682   C     0.20814   0.35622   0.52593   0.00000  Uiso   1.00
C683   C     0.16505   0.62375   0.50104   0.00000  Uiso   1.00
C684   C     0.16829   0.37625   0.49896   0.00000  Uiso   1.00
C685   C     0.13976   0.46930   0.35250   0.00000  Uiso   1.00
C686   C     0.19358   0.53070   0.64750   0.00000  Uiso   1.00
C687   C     0.14117   0.46958   0.63659   0.00000  Uiso   1.00
C688   C     0.19217   0.53042   0.36341   0.00000  Uiso   1.00
Cu689  Cu    0.16667   0.50001   0.54689   0.00000  Uiso   1.00
Cu690  Cu    0.16667   0.49999   0.45311   0.00000  Uiso   1.00
H691   H     0.09604   0.36924   0.45345   0.00000  Uiso   1.00
H692   H     0.23729   0.63076   0.54655   0.00000  Uiso   1.00
H693   H     0.12187   0.44566   0.61295   0.00000  Uiso   1.00
H694   H     0.21146   0.55434   0.38705   0.00000  Uiso   1.00
N695   N     0.16668   0.50001   0.61736   0.00000  Uiso   1.00
N696   N     0.16665   0.49999   0.38264   0.00000  Uiso   1.00
O697   O     0.16666   0.43989   0.53958   0.00000  Uiso   1.00
O698   O     0.16667   0.56011   0.46042   0.00000  Uiso   1.00
O699   O     0.16666   0.43988   0.46039   0.00000  Uiso   1.00
O700   O     0.16667   0.56012   0.53961   0.00000  Uiso   1.00
O701   O     0.09161   0.50000   0.53046   0.00000  Uiso   1.00
O702   O     0.24172   0.50000   0.46954   0.00000  Uiso   1.00
O703   O     0.09161   0.49999   0.45127   0.00000  Uiso   1.00
O704   O     0.24172   0.50001   0.54873   0.00000  Uiso   1.00
I705   I     0.31454   0.48145   0.40919   0.00000  Uiso   1.00
I706   I     0.01879   0.51855   0.59081   0.00000  Uiso   1.00
I707   I     0.05993   0.61113   0.43660   0.00000  Uiso   1.00
I708   I     0.27340   0.38887   0.56340   0.00000  Uiso   1.00
C709   C     0.11083   0.43301   0.37078   0.00000  Uiso   1.00
C710   C     0.06377   0.41498   0.33729   0.00000  Uiso   1.00
C711   C     0.03403   0.38262   0.36129   0.00000  Uiso   1.00
H712   H     0.05735   0.35507   0.36879   0.00000  Uiso   1.00
H713   H     0.02367   0.39532   0.39468   0.00000  Uiso   1.00
H714   H     0.33171   0.37281   0.33771   0.00000  Uiso   1.00
H715   H     0.03820   0.44033   0.65874   0.00000  Uiso   1.00
H716   H     0.07536   0.39898   0.63947   0.00000  Uiso   1.00
H717   H     0.13771   0.40776   0.37933   0.00000  Uiso   1.00
H718   H     0.09605   0.44302   0.40266   0.00000  Uiso   1.00
C719   C     0.22250   0.56699   0.62922   0.00000  Uiso   1.00
C720   C     0.26956   0.58502   0.66271   0.00000  Uiso   1.00
C721   C     0.29930   0.61738   0.63871   0.00000  Uiso   1.00
H722   H     0.30967   0.60468   0.60532   0.00000  Uiso   1.00
H723   H     0.27598   0.64493   0.63121   0.00000  Uiso   1.00
H724   H     0.00163   0.62719   0.66229   0.00000  Uiso   1.00
H725   H     0.25797   0.60102   0.36053   0.00000  Uiso   1.00
H726   H     0.29513   0.55967   0.34126   0.00000  Uiso   1.00
H727   H     0.23728   0.55698   0.59734   0.00000  Uiso   1.00
H728   H     0.19562   0.59224   0.62067   0.00000  Uiso   1.00
C729   C     0.50081   0.42086   0.49960   0.00000  Uiso   1.00
C730   C     0.49919   0.57914   0.50040   0.00000  Uiso   1.00
C731   C     0.40143   0.49985   0.48801   0.00000  Uiso   1.00
C732   C     0.59857   0.50015   0.51199   0.00000  Uiso   1.00
C733   C     0.34640   0.49738   0.48139   0.00000  Uiso   1.00
C734   C     0.65360   0.50262   0.51861   0.00000  Uiso   1.00
C735   C     0.46050   0.35347   0.47316   0.00000  Uiso   1.00
C736   C     0.53950   0.64654   0.52684   0.00000  Uiso   1.00
C737   C     0.45853   0.64378   0.47407   0.00000  Uiso   1.00
C738   C     0.54147   0.35622   0.52593   0.00000  Uiso   1.00
C739   C     0.49838   0.62375   0.50104   0.00000  Uiso   1.00
C740   C     0.50162   0.37625   0.49896   0.00000  Uiso   1.00
C741   C     0.47309   0.46930   0.35250   0.00000  Uiso   1.00
C742   C     0.52691   0.53070   0.64750   0.00000  Uiso   1.00
C743   C     0.47450   0.46958   0.63659   0.00000  Uiso   1.00
C744   C     0.52550   0.53042   0.36341   0.00000  Uiso   1.00
Cu745  Cu    0.50000   0.50001   0.54689   0.00000  Uiso   1.00
Cu746  Cu    0.50000   0.49999   0.45311   0.00000  Uiso   1.00
H747   H     0.42938   0.36924   0.45345   0.00000  Uiso   1.00
H748   H     0.57062   0.63076   0.54655   0.00000  Uiso   1.00
H749   H     0.45521   0.44566   0.61295   0.00000  Uiso   1.00
H750   H     0.54479   0.55434   0.38705   0.00000  Uiso   1.00
N751   N     0.50001   0.50001   0.61736   0.00000  Uiso   1.00
N752   N     0.49999   0.49999   0.38264   0.00000  Uiso   1.00
O753   O     0.50000   0.43989   0.53958   0.00000  Uiso   1.00
O754   O     0.50000   0.56011   0.46042   0.00000  Uiso   1.00
O755   O     0.50000   0.43988   0.46039   0.00000  Uiso   1.00
O756   O     0.50000   0.56012   0.53961   0.00000  Uiso   1.00
O757   O     0.42495   0.50000   0.53046   0.00000  Uiso   1.00
O758   O     0.57505   0.50000   0.46954   0.00000  Uiso   1.00
O759   O     0.42494   0.49999   0.45127   0.00000  Uiso   1.00
O760   O     0.57506   0.50001   0.54873   0.00000  Uiso   1.00
I761   I     0.64788   0.48145   0.40919   0.00000  Uiso   1.00
I762   I     0.35212   0.51855   0.59081   0.00000  Uiso   1.00
I763   I     0.39327   0.61113   0.43660   0.00000  Uiso   1.00
I764   I     0.60673   0.38887   0.56340   0.00000  Uiso   1.00
C765   C     0.44416   0.43301   0.37078   0.00000  Uiso   1.00
C766   C     0.39711   0.41498   0.33729   0.00000  Uiso   1.00
C767   C     0.36736   0.38262   0.36129   0.00000  Uiso   1.00
H768   H     0.39068   0.35507   0.36879   0.00000  Uiso   1.00
H769   H     0.35700   0.39532   0.39468   0.00000  Uiso   1.00
H770   H     0.66504   0.37281   0.33771   0.00000  Uiso   1.00
H771   H     0.37154   0.44033   0.65874   0.00000  Uiso   1.00
H772   H     0.40870   0.39898   0.63947   0.00000  Uiso   1.00
H773   H     0.47104   0.40776   0.37933   0.00000  Uiso   1.00
H774   H     0.42939   0.44302   0.40266   0.00000  Uiso   1.00
C775   C     0.55584   0.56699   0.62922   0.00000  Uiso   1.00
C776   C     0.60289   0.58502   0.66271   0.00000  Uiso   1.00
C777   C     0.63264   0.61738   0.63871   0.00000  Uiso   1.00
H778   H     0.64300   0.60468   0.60532   0.00000  Uiso   1.00
H779   H     0.60932   0.64493   0.63121   0.00000  Uiso   1.00
H780   H     0.33496   0.62719   0.66229   0.00000  Uiso   1.00
H781   H     0.59130   0.60102   0.36053   0.00000  Uiso   1.00
H782   H     0.62846   0.55967   0.34126   0.00000  Uiso   1.00
H783   H     0.57061   0.55698   0.59734   0.00000  Uiso   1.00
H784   H     0.52896   0.59224   0.62067   0.00000  Uiso   1.00
C785   C     0.83414   0.42086   0.49960   0.00000  Uiso   1.00
C786   C     0.83252   0.57914   0.50040   0.00000  Uiso   1.00
C787   C     0.73476   0.49985   0.48801   0.00000  Uiso   1.00
C788   C     0.93190   0.50015   0.51199   0.00000  Uiso   1.00
C789   C     0.67974   0.49738   0.48139   0.00000  Uiso   1.00
C790   C     0.98693   0.50262   0.51861   0.00000  Uiso   1.00
C791   C     0.79383   0.35347   0.47316   0.00000  Uiso   1.00
C792   C     0.87284   0.64654   0.52684   0.00000  Uiso   1.00
C793   C     0.79186   0.64378   0.47407   0.00000  Uiso   1.00
C794   C     0.87480   0.35622   0.52593   0.00000  Uiso   1.00
C795   C     0.83171   0.62375   0.50104   0.00000  Uiso   1.00
C796   C     0.83495   0.37625   0.49896   0.00000  Uiso   1.00
C797   C     0.80642   0.46930   0.35250   0.00000  Uiso   1.00
C798   C     0.86024   0.53070   0.64750   0.00000  Uiso   1.00
C799   C     0.80783   0.46958   0.63659   0.00000  Uiso   1.00
C800   C     0.85883   0.53042   0.36341   0.00000  Uiso   1.00
Cu801  Cu    0.83333   0.50001   0.54689   0.00000  Uiso   1.00
Cu802  Cu    0.83333   0.49999   0.45311   0.00000  Uiso   1.00
H803   H     0.76271   0.36924   0.45345   0.00000  Uiso   1.00
H804   H     0.90396   0.63076   0.54655   0.00000  Uiso   1.00
H805   H     0.78854   0.44566   0.61295   0.00000  Uiso   1.00
H806   H     0.87813   0.55434   0.38705   0.00000  Uiso   1.00
N807   N     0.83335   0.50001   0.61736   0.00000  Uiso   1.00
N808   N     0.83332   0.49999   0.38264   0.00000  Uiso   1.00
O809   O     0.83333   0.43989   0.53958   0.00000  Uiso   1.00
O810   O     0.83334   0.56011   0.46042   0.00000  Uiso   1.00
O811   O     0.83333   0.43988   0.46039   0.00000  Uiso   1.00
O812   O     0.83334   0.56012   0.53961   0.00000  Uiso   1.00
O813   O     0.75828   0.50000   0.53046   0.00000  Uiso   1.00
O814   O     0.90839   0.50000   0.46954   0.00000  Uiso   1.00
O815   O     0.75828   0.49999   0.45127   0.00000  Uiso   1.00
O816   O     0.90839   0.50001   0.54873   0.00000  Uiso   1.00
I817   I     0.98121   0.48145   0.40919   0.00000  Uiso   1.00
I818   I     0.68546   0.51855   0.59081   0.00000  Uiso   1.00
I819   I     0.72660   0.61113   0.43660   0.00000  Uiso   1.00
I820   I     0.94007   0.38887   0.56340   0.00000  Uiso   1.00
C821   C     0.77750   0.43301   0.37078   0.00000  Uiso   1.00
C822   C     0.73044   0.41498   0.33729   0.00000  Uiso   1.00
C823   C     0.70070   0.38262   0.36129   0.00000  Uiso   1.00
H824   H     0.72402   0.35507   0.36879   0.00000  Uiso   1.00
H825   H     0.69033   0.39532   0.39468   0.00000  Uiso   1.00
H826   H     0.99837   0.37281   0.33771   0.00000  Uiso   1.00
H827   H     0.70487   0.44033   0.65874   0.00000  Uiso   1.00
H828   H     0.74203   0.39898   0.63947   0.00000  Uiso   1.00
H829   H     0.80438   0.40776   0.37933   0.00000  Uiso   1.00
H830   H     0.76272   0.44302   0.40266   0.00000  Uiso   1.00
C831   C     0.88917   0.56699   0.62922   0.00000  Uiso   1.00
C832   C     0.93623   0.58502   0.66271   0.00000  Uiso   1.00
C833   C     0.96597   0.61738   0.63871   0.00000  Uiso   1.00
H834   H     0.97633   0.60468   0.60532   0.00000  Uiso   1.00
H835   H     0.94265   0.64493   0.63121   0.00000  Uiso   1.00
H836   H     0.66829   0.62719   0.66229   0.00000  Uiso   1.00
H837   H     0.92464   0.60102   0.36053   0.00000  Uiso   1.00
H838   H     0.96180   0.55967   0.34126   0.00000  Uiso   1.00
H839   H     0.90394   0.55698   0.59734   0.00000  Uiso   1.00
H840   H     0.86229   0.59224   0.62067   0.00000  Uiso   1.00
C841   C     0.16747   0.75419   0.49960   0.00000  Uiso   1.00
C842   C     0.16586   0.91248   0.50040   0.00000  Uiso   1.00
C843   C     0.06810   0.83318   0.48801   0.00000  Uiso   1.00
C844   C     0.26524   0.83349   0.51199   0.00000  Uiso   1.00
C845   C     0.01307   0.83071   0.48139   0.00000  Uiso   1.00
C846   C     0.32026   0.83595   0.51861   0.00000  Uiso   1.00
C847   C     0.12716   0.68680   0.47316   0.00000  Uiso   1.00
C848   C     0.20617   0.97987   0.52684   0.00000  Uiso   1.00
C849   C     0.12520   0.97711   0.47407   0.00000  Uiso   1.00
C850   C     0.20814   0.68956   0.52593   0.00000  Uiso   1.00
C851   C     0.16505   0.95708   0.50104   0.00000  Uiso   1.00
C852   C     0.16829   0.70958   0.49896   0.00000  Uiso   1.00
C853   C     0.13976   0.80263   0.35250   0.00000  Uiso   1.00
C854   C     0.19358   0.86404   0.64750   0.00000  Uiso   1.00
C855   C     0.14117   0.80291   0.63659   0.00000  Uiso   1.00
C856   C     0.19217   0.86375   0.36341   0.00000  Uiso   1.00
Cu857  Cu    0.16667   0.83334   0.54689   0.00000  Uiso   1.00
Cu858  Cu    0.16667   0.83333   0.45311   0.00000  Uiso   1.00
H859   H     0.09604   0.70258   0.45345   0.00000  Uiso   1.00
H860   H     0.23729   0.96409   0.54655   0.00000  Uiso   1.00
H861   H     0.12187   0.77900   0.61295   0.00000  Uiso   1.00
H862   H     0.21146   0.88767   0.38705   0.00000  Uiso   1.00
N863   N     0.16668   0.83334   0.61736   0.00000  Uiso   1.00
N864   N     0.16665   0.83332   0.38264   0.00000  Uiso   1.00
O865   O     0.16666   0.77322   0.53958   0.00000  Uiso   1.00
O866   O     0.16667   0.89345   0.46042   0.00000  Uiso   1.00
O867   O     0.16666   0.77321   0.46039   0.00000  Uiso   1.00
O868   O     0.16667   0.89346   0.53961   0.00000  Uiso   1.00
O869   O     0.09161   0.83334   0.53046   0.00000  Uiso   1.00
O870   O     0.24172   0.83333   0.46954   0.00000  Uiso   1.00
O871   O     0.09161   0.83333   0.45127   0.00000  Uiso   1.00
O872   O     0.24172   0.83334   0.54873   0.00000  Uiso   1.00
I873   I     0.31454   0.81478   0.40919   0.00000  Uiso   1.00
I874   I     0.01879   0.85188   0.59081   0.00000  Uiso   1.00
I875   I     0.05993   0.94446   0.43660   0.00000  Uiso   1.00
I876   I     0.27340   0.72221   0.56340   0.00000  Uiso   1.00
C877   C     0.11083   0.76634   0.37078   0.00000  Uiso   1.00
C878   C     0.06377   0.74832   0.33729   0.00000  Uiso   1.00
C879   C     0.03403   0.71595   0.36129   0.00000  Uiso   1.00
H880   H     0.05735   0.68840   0.36879   0.00000  Uiso   1.00
H881   H     0.02367   0.72865   0.39468   0.00000  Uiso   1.00
H882   H     0.33171   0.70615   0.33771   0.00000  Uiso   1.00
H883   H     0.03820   0.77366   0.65874   0.00000  Uiso   1.00
H884   H     0.07536   0.73232   0.63947   0.00000  Uiso   1.00
H885   H     0.13771   0.74110   0.37933   0.00000  Uiso   1.00
H886   H     0.09605   0.77636   0.40266   0.00000  Uiso   1.00
C887   C     0.22250   0.90032   0.62922   0.00000  Uiso   1.00
C888   C     0.26956   0.91835   0.66271   0.00000  Uiso   1.00
C889   C     0.29930   0.95071   0.63871   0.00000  Uiso   1.00
H890   H     0.30967   0.93801   0.60532   0.00000  Uiso   1.00
H891   H     0.27598   0.97826   0.63121   0.00000  Uiso   1.00
H892   H     0.00163   0.96052   0.66229   0.00000  Uiso   1.00
H893   H     0.25797   0.93435   0.36053   0.00000  Uiso   1.00
H894   H     0.29513   0.89300   0.34126   0.00000  Uiso   1.00
H895   H     0.23728   0.89031   0.59734   0.00000  Uiso   1.00
H896   H     0.19562   0.92557   0.62067   0.00000  Uiso   1.00
C897   C     0.50081   0.75419   0.49960   0.00000  Uiso   1.00
C898   C     0.49919   0.91248   0.50040   0.00000  Uiso   1.00
C899   C     0.40143   0.83318   0.48801   0.00000  Uiso   1.00
C900   C     0.59857   0.83349   0.51199   0.00000  Uiso   1.00
C901   C     0.34640   0.83071   0.48139   0.00000  Uiso   1.00
C902   C     0.65360   0.83595   0.51861   0.00000  Uiso   1.00
C903   C     0.46050   0.68680   0.47316   0.00000  Uiso   1.00
C904   C     0.53950   0.97987   0.52684   0.00000  Uiso   1.00
C905   C     0.45853   0.97711   0.47407   0.00000  Uiso   1.00
C906   C     0.54147   0.68956   0.52593   0.00000  Uiso   1.00
C907   C     0.49838   0.95708   0.50104   0.00000  Uiso   1.00
C908   C     0.50162   0.70958   0.49896   0.00000  Uiso   1.00
C909   C     0.47309   0.80263   0.35250   0.00000  Uiso   1.00
C910   C     0.52691   0.86404   0.64750   0.00000  Uiso   1.00
C911   C     0.47450   0.80291   0.63659   0.00000  Uiso   1.00
C912   C     0.52550   0.86375   0.36341   0.00000  Uiso   1.00
Cu913  Cu    0.50000   0.83334   0.54689   0.00000  Uiso   1.00
Cu914  Cu    0.50000   0.83333   0.45311   0.00000  Uiso   1.00
H915   H     0.42938   0.70258   0.45345   0.00000  Uiso   1.00
H916   H     0.57062   0.96409   0.54655   0.00000  Uiso   1.00
H917   H     0.45521   0.77900   0.61295   0.00000  Uiso   1.00
H918   H     0.54479   0.88767   0.38705   0.00000  Uiso   1.00
N919   N     0.50001   0.83334   0.61736   0.00000  Uiso   1.00
N920   N     0.49999   0.83332   0.38264   0.00000  Uiso   1.00
O921   O     0.50000   0.77322   0.53958   0.00000  Uiso   1.00
O922   O     0.50000   0.89345   0.46042   0.00000  Uiso   1.00
O923   O     0.50000   0.77321   0.46039   0.00000  Uiso   1.00
O924   O     0.50000   0.89346   0.53961   0.00000  Uiso   1.00
O925   O     0.42495   0.83334   0.53046   0.00000  Uiso   1.00
O926   O     0.57505   0.83333   0.46954   0.00000  Uiso   1.00
O927   O     0.42494   0.83333   0.45127   0.00000  Uiso   1.00
O928   O     0.57506   0.83334   0.54873   0.00000  Uiso   1.00
I929   I     0.64788   0.81478   0.40919   0.00000  Uiso   1.00
I930   I     0.35212   0.85188   0.59081   0.00000  Uiso   1.00
I931   I     0.39327   0.94446   0.43660   0.00000  Uiso   1.00
I932   I     0.60673   0.72221   0.56340   0.00000  Uiso   1.00
C933   C     0.44416   0.76634   0.37078   0.00000  Uiso   1.00
C934   C     0.39711   0.74832   0.33729   0.00000  Uiso   1.00
C935   C     0.36736   0.71595   0.36129   0.00000  Uiso   1.00
H936   H     0.39068   0.68840   0.36879   0.00000  Uiso   1.00
H937   H     0.35700   0.72865   0.39468   0.00000  Uiso   1.00
H938   H     0.66504   0.70615   0.33771   0.00000  Uiso   1.00
H939   H     0.37154   0.77366   0.65874   0.00000  Uiso   1.00
H940   H     0.40870   0.73232   0.63947   0.00000  Uiso   1.00
H941   H     0.47104   0.74110   0.37933   0.00000  Uiso   1.00
H942   H     0.42939   0.77636   0.40266   0.00000  Uiso   1.00
C943   C     0.55584   0.90032   0.62922   0.00000  Uiso   1.00
C944   C     0.60289   0.91835   0.66271   0.00000  Uiso   1.00
C945   C     0.63264   0.95071   0.63871   0.00000  Uiso   1.00
H946   H     0.64300   0.93801   0.60532   0.00000  Uiso   1.00
H947   H     0.60932   0.97826   0.63121   0.00000  Uiso   1.00
H948   H     0.33496   0.96052   0.66229   0.00000  Uiso   1.00
H949   H     0.59130   0.93435   0.36053   0.00000  Uiso   1.00
H950   H     0.62846   0.89300   0.34126   0.00000  Uiso   1.00
H951   H     0.57061   0.89031   0.59734   0.00000  Uiso   1.00
H952   H     0.52896   0.92557   0.62067   0.00000  Uiso   1.00
C953   C     0.83414   0.75419   0.49960   0.00000  Uiso   1.00
C954   C     0.83252   0.91248   0.50040   0.00000  Uiso   1.00
C955   C     0.73476   0.83318   0.48801   0.00000  Uiso   1.00
C956   C     0.93190   0.83349   0.51199   0.00000  Uiso   1.00
C957   C     0.67974   0.83071   0.48139   0.00000  Uiso   1.00
C958   C     0.98693   0.83595   0.51861   0.00000  Uiso   1.00
C959   C     0.79383   0.68680   0.47316   0.00000  Uiso   1.00
C960   C     0.87284   0.97987   0.52684   0.00000  Uiso   1.00
C961   C     0.79186   0.97711   0.47407   0.00000  Uiso   1.00
C962   C     0.87480   0.68956   0.52593   0.00000  Uiso   1.00
C963   C     0.83171   0.95708   0.50104   0.00000  Uiso   1.00
C964   C     0.83495   0.70958   0.49896   0.00000  Uiso   1.00
C965   C     0.80642   0.80263   0.35250   0.00000  Uiso   1.00
C966   C     0.86024   0.86404   0.64750   0.00000  Uiso   1.00
C967   C     0.80783   0.80291   0.63659   0.00000  Uiso   1.00
C968   C     0.85883   0.86375   0.36341   0.00000  Uiso   1.00
Cu969  Cu    0.83333   0.83334   0.54689   0.00000  Uiso   1.00
Cu970  Cu    0.83333   0.83333   0.45311   0.00000  Uiso   1.00
H971   H     0.76271   0.70258   0.45345   0.00000  Uiso   1.00
H972   H     0.90396   0.96409   0.54655   0.00000  Uiso   1.00
H973   H     0.78854   0.77900   0.61295   0.00000  Uiso   1.00
H974   H     0.87813   0.88767   0.38705   0.00000  Uiso   1.00
N975   N     0.83335   0.83334   0.61736   0.00000  Uiso   1.00
N976   N     0.83332   0.83332   0.38264   0.00000  Uiso   1.00
O977   O     0.83333   0.77322   0.53958   0.00000  Uiso   1.00
O978   O     0.83334   0.89345   0.46042   0.00000  Uiso   1.00
O979   O     0.83333   0.77321   0.46039   0.00000  Uiso   1.00
O980   O     0.83334   0.89346   0.53961   0.00000  Uiso   1.00
O981   O     0.75828   0.83334   0.53046   0.00000  Uiso   1.00
O982   O     0.90839   0.83333   0.46954   0.00000  Uiso   1.00
O983   O     0.75828   0.83333   0.45127   0.00000  Uiso   1.00
O984   O     0.90839   0.83334   0.54873   0.00000  Uiso   1.00
I985   I     0.98121   0.81478   0.40919   0.00000  Uiso   1.00
I986   I     0.68546   0.85188   0.59081   0.00000  Uiso   1.00
I987   I     0.72660   0.94446   0.43660   0.00000  Uiso   1.00
I988   I     0.94007   0.72221   0.56340   0.00000  Uiso   1.00
C989   C     0.77750   0.76634   0.37078   0.00000  Uiso   1.00
C990   C     0.73044   0.74832   0.33729   0.00000  Uiso   1.00
C991   C     0.70070   0.71595   0.36129   0.00000  Uiso   1.00
H992   H     0.72402   0.68840   0.36879   0.00000  Uiso   1.00
H993   H     0.69033   0.72865   0.39468   0.00000  Uiso   1.00
H994   H     0.99837   0.70615   0.33771   0.00000  Uiso   1.00
H995   H     0.70487   0.77366   0.65874   0.00000  Uiso   1.00
H996   H     0.74203   0.73232   0.63947   0.00000  Uiso   1.00
H997   H     0.80438   0.74110   0.37933   0.00000  Uiso   1.00
H998   H     0.76272   0.77636   0.40266   0.00000  Uiso   1.00
C999   C     0.88917   0.90032   0.62922   0.00000  Uiso   1.00
C1000  C     0.93623   0.91835   0.66271   0.00000  Uiso   1.00
C1001  C     0.96597   0.95071   0.63871   0.00000  Uiso   1.00
H1002  H     0.97633   0.93801   0.60532   0.00000  Uiso   1.00
H1003  H     0.94265   0.97826   0.63121   0.00000  Uiso   1.00
H1004  H     0.66829   0.96052   0.66229   0.00000  Uiso   1.00
H1005  H     0.92464   0.93435   0.36053   0.00000  Uiso   1.00
H1006  H     0.96180   0.89300   0.34126   0.00000  Uiso   1.00
H1007  H     0.90394   0.89031   0.59734   0.00000  Uiso   1.00
H1008  H     0.86229   0.92557   0.62067   0.00000  Uiso   1.00
C1009  C     0.16747   0.08752   0.83293   0.00000  Uiso   1.00
C1010  C     0.16586   0.24581   0.83373   0.00000  Uiso   1.00
C1011  C     0.06810   0.16651   0.82134   0.00000  Uiso   1.00
C1012  C     0.26524   0.16682   0.84533   0.00000  Uiso   1.00
C1013  C     0.01307   0.16405   0.81473   0.00000  Uiso   1.00
C1014  C     0.32026   0.16929   0.85194   0.00000  Uiso   1.00
C1015  C     0.12716   0.02013   0.80650   0.00000  Uiso   1.00
C1016  C     0.20617   0.31320   0.86017   0.00000  Uiso   1.00
C1017  C     0.12520   0.31045   0.80740   0.00000  Uiso   1.00
C1018  C     0.20814   0.02289   0.85926   0.00000  Uiso   1.00
C1019  C     0.16505   0.29042   0.83438   0.00000  Uiso   1.00
C1020  C     0.16829   0.04292   0.83229   0.00000  Uiso   1.00
C1021  C     0.13976   0.13596   0.68583   0.00000  Uiso   1.00
C1022  C     0.19358   0.19737   0.98084   0.00000  Uiso   1.00
C1023  C     0.14117   0.13625   0.96992   0.00000  Uiso   1.00
C1024  C     0.19217   0.19709   0.69674   0.00000  Uiso   1.00
Cu1025 Cu    0.16667   0.16667   0.88022   0.00000  Uiso   1.00
Cu1026 Cu    0.16667   0.16666   0.78645   0.00000  Uiso   1.00
H1027  H     0.09604   0.03591   0.78678   0.00000  Uiso   1.00
H1028  H     0.23729   0.29742   0.87989   0.00000  Uiso   1.00
H1029  H     0.12187   0.11233   0.94629   0.00000  Uiso   1.00
H1030  H     0.21146   0.22100   0.72038   0.00000  Uiso   1.00
N1031  N     0.16668   0.16668   0.95069   0.00000  Uiso   1.00
N1032  N     0.16665   0.16666   0.71597   0.00000  Uiso   1.00
O1033  O     0.16666   0.10655   0.87291   0.00000  Uiso   1.00
O1034  O     0.16667   0.22678   0.79375   0.00000  Uiso   1.00
O1035  O     0.16666   0.10654   0.79372   0.00000  Uiso   1.00
O1036  O     0.16667   0.22679   0.87294   0.00000  Uiso   1.00
O1037  O     0.09161   0.16667   0.86379   0.00000  Uiso   1.00
O1038  O     0.24172   0.16666   0.80288   0.00000  Uiso   1.00
O1039  O     0.09161   0.16666   0.78460   0.00000  Uiso   1.00
O1040  O     0.24172   0.16667   0.88207   0.00000  Uiso   1.00
I1041  I     0.31454   0.14812   0.74252   0.00000  Uiso   1.00
I1042  I     0.01879   0.18522   0.92415   0.00000  Uiso   1.00
I1043  I     0.05993   0.27779   0.76994   0.00000  Uiso   1.00
I1044  I     0.27340   0.05554   0.89673   0.00000  Uiso   1.00
C1045  C     0.11083   0.09968   0.70411   0.00000  Uiso   1.00
C1046  C     0.06377   0.08165   0.67062   0.00000  Uiso   1.00
C1047  C     0.03403   0.04929   0.69462   0.00000  Uiso   1.00
H1048  H     0.05735   0.02174   0.70212   0.00000  Uiso   1.00
H1049  H     0.02367   0.06199   0.72802   0.00000  Uiso   1.00
H1050  H     0.33171   0.03948   0.67104   0.00000  Uiso   1.00
H1051  H     0.03820   0.10700   0.99207   0.00000  Uiso   1.00
H1052  H     0.07536   0.06565   0.97280   0.00000  Uiso   1.00
H1053  H     0.13771   0.07443   0.71267   0.00000  Uiso   1.00
H1054  H     0.09605   0.10969   0.73600   0.00000  Uiso   1.00
C1055  C     0.22250   0.23366   0.96255   0.00000  Uiso   1.00
C1056  C     0.26956   0.25168   0.99605   0.00000  Uiso   1.00
C1057  C     0.29930   0.28405   0.97204   0.00000  Uiso   1.00
H1058  H     0.30967   0.27135   0.93865   0.00000  Uiso   1.00
H1059  H     0.27598   0.31160   0.96455   0.00000  Uiso   1.00
H1060  H     0.00163   0.29385   0.99562   0.00000  Uiso   1.00
H1061  H     0.25797   0.26768   0.69387   0.00000  Uiso   1.00
H1062  H     0.29513   0.22634   0.67459   0.00000  Uiso   1.00
H1063  H     0.23728   0.22364   0.93067   0.00000  Uiso   1.00
H1064  H     0.19562   0.25890   0.95400   0.00000  Uiso   1.00
C1065  C     0.50081   0.08752   0.83293   0.00000  Uiso   1.00
C1066  C     0.49919   0.24581   0.83373   0.00000  Uiso   1.00
C1067  C     0.40143   0.16651   0.82134   0.00000  Uiso   1.00
C1068  C     0.59857   0.16682   0.84533   0.00000  Uiso   1.00
C1069  C     0.34640   0.16405   0.81473   0.00000  Uiso   1.00
C1070  C     0.65360   0.16929   0.85194   0.00000  Uiso   1.00
C1071  C     0.46050   0.02013   0.80650   0.00000  Uiso   1.00
C1072  C     0.53950   0.31320   0.86017   0.00000  Uiso   1.00
C1073  C     0.45853   0.31045   0.80740   0.00000  Uiso   1.00
C1074  C     0.54147   0.02289   0.85926   0.00000  Uiso   1.00
C1075  C     0.49838   0.29042   0.83438   0.00000  Uiso   1.00
C1076  C     0.50162   0.04292   0.83229   0.00000  Uiso   1.00
C1077  C     0.47309   0.13596   0.68583   0.00000  Uiso   1.00
C1078  C     0.52691   0.19737   0.98084   0.00000  Uiso   1.00
C1079  C     0.47450   0.13625   0.96992   0.00000  Uiso   1.00
C1080  C     0.52550   0.19709   0.69674   0.00000  Uiso   1.00
Cu1081 Cu    0.50000   0.16667   0.88022   0.00000  Uiso   1.00
Cu1082 Cu    0.50000   0.16666   0.78645   0.00000  Uiso   1.00
H1083  H     0.42938   0.03591   0.78678   0.00000  Uiso   1.00
H1084  H     0.57062   0.29742   0.87989   0.00000  Uiso   1.00
H1085  H     0.45521   0.11233   0.94629   0.00000  Uiso   1.00
H1086  H     0.54479   0.22100   0.72038   0.00000  Uiso   1.00
N1087  N     0.50001   0.16668   0.95069   0.00000  Uiso   1.00
N1088  N     0.49999   0.16666   0.71597   0.00000  Uiso   1.00
O1089  O     0.50000   0.10655   0.87291   0.00000  Uiso   1.00
O1090  O     0.50000   0.22678   0.79375   0.00000  Uiso   1.00
O1091  O     0.50000   0.10654   0.79372   0.00000  Uiso   1.00
O1092  O     0.50000   0.22679   0.87294   0.00000  Uiso   1.00
O1093  O     0.42495   0.16667   0.86379   0.00000  Uiso   1.00
O1094  O     0.57505   0.16666   0.80288   0.00000  Uiso   1.00
O1095  O     0.42494   0.16666   0.78460   0.00000  Uiso   1.00
O1096  O     0.57506   0.16667   0.88207   0.00000  Uiso   1.00
I1097  I     0.64788   0.14812   0.74252   0.00000  Uiso   1.00
I1098  I     0.35212   0.18522   0.92415   0.00000  Uiso   1.00
I1099  I     0.39327   0.27779   0.76994   0.00000  Uiso   1.00
I1100  I     0.60673   0.05554   0.89673   0.00000  Uiso   1.00
C1101  C     0.44416   0.09968   0.70411   0.00000  Uiso   1.00
C1102  C     0.39711   0.08165   0.67062   0.00000  Uiso   1.00
C1103  C     0.36736   0.04929   0.69462   0.00000  Uiso   1.00
H1104  H     0.39068   0.02174   0.70212   0.00000  Uiso   1.00
H1105  H     0.35700   0.06199   0.72802   0.00000  Uiso   1.00
H1106  H     0.66504   0.03948   0.67104   0.00000  Uiso   1.00
H1107  H     0.37154   0.10700   0.99207   0.00000  Uiso   1.00
H1108  H     0.40870   0.06565   0.97280   0.00000  Uiso   1.00
H1109  H     0.47104   0.07443   0.71267   0.00000  Uiso   1.00
H1110  H     0.42939   0.10969   0.73600   0.00000  Uiso   1.00
C1111  C     0.55584   0.23366   0.96255   0.00000  Uiso   1.00
C1112  C     0.60289   0.25168   0.99605   0.00000  Uiso   1.00
C1113  C     0.63264   0.28405   0.97204   0.00000  Uiso   1.00
H1114  H     0.64300   0.27135   0.93865   0.00000  Uiso   1.00
H1115  H     0.60932   0.31160   0.96455   0.00000  Uiso   1.00
H1116  H     0.33496   0.29385   0.99562   0.00000  Uiso   1.00
H1117  H     0.59130   0.26768   0.69387   0.00000  Uiso   1.00
H1118  H     0.62846   0.22634   0.67459   0.00000  Uiso   1.00
H1119  H     0.57061   0.22364   0.93067   0.00000  Uiso   1.00
H1120  H     0.52896   0.25890   0.95400   0.00000  Uiso   1.00
C1121  C     0.83414   0.08752   0.83293   0.00000  Uiso   1.00
C1122  C     0.83252   0.24581   0.83373   0.00000  Uiso   1.00
C1123  C     0.73476   0.16651   0.82134   0.00000  Uiso   1.00
C1124  C     0.93190   0.16682   0.84533   0.00000  Uiso   1.00
C1125  C     0.67974   0.16405   0.81473   0.00000  Uiso   1.00
C1126  C     0.98693   0.16929   0.85194   0.00000  Uiso   1.00
C1127  C     0.79383   0.02013   0.80650   0.00000  Uiso   1.00
C1128  C     0.87284   0.31320   0.86017   0.00000  Uiso   1.00
C1129  C     0.79186   0.31045   0.80740   0.00000  Uiso   1.00
C1130  C     0.87480   0.02289   0.85926   0.00000  Uiso   1.00
C1131  C     0.83171   0.29042   0.83438   0.00000  Uiso   1.00
C1132  C     0.83495   0.04292   0.83229   0.00000  Uiso   1.00
C1133  C     0.80642   0.13596   0.68583   0.00000  Uiso   1.00
C1134  C     0.86024   0.19737   0.98084   0.00000  Uiso   1.00
C1135  C     0.80783   0.13625   0.96992   0.00000  Uiso   1.00
C1136  C     0.85883   0.19709   0.69674   0.00000  Uiso   1.00
Cu1137 Cu    0.83333   0.16667   0.88022   0.00000  Uiso   1.00
Cu1138 Cu    0.83333   0.16666   0.78645   0.00000  Uiso   1.00
H1139  H     0.76271   0.03591   0.78678   0.00000  Uiso   1.00
H1140  H     0.90396   0.29742   0.87989   0.00000  Uiso   1.00
H1141  H     0.78854   0.11233   0.94629   0.00000  Uiso   1.00
H1142  H     0.87813   0.22100   0.72038   0.00000  Uiso   1.00
N1143  N     0.83335   0.16668   0.95069   0.00000  Uiso   1.00
N1144  N     0.83332   0.16666   0.71597   0.00000  Uiso   1.00
O1145  O     0.83333   0.10655   0.87291   0.00000  Uiso   1.00
O1146  O     0.83334   0.22678   0.79375   0.00000  Uiso   1.00
O1147  O     0.83333   0.10654   0.79372   0.00000  Uiso   1.00
O1148  O     0.83334   0.22679   0.87294   0.00000  Uiso   1.00
O1149  O     0.75828   0.16667   0.86379   0.00000  Uiso   1.00
O1150  O     0.90839   0.16666   0.80288   0.00000  Uiso   1.00
O1151  O     0.75828   0.16666   0.78460   0.00000  Uiso   1.00
O1152  O     0.90839   0.16667   0.88207   0.00000  Uiso   1.00
I1153  I     0.98121   0.14812   0.74252   0.00000  Uiso   1.00
I1154  I     0.68546   0.18522   0.92415   0.00000  Uiso   1.00
I1155  I     0.72660   0.27779   0.76994   0.00000  Uiso   1.00
I1156  I     0.94007   0.05554   0.89673   0.00000  Uiso   1.00
C1157  C     0.77750   0.09968   0.70411   0.00000  Uiso   1.00
C1158  C     0.73044   0.08165   0.67062   0.00000  Uiso   1.00
C1159  C     0.70070   0.04929   0.69462   0.00000  Uiso   1.00
H1160  H     0.72402   0.02174   0.70212   0.00000  Uiso   1.00
H1161  H     0.69033   0.06199   0.72802   0.00000  Uiso   1.00
H1162  H     0.99837   0.03948   0.67104   0.00000  Uiso   1.00
H1163  H     0.70487   0.10700   0.99207   0.00000  Uiso   1.00
H1164  H     0.74203   0.06565   0.97280   0.00000  Uiso   1.00
H1165  H     0.80438   0.07443   0.71267   0.00000  Uiso   1.00
H1166  H     0.76272   0.10969   0.73600   0.00000  Uiso   1.00
C1167  C     0.88917   0.23366   0.96255   0.00000  Uiso   1.00
C1168  C     0.93623   0.25168   0.99605   0.00000  Uiso   1.00
C1169  C     0.96597   0.28405   0.97204   0.00000  Uiso   1.00
H1170  H     0.97633   0.27135   0.93865   0.00000  Uiso   1.00
H1171  H     0.94265   0.31160   0.96455   0.00000  Uiso   1.00
H1172  H     0.66829   0.29385   0.99562   0.00000  Uiso   1.00
H1173  H     0.92464   0.26768   0.69387   0.00000  Uiso   1.00
H1174  H     0.96180   0.22634   0.67459   0.00000  Uiso   1.00
H1175  H     0.90394   0.22364   0.93067   0.00000  Uiso   1.00
H1176  H     0.86229   0.25890   0.95400   0.00000  Uiso   1.00
C1177  C     0.16747   0.42086   0.83293   0.00000  Uiso   1.00
C1178  C     0.16586   0.57914   0.83373   0.00000  Uiso   1.00
C1179  C     0.06810   0.49985   0.82134   0.00000  Uiso   1.00
C1180  C     0.26524   0.50015   0.84533   0.00000  Uiso   1.00
C1181  C     0.01307   0.49738   0.81473   0.00000  Uiso   1.00
C1182  C     0.32026   0.50262   0.85194   0.00000  Uiso   1.00
C1183  C     0.12716   0.35347   0.80650   0.00000  Uiso   1.00
C1184  C     0.20617   0.64654   0.86017   0.00000  Uiso   1.00
C1185  C     0.12520   0.64378   0.80740   0.00000  Uiso   1.00
C1186  C     0.20814   0.35622   0.85926   0.00000  Uiso   1.00
C1187  C     0.16505   0.62375   0.83438   0.00000  Uiso   1.00
C1188  C     0.16829   0.37625   0.83229   0.00000  Uiso   1.00
C1189  C     0.13976   0.46930   0.68583   0.00000  Uiso   1.00
C1190  C     0.19358   0.53070   0.98084   0.00000  Uiso   1.00
C1191  C     0.14117   0.46958   0.96992   0.00000  Uiso   1.00
C1192  C     0.19217   0.53042   0.69674   0.00000  Uiso   1.00
Cu1193 Cu    0.16667   0.50001   0.88022   0.00000  Uiso   1.00
Cu1194 Cu    0.16667   0.49999   0.78645   0.00000  Uiso   1.00
H1195  H     0.09604   0.36924   0.78678   0.00000  Uiso   1.00
H1196  H     0.23729   0.63076   0.87989   0.00000  Uiso   1.00
H1197  H     0.12187   0.44566   0.94629   0.00000  Uiso   1.00
H1198  H     0.21146   0.55434   0.72038   0.00000  Uiso   1.00
N1199  N     0.16668   0.50001   0.95069   0.00000  Uiso   1.00
N1200  N     0.16665   0.49999   0.71597   0.00000  Uiso   1.00
O1201  O     0.16666   0.43989   0.87291   0.00000  Uiso   1.00
O1202  O     0.16667   0.56011   0.79375   0.00000  Uiso   1.00
O1203  O     0.16666   0.43988   0.79372   0.00000  Uiso   1.00
O1204  O     0.16667   0.56012   0.87294   0.00000  Uiso   1.00
O1205  O     0.09161   0.50000   0.86379   0.00000  Uiso   1.00
O1206  O     0.24172   0.50000   0.80288   0.00000  Uiso   1.00
O1207  O     0.09161   0.49999   0.78460   0.00000  Uiso   1.00
O1208  O     0.24172   0.50001   0.88207   0.00000  Uiso   1.00
I1209  I     0.31454   0.48145   0.74252   0.00000  Uiso   1.00
I1210  I     0.01879   0.51855   0.92415   0.00000  Uiso   1.00
I1211  I     0.05993   0.61113   0.76994   0.00000  Uiso   1.00
I1212  I     0.27340   0.38887   0.89673   0.00000  Uiso   1.00
C1213  C     0.11083   0.43301   0.70411   0.00000  Uiso   1.00
C1214  C     0.06377   0.41498   0.67062   0.00000  Uiso   1.00
C1215  C     0.03403   0.38262   0.69462   0.00000  Uiso   1.00
H1216  H     0.05735   0.35507   0.70212   0.00000  Uiso   1.00
H1217  H     0.02367   0.39532   0.72802   0.00000  Uiso   1.00
H1218  H     0.33171   0.37281   0.67104   0.00000  Uiso   1.00
H1219  H     0.03820   0.44033   0.99207   0.00000  Uiso   1.00
H1220  H     0.07536   0.39898   0.97280   0.00000  Uiso   1.00
H1221  H     0.13771   0.40776   0.71267   0.00000  Uiso   1.00
H1222  H     0.09605   0.44302   0.73600   0.00000  Uiso   1.00
C1223  C     0.22250   0.56699   0.96255   0.00000  Uiso   1.00
C1224  C     0.26956   0.58502   0.99605   0.00000  Uiso   1.00
C1225  C     0.29930   0.61738   0.97204   0.00000  Uiso   1.00
H1226  H     0.30967   0.60468   0.93865   0.00000  Uiso   1.00
H1227  H     0.27598   0.64493   0.96455   0.00000  Uiso   1.00
H1228  H     0.00163   0.62719   0.99562   0.00000  Uiso   1.00
H1229  H     0.25797   0.60102   0.69387   0.00000  Uiso   1.00
H1230  H     0.29513   0.55967   0.67459   0.00000  Uiso   1.00
H1231  H     0.23728   0.55698   0.93067   0.00000  Uiso   1.00
H1232  H     0.19562   0.59224   0.95400   0.00000  Uiso   1.00
C1233  C     0.50081   0.42086   0.83293   0.00000  Uiso   1.00
C1234  C     0.49919   0.57914   0.83373   0.00000  Uiso   1.00
C1235  C     0.40143   0.49985   0.82134   0.00000  Uiso   1.00
C1236  C     0.59857   0.50015   0.84533   0.00000  Uiso   1.00
C1237  C     0.34640   0.49738   0.81473   0.00000  Uiso   1.00
C1238  C     0.65360   0.50262   0.85194   0.00000  Uiso   1.00
C1239  C     0.46050   0.35347   0.80650   0.00000  Uiso   1.00
C1240  C     0.53950   0.64654   0.86017   0.00000  Uiso   1.00
C1241  C     0.45853   0.64378   0.80740   0.00000  Uiso   1.00
C1242  C     0.54147   0.35622   0.85926   0.00000  Uiso   1.00
C1243  C     0.49838   0.62375   0.83438   0.00000  Uiso   1.00
C1244  C     0.50162   0.37625   0.83229   0.00000  Uiso   1.00
C1245  C     0.47309   0.46930   0.68583   0.00000  Uiso   1.00
C1246  C     0.52691   0.53070   0.98084   0.00000  Uiso   1.00
C1247  C     0.47450   0.46958   0.96992   0.00000  Uiso   1.00
C1248  C     0.52550   0.53042   0.69674   0.00000  Uiso   1.00
Cu1249 Cu    0.50000   0.50001   0.88022   0.00000  Uiso   1.00
Cu1250 Cu    0.50000   0.49999   0.78645   0.00000  Uiso   1.00
H1251  H     0.42938   0.36924   0.78678   0.00000  Uiso   1.00
H1252  H     0.57062   0.63076   0.87989   0.00000  Uiso   1.00
H1253  H     0.45521   0.44566   0.94629   0.00000  Uiso   1.00
H1254  H     0.54479   0.55434   0.72038   0.00000  Uiso   1.00
N1255  N     0.50001   0.50001   0.95069   0.00000  Uiso   1.00
N1256  N     0.49999   0.49999   0.71597   0.00000  Uiso   1.00
O1257  O     0.50000   0.43989   0.87291   0.00000  Uiso   1.00
O1258  O     0.50000   0.56011   0.79375   0.00000  Uiso   1.00
O1259  O     0.50000   0.43988   0.79372   0.00000  Uiso   1.00
O1260  O     0.50000   0.56012   0.87294   0.00000  Uiso   1.00
O1261  O     0.42495   0.50000   0.86379   0.00000  Uiso   1.00
O1262  O     0.57505   0.50000   0.80288   0.00000  Uiso   1.00
O1263  O     0.42494   0.49999   0.78460   0.00000  Uiso   1.00
O1264  O     0.57506   0.50001   0.88207   0.00000  Uiso   1.00
I1265  I     0.64788   0.48145   0.74252   0.00000  Uiso   1.00
I1266  I     0.35212   0.51855   0.92415   0.00000  Uiso   1.00
I1267  I     0.39327   0.61113   0.76994   0.00000  Uiso   1.00
I1268  I     0.60673   0.38887   0.89673   0.00000  Uiso   1.00
C1269  C     0.44416   0.43301   0.70411   0.00000  Uiso   1.00
C1270  C     0.39711   0.41498   0.67062   0.00000  Uiso   1.00
C1271  C     0.36736   0.38262   0.69462   0.00000  Uiso   1.00
H1272  H     0.39068   0.35507   0.70212   0.00000  Uiso   1.00
H1273  H     0.35700   0.39532   0.72802   0.00000  Uiso   1.00
H1274  H     0.66504   0.37281   0.67104   0.00000  Uiso   1.00
H1275  H     0.37154   0.44033   0.99207   0.00000  Uiso   1.00
H1276  H     0.40870   0.39898   0.97280   0.00000  Uiso   1.00
H1277  H     0.47104   0.40776   0.71267   0.00000  Uiso   1.00
H1278  H     0.42939   0.44302   0.73600   0.00000  Uiso   1.00
C1279  C     0.55584   0.56699   0.96255   0.00000  Uiso   1.00
C1280  C     0.60289   0.58502   0.99605   0.00000  Uiso   1.00
C1281  C     0.63264   0.61738   0.97204   0.00000  Uiso   1.00
H1282  H     0.64300   0.60468   0.93865   0.00000  Uiso   1.00
H1283  H     0.60932   0.64493   0.96455   0.00000  Uiso   1.00
H1284  H     0.33496   0.62719   0.99562   0.00000  Uiso   1.00
H1285  H     0.59130   0.60102   0.69387   0.00000  Uiso   1.00
H1286  H     0.62846   0.55967   0.67459   0.00000  Uiso   1.00
H1287  H     0.57061   0.55698   0.93067   0.00000  Uiso   1.00
H1288  H     0.52896   0.59224   0.95400   0.00000  Uiso   1.00
C1289  C     0.83414   0.42086   0.83293   0.00000  Uiso   1.00
C1290  C     0.83252   0.57914   0.83373   0.00000  Uiso   1.00
C1291  C     0.73476   0.49985   0.82134   0.00000  Uiso   1.00
C1292  C     0.93190   0.50015   0.84533   0.00000  Uiso   1.00
C1293  C     0.67974   0.49738   0.81473   0.00000  Uiso   1.00
C1294  C     0.98693   0.50262   0.85194   0.00000  Uiso   1.00
C1295  C     0.79383   0.35347   0.80650   0.00000  Uiso   1.00
C1296  C     0.87284   0.64654   0.86017   0.00000  Uiso   1.00
C1297  C     0.79186   0.64378   0.80740   0.00000  Uiso   1.00
C1298  C     0.87480   0.35622   0.85926   0.00000  Uiso   1.00
C1299  C     0.83171   0.62375   0.83438   0.00000  Uiso   1.00
C1300  C     0.83495   0.37625   0.83229   0.00000  Uiso   1.00
C1301  C     0.80642   0.46930   0.68583   0.00000  Uiso   1.00
C1302  C     0.86024   0.53070   0.98084   0.00000  Uiso   1.00
C1303  C     0.80783   0.46958   0.96992   0.00000  Uiso   1.00
C1304  C     0.85883   0.53042   0.69674   0.00000  Uiso   1.00
Cu1305 Cu    0.83333   0.50001   0.88022   0.00000  Uiso   1.00
Cu1306 Cu    0.83333   0.49999   0.78645   0.00000  Uiso   1.00
H1307  H     0.76271   0.36924   0.78678   0.00000  Uiso   1.00
H1308  H     0.90396   0.63076   0.87989   0.00000  Uiso   1.00
H1309  H     0.78854   0.44566   0.94629   0.00000  Uiso   1.00
H1310  H     0.87813   0.55434   0.72038   0.00000  Uiso   1.00
N1311  N     0.83335   0.50001   0.95069   0.00000  Uiso   1.00
N1312  N     0.83332   0.49999   0.71597   0.00000  Uiso   1.00
O1313  O     0.83333   0.43989   0.87291   0.00000  Uiso   1.00
O1314  O     0.83334   0.56011   0.79375   0.00000  Uiso   1.00
O1315  O     0.83333   0.43988   0.79372   0.00000  Uiso   1.00
O1316  O     0.83334   0.56012   0.87294   0.00000  Uiso   1.00
O1317  O     0.75828   0.50000   0.86379   0.00000  Uiso   1.00
O1318  O     0.90839   0.50000   0.80288   0.00000  Uiso   1.00
O1319  O     0.75828   0.49999   0.78460   0.00000  Uiso   1.00
O1320  O     0.90839   0.50001   0.88207   0.00000  Uiso   1.00
I1321  I     0.98121   0.48145   0.74252   0.00000  Uiso   1.00
I1322  I     0.68546   0.51855   0.92415   0.00000  Uiso   1.00
I1323  I     0.72660   0.61113   0.76994   0.00000  Uiso   1.00
I1324  I     0.94007   0.38887   0.89673   0.00000  Uiso   1.00
C1325  C     0.77750   0.43301   0.70411   0.00000  Uiso   1.00
C1326  C     0.73044   0.41498   0.67062   0.00000  Uiso   1.00
C1327  C     0.70070   0.38262   0.69462   0.00000  Uiso   1.00
H1328  H     0.72402   0.35507   0.70212   0.00000  Uiso   1.00
H1329  H     0.69033   0.39532   0.72802   0.00000  Uiso   1.00
H1330  H     0.99837   0.37281   0.67104   0.00000  Uiso   1.00
H1331  H     0.70487   0.44033   0.99207   0.00000  Uiso   1.00
H1332  H     0.74203   0.39898   0.97280   0.00000  Uiso   1.00
H1333  H     0.80438   0.40776   0.71267   0.00000  Uiso   1.00
H1334  H     0.76272   0.44302   0.73600   0.00000  Uiso   1.00
C1335  C     0.88917   0.56699   0.96255   0.00000  Uiso   1.00
C1336  C     0.93623   0.58502   0.99605   0.00000  Uiso   1.00
C1337  C     0.96597   0.61738   0.97204   0.00000  Uiso   1.00
H1338  H     0.97633   0.60468   0.93865   0.00000  Uiso   1.00
H1339  H     0.94265   0.64493   0.96455   0.00000  Uiso   1.00
H1340  H     0.66829   0.62719   0.99562   0.00000  Uiso   1.00
H1341  H     0.92464   0.60102   0.69387   0.00000  Uiso   1.00
H1342  H     0.96180   0.55967   0.67459   0.00000  Uiso   1.00
H1343  H     0.90394   0.55698   0.93067   0.00000  Uiso   1.00
H1344  H     0.86229   0.59224   0.95400   0.00000  Uiso   1.00
C1345  C     0.16747   0.75419   0.83293   0.00000  Uiso   1.00
C1346  C     0.16586   0.91248   0.83373   0.00000  Uiso   1.00
C1347  C     0.06810   0.83318   0.82134   0.00000  Uiso   1.00
C1348  C     0.26524   0.83349   0.84533   0.00000  Uiso   1.00
C1349  C     0.01307   0.83071   0.81473   0.00000  Uiso   1.00
C1350  C     0.32026   0.83595   0.85194   0.00000  Uiso   1.00
C1351  C     0.12716   0.68680   0.80650   0.00000  Uiso   1.00
C1352  C     0.20617   0.97987   0.86017   0.00000  Uiso   1.00
C1353  C     0.12520   0.97711   0.80740   0.00000  Uiso   1.00
C1354  C     0.20814   0.68956   0.85926   0.00000  Uiso   1.00
C1355  C     0.16505   0.95708   0.83438   0.00000  Uiso   1.00
C1356  C     0.16829   0.70958   0.83229   0.00000  Uiso   1.00
C1357  C     0.13976   0.80263   0.68583   0.00000  Uiso   1.00
C1358  C     0.19358   0.86404   0.98084   0.00000  Uiso   1.00
C1359  C     0.14117   0.80291   0.96992   0.00000  Uiso   1.00
C1360  C     0.19217   0.86375   0.69674   0.00000  Uiso   1.00
Cu1361 Cu    0.16667   0.83334   0.88022   0.00000  Uiso   1.00
Cu1362 Cu    0.16667   0.83333   0.78645   0.00000  Uiso   1.00
H1363  H     0.09604   0.70258   0.78678   0.00000  Uiso   1.00
H1364  H     0.23729   0.96409   0.87989   0.00000  Uiso   1.00
H1365  H     0.12187   0.77900   0.94629   0.00000  Uiso   1.00
H1366  H     0.21146   0.88767   0.72038   0.00000  Uiso   1.00
N1367  N     0.16668   0.83334   0.95069   0.00000  Uiso   1.00
N1368  N     0.16665   0.83332   0.71597   0.00000  Uiso   1.00
O1369  O     0.16666   0.77322   0.87291   0.00000  Uiso   1.00
O1370  O     0.16667   0.89345   0.79375   0.00000  Uiso   1.00
O1371  O     0.16666   0.77321   0.79372   0.00000  Uiso   1.00
O1372  O     0.16667   0.89346   0.87294   0.00000  Uiso   1.00
O1373  O     0.09161   0.83334   0.86379   0.00000  Uiso   1.00
O1374  O     0.24172   0.83333   0.80288   0.00000  Uiso   1.00
O1375  O     0.09161   0.83333   0.78460   0.00000  Uiso   1.00
O1376  O     0.24172   0.83334   0.88207   0.00000  Uiso   1.00
I1377  I     0.31454   0.81478   0.74252   0.00000  Uiso   1.00
I1378  I     0.01879   0.85188   0.92415   0.00000  Uiso   1.00
I1379  I     0.05993   0.94446   0.76994   0.00000  Uiso   1.00
I1380  I     0.27340   0.72221   0.89673   0.00000  Uiso   1.00
C1381  C     0.11083   0.76634   0.70411   0.00000  Uiso   1.00
C1382  C     0.06377   0.74832   0.67062   0.00000  Uiso   1.00
C1383  C     0.03403   0.71595   0.69462   0.00000  Uiso   1.00
H1384  H     0.05735   0.68840   0.70212   0.00000  Uiso   1.00
H1385  H     0.02367   0.72865   0.72802   0.00000  Uiso   1.00
H1386  H     0.33171   0.70615   0.67104   0.00000  Uiso   1.00
H1387  H     0.03820   0.77366   0.99207   0.00000  Uiso   1.00
H1388  H     0.07536   0.73232   0.97280   0.00000  Uiso   1.00
H1389  H     0.13771   0.74110   0.71267   0.00000  Uiso   1.00
H1390  H     0.09605   0.77636   0.73600   0.00000  Uiso   1.00
C1391  C     0.22250   0.90032   0.96255   0.00000  Uiso   1.00
C1392  C     0.26956   0.91835   0.99605   0.00000  Uiso   1.00
C1393  C     0.29930   0.95071   0.97204   0.00000  Uiso   1.00
H1394  H     0.30967   0.93801   0.93865   0.00000  Uiso   1.00
H1395  H     0.27598   0.97826   0.96455   0.00000  Uiso   1.00
H1396  H     0.00163   0.96052   0.99562   0.00000  Uiso   1.00
H1397  H     0.25797   0.93435   0.69387   0.00000  Uiso   1.00
H1398  H     0.29513   0.89300   0.67459   0.00000  Uiso   1.00
H1399  H     0.23728   0.89031   0.93067   0.00000  Uiso   1.00
H1400  H     0.19562   0.92557   0.95400   0.00000  Uiso   1.00
C1401  C     0.50081   0.75419   0.83293   0.00000  Uiso   1.00
C1402  C     0.49919   0.91248   0.83373   0.00000  Uiso   1.00
C1403  C     0.40143   0.83318   0.82134   0.00000  Uiso   1.00
C1404  C     0.59857   0.83349   0.84533   0.00000  Uiso   1.00
C1405  C     0.34640   0.83071   0.81473   0.00000  Uiso   1.00
C1406  C     0.65360   0.83595   0.85194   0.00000  Uiso   1.00
C1407  C     0.46050   0.68680   0.80650   0.00000  Uiso   1.00
C1408  C     0.53950   0.97987   0.86017   0.00000  Uiso   1.00
C1409  C     0.45853   0.97711   0.80740   0.00000  Uiso   1.00
C1410  C     0.54147   0.68956   0.85926   0.00000  Uiso   1.00
C1411  C     0.49838   0.95708   0.83438   0.00000  Uiso   1.00
C1412  C     0.50162   0.70958   0.83229   0.00000  Uiso   1.00
C1413  C     0.47309   0.80263   0.68583   0.00000  Uiso   1.00
C1414  C     0.52691   0.86404   0.98084   0.00000  Uiso   1.00
C1415  C     0.47450   0.80291   0.96992   0.00000  Uiso   1.00
C1416  C     0.52550   0.86375   0.69674   0.00000  Uiso   1.00
Cu1417 Cu    0.50000   0.83334   0.88022   0.00000  Uiso   1.00
Cu1418 Cu    0.50000   0.83333   0.78645   0.00000  Uiso   1.00
H1419  H     0.42938   0.70258   0.78678   0.00000  Uiso   1.00
H1420  H     0.57062   0.96409   0.87989   0.00000  Uiso   1.00
H1421  H     0.45521   0.77900   0.94629   0.00000  Uiso   1.00
H1422  H     0.54479   0.88767   0.72038   0.00000  Uiso   1.00
N1423  N     0.50001   0.83334   0.95069   0.00000  Uiso   1.00
N1424  N     0.49999   0.83332   0.71597   0.00000  Uiso   1.00
O1425  O     0.50000   0.77322   0.87291   0.00000  Uiso   1.00
O1426  O     0.50000   0.89345   0.79375   0.00000  Uiso   1.00
O1427  O     0.50000   0.77321   0.79372   0.00000  Uiso   1.00
O1428  O     0.50000   0.89346   0.87294   0.00000  Uiso   1.00
O1429  O     0.42495   0.83334   0.86379   0.00000  Uiso   1.00
O1430  O     0.57505   0.83333   0.80288   0.00000  Uiso   1.00
O1431  O     0.42494   0.83333   0.78460   0.00000  Uiso   1.00
O1432  O     0.57506   0.83334   0.88207   0.00000  Uiso   1.00
I1433  I     0.64788   0.81478   0.74252   0.00000  Uiso   1.00
I1434  I     0.35212   0.85188   0.92415   0.00000  Uiso   1.00
I1435  I     0.39327   0.94446   0.76994   0.00000  Uiso   1.00
I1436  I     0.60673   0.72221   0.89673   0.00000  Uiso   1.00
C1437  C     0.44416   0.76634   0.70411   0.00000  Uiso   1.00
C1438  C     0.39711   0.74832   0.67062   0.00000  Uiso   1.00
C1439  C     0.36736   0.71595   0.69462   0.00000  Uiso   1.00
H1440  H     0.39068   0.68840   0.70212   0.00000  Uiso   1.00
H1441  H     0.35700   0.72865   0.72802   0.00000  Uiso   1.00
H1442  H     0.66504   0.70615   0.67104   0.00000  Uiso   1.00
H1443  H     0.37154   0.77366   0.99207   0.00000  Uiso   1.00
H1444  H     0.40870   0.73232   0.97280   0.00000  Uiso   1.00
H1445  H     0.47104   0.74110   0.71267   0.00000  Uiso   1.00
H1446  H     0.42939   0.77636   0.73600   0.00000  Uiso   1.00
C1447  C     0.55584   0.90032   0.96255   0.00000  Uiso   1.00
C1448  C     0.60289   0.91835   0.99605   0.00000  Uiso   1.00
C1449  C     0.63264   0.95071   0.97204   0.00000  Uiso   1.00
H1450  H     0.64300   0.93801   0.93865   0.00000  Uiso   1.00
H1451  H     0.60932   0.97826   0.96455   0.00000  Uiso   1.00
H1452  H     0.33496   0.96052   0.99562   0.00000  Uiso   1.00
H1453  H     0.59130   0.93435   0.69387   0.00000  Uiso   1.00
H1454  H     0.62846   0.89300   0.67459   0.00000  Uiso   1.00
H1455  H     0.57061   0.89031   0.93067   0.00000  Uiso   1.00
H1456  H     0.52896   0.92557   0.95400   0.00000  Uiso   1.00
C1457  C     0.83414   0.75419   0.83293   0.00000  Uiso   1.00
C1458  C     0.83252   0.91248   0.83373   0.00000  Uiso   1.00
C1459  C     0.73476   0.83318   0.82134   0.00000  Uiso   1.00
C1460  C     0.93190   0.83349   0.84533   0.00000  Uiso   1.00
C1461  C     0.67974   0.83071   0.81473   0.00000  Uiso   1.00
C1462  C     0.98693   0.83595   0.85194   0.00000  Uiso   1.00
C1463  C     0.79383   0.68680   0.80650   0.00000  Uiso   1.00
C1464  C     0.87284   0.97987   0.86017   0.00000  Uiso   1.00
C1465  C     0.79186   0.97711   0.80740   0.00000  Uiso   1.00
C1466  C     0.87480   0.68956   0.85926   0.00000  Uiso   1.00
C1467  C     0.83171   0.95708   0.83438   0.00000  Uiso   1.00
C1468  C     0.83495   0.70958   0.83229   0.00000  Uiso   1.00
C1469  C     0.80642   0.80263   0.68583   0.00000  Uiso   1.00
C1470  C     0.86024   0.86404   0.98084   0.00000  Uiso   1.00
C1471  C     0.80783   0.80291   0.96992   0.00000  Uiso   1.00
C1472  C     0.85883   0.86375   0.69674   0.00000  Uiso   1.00
Cu1473 Cu    0.83333   0.83334   0.88022   0.00000  Uiso   1.00
Cu1474 Cu    0.83333   0.83333   0.78645   0.00000  Uiso   1.00
H1475  H     0.76271   0.70258   0.78678   0.00000  Uiso   1.00
H1476  H     0.90396   0.96409   0.87989   0.00000  Uiso   1.00
H1477  H     0.78854   0.77900   0.94629   0.00000  Uiso   1.00
H1478  H     0.87813   0.88767   0.72038   0.00000  Uiso   1.00
N1479  N     0.83335   0.83334   0.95069   0.00000  Uiso   1.00
N1480  N     0.83332   0.83332   0.71597   0.00000  Uiso   1.00
O1481  O     0.83333   0.77322   0.87291   0.00000  Uiso   1.00
O1482  O     0.83334   0.89345   0.79375   0.00000  Uiso   1.00
O1483  O     0.83333   0.77321   0.79372   0.00000  Uiso   1.00
O1484  O     0.83334   0.89346   0.87294   0.00000  Uiso   1.00
O1485  O     0.75828   0.83334   0.86379   0.00000  Uiso   1.00
O1486  O     0.90839   0.83333   0.80288   0.00000  Uiso   1.00
O1487  O     0.75828   0.83333   0.78460   0.00000  Uiso   1.00
O1488  O     0.90839   0.83334   0.88207   0.00000  Uiso   1.00
I1489  I     0.98121   0.81478   0.74252   0.00000  Uiso   1.00
I1490  I     0.68546   0.85188   0.92415   0.00000  Uiso   1.00
I1491  I     0.72660   0.94446   0.76994   0.00000  Uiso   1.00
I1492  I     0.94007   0.72221   0.89673   0.00000  Uiso   1.00
C1493  C     0.77750   0.76634   0.70411   0.00000  Uiso   1.00
C1494  C     0.73044   0.74832   0.67062   0.00000  Uiso   1.00
C1495  C     0.70070   0.71595   0.69462   0.00000  Uiso   1.00
H1496  H     0.72402   0.68840   0.70212   0.00000  Uiso   1.00
H1497  H     0.69033   0.72865   0.72802   0.00000  Uiso   1.00
H1498  H     0.99837   0.70615   0.67104   0.00000  Uiso   1.00
H1499  H     0.70487   0.77366   0.99207   0.00000  Uiso   1.00
H1500  H     0.74203   0.73232   0.97280   0.00000  Uiso   1.00
H1501  H     0.80438   0.74110   0.71267   0.00000  Uiso   1.00
H1502  H     0.76272   0.77636   0.73600   0.00000  Uiso   1.00
C1503  C     0.88917   0.90032   0.96255   0.00000  Uiso   1.00
C1504  C     0.93623   0.91835   0.99605   0.00000  Uiso   1.00
C1505  C     0.96597   0.95071   0.97204   0.00000  Uiso   1.00
H1506  H     0.97633   0.93801   0.93865   0.00000  Uiso   1.00
H1507  H     0.94265   0.97826   0.96455   0.00000  Uiso   1.00
H1508  H     0.66829   0.96052   0.99562   0.00000  Uiso   1.00
H1509  H     0.92464   0.93435   0.69387   0.00000  Uiso   1.00
H1510  H     0.96180   0.89300   0.67459   0.00000  Uiso   1.00
H1511  H     0.90394   0.89031   0.93067   0.00000  Uiso   1.00
H1512  H     0.86229   0.92557   0.95400   0.00000  Uiso   1.00
loop_
_geom_bond_atom_site_label_1
_geom_bond_atom_site_label_2
_geom_bond_distance
_geom_bond_site_symmetry_2
_ccdc_geom_bond_type
C1     O25     1.291   .     A
C1     C12     1.440   .     S
C1     O27     1.297   .     A
C2     O26     1.291   .     A
C2     O28     1.297   .     A
C2     C11     1.440   .     S
C3     O31     1.304   .     A
C3     O29     1.286   .     A
C3     C5      1.442   .     S
C4     O32     1.304   .     A
C4     C6      1.442   .     S
C4     O30     1.286   .     A
C5     C118    1.368   1_455 S
C5     I145    2.163   1_455 S
C6     C61     1.368   .     S
C6     I90     2.163   .     S
C7     H19     1.082   .     S
C7     C12     1.396   .     A
C7     C345    1.388   1_545 S
C8     H20     1.082   .     S
C8     C11     1.396   .     A
C8     C178    1.388   .     S
C9     C11     1.405   .     A
C9     I35     2.125   .     S
C9     C175    1.388   .     S
C10    C12     1.405   .     A
C10    I36     2.125   .     S
C10    C344    1.388   1_545 S
C13    C37     1.524   .     S
C13    N24     1.399   .     A
C13    C1023   1.423   1_554 S
C14    N23     1.399   .     A
C14    C47     1.524   .     S
C14    C520    1.423   .     S
C15    N23     1.349   .     A
C15    H21     1.076   .     S
C15    C517    1.423   .     S
C16    N24     1.349   .     A
C16    H22     1.076   .     S
C16    C1022   1.423   1_554 S
Cu17   O29     1.976   .     S
Cu17   O25     1.945   .     S
Cu17   Cu18    2.697   .     S
Cu17   N23     2.027   .     S
Cu17   O32     1.983   .     S
Cu17   O28     1.957   .     S
Cu18   O30     1.976   .     S
Cu18   O26     1.945   .     S
Cu18   N24     2.027   .     S
Cu18   O31     1.983   .     S
Cu18   O27     1.957   .     S
I33    C61     2.163   .     S
I34    C118    2.163   1_455 S
C37    C38     1.543   .     S
C37    H45     1.111   .     S
C37    H46     1.095   .     S
C38    C39     1.526   .     S
C38    H1051   1.111   1_554 S
C38    H1052   1.109   1_554 S
C39    H41     1.109   .     S
C39    H40     1.110   .     S
C39    H154    1.109   1_455 S
H42    C95     1.109   .     S
H43    C542    1.111   .     S
H44    C542    1.109   .     S
C47    C48     1.543   .     S
C47    H55     1.095   .     S
C47    H56     1.111   .     S
C48    C49     1.526   .     S
C48    H557    1.109   .     S
C48    H558    1.111   .     S
C49    H50     1.109   .     S
C49    H51     1.110   .     S
C49    H108    1.109   .     S
H52    C161    1.109   1_455 S
H53    C1056   1.109   1_554 S
H54    C1056   1.111   1_554 S
C57    O81     1.291   .     A
C57    C68     1.440   .     S
C57    O83     1.297   .     A
C58    O82     1.291   .     A
C58    O84     1.297   .     A
C58    C67     1.440   .     S
C59    O87     1.304   .     A
C59    O85     1.286   .     A
C59    C61     1.442   .     S
C60    O88     1.304   .     A
C60    C62     1.442   .     S
C60    O86     1.286   .     A
C62    C117    1.368   .     S
C62    I146    2.163   .     S
C63    H75     1.082   .     S
C63    C68     1.396   .     A
C63    C401    1.388   1_545 S
C64    H76     1.082   .     S
C64    C67     1.396   .     A
C64    C234    1.388   .     S
C65    C67     1.405   .     A
C65    I91     2.125   .     S
C65    C231    1.388   .     S
C66    C68     1.405   .     A
C66    I92     2.125   .     S
C66    C400    1.388   1_545 S
C69    C93     1.524   .     S
C69    N80     1.399   .     A
C69    C1079   1.423   1_554 S
C70    N79     1.399   .     A
C70    C103    1.524   .     S
C70    C576    1.423   .     S
C71    N79     1.349   .     A
C71    H77     1.076   .     S
C71    C573    1.423   .     S
C72    N80     1.349   .     A
C72    H78     1.076   .     S
C72    C1078   1.423   1_554 S
Cu73   O85     1.976   .     S
Cu73   O81     1.945   .     S
Cu73   Cu74    2.697   .     S
Cu73   N79     2.027   .     S
Cu73   O88     1.983   .     S
Cu73   O84     1.957   .     S
Cu74   O86     1.976   .     S
Cu74   O82     1.945   .     S
Cu74   N80     2.027   .     S
Cu74   O87     1.983   .     S
Cu74   O83     1.957   .     S
I89    C117    2.163   .     S
C93    C94     1.543   .     S
C93    H101    1.111   .     S
C93    H102    1.095   .     S
C94    C95     1.526   .     S
C94    H1107   1.111   1_554 S
C94    H1108   1.109   1_554 S
C95    H97     1.109   .     S
C95    H96     1.110   .     S
H98    C151    1.109   .     S
H99    C598    1.111   .     S
H100   C598    1.109   .     S
C103   C104    1.543   .     S
C103   H111    1.095   .     S
C103   H112    1.111   .     S
C104   C105    1.526   .     S
C104   H613    1.109   .     S
C104   H614    1.111   .     S
C105   H106    1.109   .     S
C105   H107    1.110   .     S
C105   H164    1.109   .     S
H109   C1112   1.109   1_554 S
H110   C1112   1.111   1_554 S
C113   O137    1.291   .     A
C113   C124    1.440   .     S
C113   O139    1.297   .     A
C114   O138    1.291   .     A
C114   O140    1.297   .     A
C114   C123    1.440   .     S
C115   O143    1.304   .     A
C115   O141    1.286   .     A
C115   C117    1.442   .     S
C116   O144    1.304   .     A
C116   C118    1.442   .     S
C116   O142    1.286   .     A
C118   C5      1.368   1_655 S
C118   I34     2.163   1_655 S
C119   H131    1.082   .     S
C119   C124    1.396   .     A
C119   C457    1.388   1_545 S
C120   H132    1.082   .     S
C120   C123    1.396   .     A
C120   C290    1.388   .     S
C121   C123    1.405   .     A
C121   I147    2.125   .     S
C121   C287    1.388   .     S
C122   C124    1.405   .     A
C122   I148    2.125   .     S
C122   C456    1.388   1_545 S
C125   C149    1.524   .     S
C125   N136    1.399   .     A
C125   C1135   1.423   1_554 S
C126   N135    1.399   .     A
C126   C159    1.524   .     S
C126   C632    1.423   .     S
C127   N135    1.349   .     A
C127   H133    1.076   .     S
C127   C629    1.423   .     S
C128   N136    1.349   .     A
C128   H134    1.076   .     S
C128   C1134   1.423   1_554 S
Cu129  O141    1.976   .     S
Cu129  O137    1.945   .     S
Cu129  Cu130   2.697   .     S
Cu129  N135    2.027   .     S
Cu129  O144    1.983   .     S
Cu129  O140    1.957   .     S
Cu130  O142    1.976   .     S
Cu130  O138    1.945   .     S
Cu130  N136    2.027   .     S
Cu130  O143    1.983   .     S
Cu130  O139    1.957   .     S
I145   C5      2.163   1_655 S
C149   C150    1.543   .     S
C149   H157    1.111   .     S
C149   H158    1.095   .     S
C150   C151    1.526   .     S
C150   H1163   1.111   1_554 S
C150   H1164   1.109   1_554 S
C151   H153    1.109   .     S
C151   H152    1.110   .     S
H154   C39     1.109   1_655 S
H155   C654    1.111   .     S
H156   C654    1.109   .     S
C159   C160    1.543   .     S
C159   H167    1.095   .     S
C159   H168    1.111   .     S
C160   C161    1.526   .     S
C160   H669    1.109   .     S
C160   H670    1.111   .     S
C161   H162    1.109   .     S
C161   H163    1.110   .     S
C161   H52     1.109   1_655 S
H165   C1168   1.109   1_554 S
H166   C1168   1.111   1_554 S
C169   O193    1.291   .     A
C169   C180    1.440   .     S
C169   O195    1.297   .     A
C170   O194    1.291   .     A
C170   O196    1.297   .     A
C170   C179    1.440   .     S
C171   O199    1.304   .     A
C171   O197    1.286   .     A
C171   C173    1.442   .     S
C172   O200    1.304   .     A
C172   C174    1.442   .     S
C172   O198    1.286   .     A
C173   C286    1.368   1_455 S
C173   I313    2.163   1_455 S
C174   C229    1.368   .     S
C174   I258    2.163   .     S
C175   H187    1.082   .     S
C175   C180    1.396   .     A
C176   H188    1.082   .     S
C176   C179    1.396   .     A
C176   C346    1.388   .     S
C177   C179    1.405   .     A
C177   I203    2.125   .     S
C177   C343    1.388   .     S
C178   C180    1.405   .     A
C178   I204    2.125   .     S
C181   C205    1.524   .     S
C181   N192    1.399   .     A
C181   C1191   1.423   1_554 S
C182   N191    1.399   .     A
C182   C215    1.524   .     S
C182   C688    1.423   .     S
C183   N191    1.349   .     A
C183   H189    1.076   .     S
C183   C685    1.423   .     S
C184   N192    1.349   .     A
C184   H190    1.076   .     S
C184   C1190   1.423   1_554 S
Cu185  O197    1.976   .     S
Cu185  O193    1.945   .     S
Cu185  Cu186   2.697   .     S
Cu185  N191    2.027   .     S
Cu185  O200    1.983   .     S
Cu185  O196    1.957   .     S
Cu186  O198    1.976   .     S
Cu186  O194    1.945   .     S
Cu186  N192    2.027   .     S
Cu186  O199    1.983   .     S
Cu186  O195    1.957   .     S
I201   C229    2.163   .     S
I202   C286    2.163   1_455 S
C205   C206    1.543   .     S
C205   H213    1.111   .     S
C205   H214    1.095   .     S
C206   C207    1.526   .     S
C206   H1219   1.111   1_554 S
C206   H1220   1.109   1_554 S
C207   H209    1.109   .     S
C207   H208    1.110   .     S
C207   H322    1.109   1_455 S
H210   C263    1.109   .     S
H211   C710    1.111   .     S
H212   C710    1.109   .     S
C215   C216    1.543   .     S
C215   H223    1.095   .     S
C215   H224    1.111   .     S
C216   C217    1.526   .     S
C216   H725    1.109   .     S
C216   H726    1.111   .     S
C217   H218    1.109   .     S
C217   H219    1.110   .     S
C217   H276    1.109   .     S
H220   C329    1.109   1_455 S
H221   C1224   1.109   1_554 S
H222   C1224   1.111   1_554 S
C225   O249    1.291   .     A
C225   C236    1.440   .     S
C225   O251    1.297   .     A
C226   O250    1.291   .     A
C226   O252    1.297   .     A
C226   C235    1.440   .     S
C227   O255    1.304   .     A
C227   O253    1.286   .     A
C227   C229    1.442   .     S
C228   O256    1.304   .     A
C228   C230    1.442   .     S
C228   O254    1.286   .     A
C230   C285    1.368   .     S
C230   I314    2.163   .     S
C231   H243    1.082   .     S
C231   C236    1.396   .     A
C232   H244    1.082   .     S
C232   C235    1.396   .     A
C232   C402    1.388   .     S
C233   C235    1.405   .     A
C233   I259    2.125   .     S
C233   C399    1.388   .     S
C234   C236    1.405   .     A
C234   I260    2.125   .     S
C237   C261    1.524   .     S
C237   N248    1.399   .     A
C237   C1247   1.423   1_554 S
C238   N247    1.399   .     A
C238   C271    1.524   .     S
C238   C744    1.423   .     S
C239   N247    1.349   .     A
C239   H245    1.076   .     S
C239   C741    1.423   .     S
C240   N248    1.349   .     A
C240   H246    1.076   .     S
C240   C1246   1.423   1_554 S
Cu241  O253    1.976   .     S
Cu241  O249    1.945   .     S
Cu241  Cu242   2.697   .     S
Cu241  N247    2.027   .     S
Cu241  O256    1.983   .     S
Cu241  O252    1.957   .     S
Cu242  O254    1.976   .     S
Cu242  O250    1.945   .     S
Cu242  N248    2.027   .     S
Cu242  O255    1.983   .     S
Cu242  O251    1.957   .     S
I257   C285    2.163   .     S
C261   C262    1.543   .     S
C261   H269    1.111   .     S
C261   H270    1.095   .     S
C262   C263    1.526   .     S
C262   H1275   1.111   1_554 S
C262   H1276   1.109   1_554 S
C263   H265    1.109   .     S
C263   H264    1.110   .     S
H266   C319    1.109   .     S
H267   C766    1.111   .     S
H268   C766    1.109   .     S
C271   C272    1.543   .     S
C271   H279    1.095   .     S
C271   H280    1.111   .     S
C272   C273    1.526   .     S
C272   H781    1.109   .     S
C272   H782    1.111   .     S
C273   H274    1.109   .     S
C273   H275    1.110   .     S
C273   H332    1.109   .     S
H277   C1280   1.109   1_554 S
H278   C1280   1.111   1_554 S
C281   O305    1.291   .     A
C281   C292    1.440   .     S
C281   O307    1.297   .     A
C282   O306    1.291   .     A
C282   O308    1.297   .     A
C282   C291    1.440   .     S
C283   O311    1.304   .     A
C283   O309    1.286   .     A
C283   C285    1.442   .     S
C284   O312    1.304   .     A
C284   C286    1.442   .     S
C284   O310    1.286   .     A
C286   C173    1.368   1_655 S
C286   I202    2.163   1_655 S
C287   H299    1.082   .     S
C287   C292    1.396   .     A
C288   H300    1.082   .     S
C288   C291    1.396   .     A
C288   C458    1.388   .     S
C289   C291    1.405   .     A
C289   I315    2.125   .     S
C289   C455    1.388   .     S
C290   C292    1.405   .     A
C290   I316    2.125   .     S
C293   C317    1.524   .     S
C293   N304    1.399   .     A
C293   C1303   1.423   1_554 S
C294   N303    1.399   .     A
C294   C327    1.524   .     S
C294   C800    1.423   .     S
C295   N303    1.349   .     A
C295   H301    1.076   .     S
C295   C797    1.423   .     S
C296   N304    1.349   .     A
C296   H302    1.076   .     S
C296   C1302   1.423   1_554 S
Cu297  O309    1.976   .     S
Cu297  O305    1.945   .     S
Cu297  Cu298   2.697   .     S
Cu297  N303    2.027   .     S
Cu297  O312    1.983   .     S
Cu297  O308    1.957   .     S
Cu298  O310    1.976   .     S
Cu298  O306    1.945   .     S
Cu298  N304    2.027   .     S
Cu298  O311    1.983   .     S
Cu298  O307    1.957   .     S
I313   C173    2.163   1_655 S
C317   C318    1.543   .     S
C317   H325    1.111   .     S
C317   H326    1.095   .     S
C318   C319    1.526   .     S
C318   H1331   1.111   1_554 S
C318   H1332   1.109   1_554 S
C319   H321    1.109   .     S
C319   H320    1.110   .     S
H322   C207    1.109   1_655 S
H323   C822    1.111   .     S
H324   C822    1.109   .     S
C327   C328    1.543   .     S
C327   H335    1.095   .     S
C327   H336    1.111   .     S
C328   C329    1.526   .     S
C328   H837    1.109   .     S
C328   H838    1.111   .     S
C329   H330    1.109   .     S
C329   H331    1.110   .     S
C329   H220    1.109   1_655 S
H333   C1336   1.109   1_554 S
H334   C1336   1.111   1_554 S
C337   O361    1.291   .     A
C337   C348    1.440   .     S
C337   O363    1.297   .     A
C338   O362    1.291   .     A
C338   O364    1.297   .     A
C338   C347    1.440   .     S
C339   O367    1.304   .     A
C339   O365    1.286   .     A
C339   C341    1.442   .     S
C340   O368    1.304   .     A
C340   C342    1.442   .     S
C340   O366    1.286   .     A
C341   C454    1.368   1_455 S
C341   I481    2.163   1_455 S
C342   C397    1.368   .     S
C342   I426    2.163   .     S
C343   H355    1.082   .     S
C343   C348    1.396   .     A
C344   H356    1.082   .     S
C344   C347    1.396   .     A
C344   C10     1.388   1_565 S
C345   C347    1.405   .     A
C345   I371    2.125   .     S
C345   C7      1.388   1_565 S
C346   C348    1.405   .     A
C346   I372    2.125   .     S
C349   C373    1.524   .     S
C349   N360    1.399   .     A
C349   C1359   1.423   1_554 S
C350   N359    1.399   .     A
C350   C383    1.524   .     S
C350   C856    1.423   .     S
C351   N359    1.349   .     A
C351   H357    1.076   .     S
C351   C853    1.423   .     S
C352   N360    1.349   .     A
C352   H358    1.076   .     S
C352   C1358   1.423   1_554 S
Cu353  O365    1.976   .     S
Cu353  O361    1.945   .     S
Cu353  Cu354   2.697   .     S
Cu353  N359    2.027   .     S
Cu353  O368    1.983   .     S
Cu353  O364    1.957   .     S
Cu354  O366    1.976   .     S
Cu354  O362    1.945   .     S
Cu354  N360    2.027   .     S
Cu354  O367    1.983   .     S
Cu354  O363    1.957   .     S
I369   C397    2.163   .     S
I370   C454    2.163   1_455 S
C373   C374    1.543   .     S
C373   H381    1.111   .     S
C373   H382    1.095   .     S
C374   C375    1.526   .     S
C374   H1387   1.111   1_554 S
C374   H1388   1.109   1_554 S
C375   H377    1.109   .     S
C375   H376    1.110   .     S
C375   H490    1.109   1_455 S
H378   C431    1.109   .     S
H379   C878    1.111   .     S
H380   C878    1.109   .     S
C383   C384    1.543   .     S
C383   H391    1.095   .     S
C383   H392    1.111   .     S
C384   C385    1.526   .     S
C384   H893    1.109   .     S
C384   H894    1.111   .     S
C385   H386    1.109   .     S
C385   H387    1.110   .     S
C385   H444    1.109   .     S
H388   C497    1.109   1_455 S
H389   C1392   1.109   1_554 S
H390   C1392   1.111   1_554 S
C393   O417    1.291   .     A
C393   C404    1.440   .     S
C393   O419    1.297   .     A
C394   O418    1.291   .     A
C394   O420    1.297   .     A
C394   C403    1.440   .     S
C395   O423    1.304   .     A
C395   O421    1.286   .     A
C395   C397    1.442   .     S
C396   O424    1.304   .     A
C396   C398    1.442   .     S
C396   O422    1.286   .     A
C398   C453    1.368   .     S
C398   I482    2.163   .     S
C399   H411    1.082   .     S
C399   C404    1.396   .     A
C400   H412    1.082   .     S
C400   C403    1.396   .     A
C400   C66     1.388   1_565 S
C401   C403    1.405   .     A
C401   I427    2.125   .     S
C401   C63     1.388   1_565 S
C402   C404    1.405   .     A
C402   I428    2.125   .     S
C405   C429    1.524   .     S
C405   N416    1.399   .     A
C405   C1415   1.423   1_554 S
C406   N415    1.399   .     A
C406   C439    1.524   .     S
C406   C912    1.423   .     S
C407   N415    1.349   .     A
C407   H413    1.076   .     S
C407   C909    1.423   .     S
C408   N416    1.349   .     A
C408   H414    1.076   .     S
C408   C1414   1.423   1_554 S
Cu409  O421    1.976   .     S
Cu409  O417    1.945   .     S
Cu409  Cu410   2.697   .     S
Cu409  N415    2.027   .     S
Cu409  O424    1.983   .     S
Cu409  O420    1.957   .     S
Cu410  O422    1.976   .     S
Cu410  O418    1.945   .     S
Cu410  N416    2.027   .     S
Cu410  O423    1.983   .     S
Cu410  O419    1.957   .     S
I425   C453    2.163   .     S
C429   C430    1.543   .     S
C429   H437    1.111   .     S
C429   H438    1.095   .     S
C430   C431    1.526   .     S
C430   H1443   1.111   1_554 S
C430   H1444   1.109   1_554 S
C431   H433    1.109   .     S
C431   H432    1.110   .     S
H434   C487    1.109   .     S
H435   C934    1.111   .     S
H436   C934    1.109   .     S
C439   C440    1.543   .     S
C439   H447    1.095   .     S
C439   H448    1.111   .     S
C440   C441    1.526   .     S
C440   H949    1.109   .     S
C440   H950    1.111   .     S
C441   H442    1.109   .     S
C441   H443    1.110   .     S
C441   H500    1.109   .     S
H445   C1448   1.109   1_554 S
H446   C1448   1.111   1_554 S
C449   O473    1.291   .     A
C449   C460    1.440   .     S
C449   O475    1.297   .     A
C450   O474    1.291   .     A
C450   O476    1.297   .     A
C450   C459    1.440   .     S
C451   O479    1.304   .     A
C451   O477    1.286   .     A
C451   C453    1.442   .     S
C452   O480    1.304   .     A
C452   C454    1.442   .     S
C452   O478    1.286   .     A
C454   C341    1.368   1_655 S
C454   I370    2.163   1_655 S
C455   H467    1.082   .     S
C455   C460    1.396   .     A
C456   H468    1.082   .     S
C456   C459    1.396   .     A
C456   C122    1.388   1_565 S
C457   C459    1.405   .     A
C457   I483    2.125   .     S
C457   C119    1.388   1_565 S
C458   C460    1.405   .     A
C458   I484    2.125   .     S
C461   C485    1.524   .     S
C461   N472    1.399   .     A
C461   C1471   1.423   1_554 S
C462   N471    1.399   .     A
C462   C495    1.524   .     S
C462   C968    1.423   .     S
C463   N471    1.349   .     A
C463   H469    1.076   .     S
C463   C965    1.423   .     S
C464   N472    1.349   .     A
C464   H470    1.076   .     S
C464   C1470   1.423   1_554 S
Cu465  O477    1.976   .     S
Cu465  O473    1.945   .     S
Cu465  Cu466   2.697   .     S
Cu465  N471    2.027   .     S
Cu465  O480    1.983   .     S
Cu465  O476    1.957   .     S
Cu466  O478    1.976   .     S
Cu466  O474    1.945   .     S
Cu466  N472    2.027   .     S
Cu466  O479    1.983   .     S
Cu466  O475    1.957   .     S
I481   C341    2.163   1_655 S
C485   C486    1.543   .     S
C485   H493    1.111   .     S
C485   H494    1.095   .     S
C486   C487    1.526   .     S
C486   H1499   1.111   1_554 S
C486   H1500   1.109   1_554 S
C487   H489    1.109   .     S
C487   H488    1.110   .     S
H490   C375    1.109   1_655 S
H491   C990    1.111   .     S
H492   C990    1.109   .     S
C495   C496    1.543   .     S
C495   H503    1.095   .     S
C495   H504    1.111   .     S
C496   C497    1.526   .     S
C496   H1005   1.109   .     S
C496   H1006   1.111   .     S
C497   H498    1.109   .     S
C497   H499    1.110   .     S
C497   H388    1.109   1_655 S
H501   C1504   1.109   1_554 S
H502   C1504   1.111   1_554 S
C505   O529    1.291   .     A
C505   C516    1.440   .     S
C505   O531    1.297   .     A
C506   O530    1.291   .     A
C506   O532    1.297   .     A
C506   C515    1.440   .     S
C507   O535    1.304   .     A
C507   O533    1.286   .     A
C507   C509    1.442   .     S
C508   O536    1.304   .     A
C508   C510    1.442   .     S
C508   O534    1.286   .     A
C509   C622    1.368   1_455 S
C509   I649    2.163   1_455 S
C510   C565    1.368   .     S
C510   I594    2.163   .     S
C511   H523    1.082   .     S
C511   C516    1.396   .     A
C511   C849    1.388   1_545 S
C512   H524    1.082   .     S
C512   C515    1.396   .     A
C512   C682    1.388   .     S
C513   C515    1.405   .     A
C513   I539    2.125   .     S
C513   C679    1.388   .     S
C514   C516    1.405   .     A
C514   I540    2.125   .     S
C514   C848    1.388   1_545 S
C517   C541    1.524   .     S
C517   N528    1.399   .     A
C518   N527    1.399   .     A
C518   C551    1.524   .     S
C518   C1024   1.423   .     S
C519   N527    1.349   .     A
C519   H525    1.076   .     S
C519   C1021   1.423   .     S
C520   N528    1.349   .     A
C520   H526    1.076   .     S
Cu521  O533    1.976   .     S
Cu521  O529    1.945   .     S
Cu521  Cu522   2.697   .     S
Cu521  N527    2.027   .     S
Cu521  O536    1.983   .     S
Cu521  O532    1.957   .     S
Cu522  O534    1.976   .     S
Cu522  O530    1.945   .     S
Cu522  N528    2.027   .     S
Cu522  O535    1.983   .     S
Cu522  O531    1.957   .     S
I537   C565    2.163   .     S
I538   C622    2.163   1_455 S
C541   C542    1.543   .     S
C541   H549    1.111   .     S
C541   H550    1.095   .     S
C542   C543    1.526   .     S
C543   H545    1.109   .     S
C543   H544    1.110   .     S
C543   H658    1.109   1_455 S
H546   C599    1.109   .     S
H547   C1046   1.111   .     S
H548   C1046   1.109   .     S
C551   C552    1.543   .     S
C551   H559    1.095   .     S
C551   H560    1.111   .     S
C552   C553    1.526   .     S
C552   H1061   1.109   .     S
C552   H1062   1.111   .     S
C553   H554    1.109   .     S
C553   H555    1.110   .     S
C553   H612    1.109   .     S
H556   C665    1.109   1_455 S
C561   O585    1.291   .     A
C561   C572    1.440   .     S
C561   O587    1.297   .     A
C562   O586    1.291   .     A
C562   O588    1.297   .     A
C562   C571    1.440   .     S
C563   O591    1.304   .     A
C563   O589    1.286   .     A
C563   C565    1.442   .     S
C564   O592    1.304   .     A
C564   C566    1.442   .     S
C564   O590    1.286   .     A
C566   C621    1.368   .     S
C566   I650    2.163   .     S
C567   H579    1.082   .     S
C567   C572    1.396   .     A
C567   C905    1.388   1_545 S
C568   H580    1.082   .     S
C568   C571    1.396   .     A
C568   C738    1.388   .     S
C569   C571    1.405   .     A
C569   I595    2.125   .     S
C569   C735    1.388   .     S
C570   C572    1.405   .     A
C570   I596    2.125   .     S
C570   C904    1.388   1_545 S
C573   C597    1.524   .     S
C573   N584    1.399   .     A
C574   N583    1.399   .     A
C574   C607    1.524   .     S
C574   C1080   1.423   .     S
C575   N583    1.349   .     A
C575   H581    1.076   .     S
C575   C1077   1.423   .     S
C576   N584    1.349   .     A
C576   H582    1.076   .     S
Cu577  O589    1.976   .     S
Cu577  O585    1.945   .     S
Cu577  Cu578   2.697   .     S
Cu577  N583    2.027   .     S
Cu577  O592    1.983   .     S
Cu577  O588    1.957   .     S
Cu578  O590    1.976   .     S
Cu578  O586    1.945   .     S
Cu578  N584    2.027   .     S
Cu578  O591    1.983   .     S
Cu578  O587    1.957   .     S
I593   C621    2.163   .     S
C597   C598    1.543   .     S
C597   H605    1.111   .     S
C597   H606    1.095   .     S
C598   C599    1.526   .     S
C599   H601    1.109   .     S
C599   H600    1.110   .     S
H602   C655    1.109   .     S
H603   C1102   1.111   .     S
H604   C1102   1.109   .     S
C607   C608    1.543   .     S
C607   H615    1.095   .     S
C607   H616    1.111   .     S
C608   C609    1.526   .     S
C608   H1117   1.109   .     S
C608   H1118   1.111   .     S
C609   H610    1.109   .     S
C609   H611    1.110   .     S
C609   H668    1.109   .     S
C617   O641    1.291   .     A
C617   C628    1.440   .     S
C617   O643    1.297   .     A
C618   O642    1.291   .     A
C618   O644    1.297   .     A
C618   C627    1.440   .     S
C619   O647    1.304   .     A
C619   O645    1.286   .     A
C619   C621    1.442   .     S
C620   O648    1.304   .     A
C620   C622    1.442   .     S
C620   O646    1.286   .     A
C622   C509    1.368   1_655 S
C622   I538    2.163   1_655 S
C623   H635    1.082   .     S
C623   C628    1.396   .     A
C623   C961    1.388   1_545 S
C624   H636    1.082   .     S
C624   C627    1.396   .     A
C624   C794    1.388   .     S
C625   C627    1.405   .     A
C625   I651    2.125   .     S
C625   C791    1.388   .     S
C626   C628    1.405   .     A
C626   I652    2.125   .     S
C626   C960    1.388   1_545 S
C629   C653    1.524   .     S
C629   N640    1.399   .     A
C630   N639    1.399   .     A
C630   C663    1.524   .     S
C630   C1136   1.423   .     S
C631   N639    1.349   .     A
C631   H637    1.076   .     S
C631   C1133   1.423   .     S
C632   N640    1.349   .     A
C632   H638    1.076   .     S
Cu633  O645    1.976   .     S
Cu633  O641    1.945   .     S
Cu633  Cu634   2.697   .     S
Cu633  N639    2.027   .     S
Cu633  O648    1.983   .     S
Cu633  O644    1.957   .     S
Cu634  O646    1.976   .     S
Cu634  O642    1.945   .     S
Cu634  N640    2.027   .     S
Cu634  O647    1.983   .     S
Cu634  O643    1.957   .     S
I649   C509    2.163   1_655 S
C653   C654    1.543   .     S
C653   H661    1.111   .     S
C653   H662    1.095   .     S
C654   C655    1.526   .     S
C655   H657    1.109   .     S
C655   H656    1.110   .     S
H658   C543    1.109   1_655 S
H659   C1158   1.111   .     S
H660   C1158   1.109   .     S
C663   C664    1.543   .     S
C663   H671    1.095   .     S
C663   H672    1.111   .     S
C664   C665    1.526   .     S
C664   H1173   1.109   .     S
C664   H1174   1.111   .     S
C665   H666    1.109   .     S
C665   H667    1.110   .     S
C665   H556    1.109   1_655 S
C673   O697    1.291   .     A
C673   C684    1.440   .     S
C673   O699    1.297   .     A
C674   O698    1.291   .     A
C674   O700    1.297   .     A
C674   C683    1.440   .     S
C675   O703    1.304   .     A
C675   O701    1.286   .     A
C675   C677    1.442   .     S
C676   O704    1.304   .     A
C676   C678    1.442   .     S
C676   O702    1.286   .     A
C677   C790    1.368   1_455 S
C677   I817    2.163   1_455 S
C678   C733    1.368   .     S
C678   I762    2.163   .     S
C679   H691    1.082   .     S
C679   C684    1.396   .     A
C680   H692    1.082   .     S
C680   C683    1.396   .     A
C680   C850    1.388   .     S
C681   C683    1.405   .     A
C681   I707    2.125   .     S
C681   C847    1.388   .     S
C682   C684    1.405   .     A
C682   I708    2.125   .     S
C685   C709    1.524   .     S
C685   N696    1.399   .     A
C686   N695    1.399   .     A
C686   C719    1.524   .     S
C686   C1192   1.423   .     S
C687   N695    1.349   .     A
C687   H693    1.076   .     S
C687   C1189   1.423   .     S
C688   N696    1.349   .     A
C688   H694    1.076   .     S
Cu689  O701    1.976   .     S
Cu689  O697    1.945   .     S
Cu689  Cu690   2.697   .     S
Cu689  N695    2.027   .     S
Cu689  O704    1.983   .     S
Cu689  O700    1.957   .     S
Cu690  O702    1.976   .     S
Cu690  O698    1.945   .     S
Cu690  N696    2.027   .     S
Cu690  O703    1.983   .     S
Cu690  O699    1.957   .     S
I705   C733    2.163   .     S
I706   C790    2.163   1_455 S
C709   C710    1.543   .     S
C709   H717    1.111   .     S
C709   H718    1.095   .     S
C710   C711    1.526   .     S
C711   H713    1.109   .     S
C711   H712    1.110   .     S
C711   H826    1.109   1_455 S
H714   C767    1.109   .     S
H715   C1214   1.111   .     S
H716   C1214   1.109   .     S
C719   C720    1.543   .     S
C719   H727    1.095   .     S
C719   H728    1.111   .     S
C720   C721    1.526   .     S
C720   H1229   1.109   .     S
C720   H1230   1.111   .     S
C721   H722    1.109   .     S
C721   H723    1.110   .     S
C721   H780    1.109   .     S
H724   C833    1.109   1_455 S
C729   O753    1.291   .     A
C729   C740    1.440   .     S
C729   O755    1.297   .     A
C730   O754    1.291   .     A
C730   O756    1.297   .     A
C730   C739    1.440   .     S
C731   O759    1.304   .     A
C731   O757    1.286   .     A
C731   C733    1.442   .     S
C732   O760    1.304   .     A
C732   C734    1.442   .     S
C732   O758    1.286   .     A
C734   C789    1.368   .     S
C734   I818    2.163   .     S
C735   H747    1.082   .     S
C735   C740    1.396   .     A
C736   H748    1.082   .     S
C736   C739    1.396   .     A
C736   C906    1.388   .     S
C737   C739    1.405   .     A
C737   I763    2.125   .     S
C737   C903    1.388   .     S
C738   C740    1.405   .     A
C738   I764    2.125   .     S
C741   C765    1.524   .     S
C741   N752    1.399   .     A
C742   N751    1.399   .     A
C742   C775    1.524   .     S
C742   C1248   1.423   .     S
C743   N751    1.349   .     A
C743   H749    1.076   .     S
C743   C1245   1.423   .     S
C744   N752    1.349   .     A
C744   H750    1.076   .     S
Cu745  O757    1.976   .     S
Cu745  O753    1.945   .     S
Cu745  Cu746   2.697   .     S
Cu745  N751    2.027   .     S
Cu745  O760    1.983   .     S
Cu745  O756    1.957   .     S
Cu746  O758    1.976   .     S
Cu746  O754    1.945   .     S
Cu746  N752    2.027   .     S
Cu746  O759    1.983   .     S
Cu746  O755    1.957   .     S
I761   C789    2.163   .     S
C765   C766    1.543   .     S
C765   H773    1.111   .     S
C765   H774    1.095   .     S
C766   C767    1.526   .     S
C767   H769    1.109   .     S
C767   H768    1.110   .     S
H770   C823    1.109   .     S
H771   C1270   1.111   .     S
H772   C1270   1.109   .     S
C775   C776    1.543   .     S
C775   H783    1.095   .     S
C775   H784    1.111   .     S
C776   C777    1.526   .     S
C776   H1285   1.109   .     S
C776   H1286   1.111   .     S
C777   H778    1.109   .     S
C777   H779    1.110   .     S
C777   H836    1.109   .     S
C785   O809    1.291   .     A
C785   C796    1.440   .     S
C785   O811    1.297   .     A
C786   O810    1.291   .     A
C786   O812    1.297   .     A
C786   C795    1.440   .     S
C787   O815    1.304   .     A
C787   O813    1.286   .     A
C787   C789    1.442   .     S
C788   O816    1.304   .     A
C788   C790    1.442   .     S
C788   O814    1.286   .     A
C790   C677    1.368   1_655 S
C790   I706    2.163   1_655 S
C791   H803    1.082   .     S
C791   C796    1.396   .     A
C792   H804    1.082   .     S
C792   C795    1.396   .     A
C792   C962    1.388   .     S
C793   C795    1.405   .     A
C793   I819    2.125   .     S
C793   C959    1.388   .     S
C794   C796    1.405   .     A
C794   I820    2.125   .     S
C797   C821    1.524   .     S
C797   N808    1.399   .     A
C798   N807    1.399   .     A
C798   C831    1.524   .     S
C798   C1304   1.423   .     S
C799   N807    1.349   .     A
C799   H805    1.076   .     S
C799   C1301   1.423   .     S
C800   N808    1.349   .     A
C800   H806    1.076   .     S
Cu801  O813    1.976   .     S
Cu801  O809    1.945   .     S
Cu801  Cu802   2.697   .     S
Cu801  N807    2.027   .     S
Cu801  O816    1.983   .     S
Cu801  O812    1.957   .     S
Cu802  O814    1.976   .     S
Cu802  O810    1.945   .     S
Cu802  N808    2.027   .     S
Cu802  O815    1.983   .     S
Cu802  O811    1.957   .     S
I817   C677    2.163   1_655 S
C821   C822    1.543   .     S
C821   H829    1.111   .     S
C821   H830    1.095   .     S
C822   C823    1.526   .     S
C823   H825    1.109   .     S
C823   H824    1.110   .     S
H826   C711    1.109   1_655 S
H827   C1326   1.111   .     S
H828   C1326   1.109   .     S
C831   C832    1.543   .     S
C831   H839    1.095   .     S
C831   H840    1.111   .     S
C832   C833    1.526   .     S
C832   H1341   1.109   .     S
C832   H1342   1.111   .     S
C833   H834    1.109   .     S
C833   H835    1.110   .     S
C833   H724    1.109   1_655 S
C841   O865    1.291   .     A
C841   C852    1.440   .     S
C841   O867    1.297   .     A
C842   O866    1.291   .     A
C842   O868    1.297   .     A
C842   C851    1.440   .     S
C843   O871    1.304   .     A
C843   O869    1.286   .     A
C843   C845    1.442   .     S
C844   O872    1.304   .     A
C844   C846    1.442   .     S
C844   O870    1.286   .     A
C845   C958    1.368   1_455 S
C845   I985    2.163   1_455 S
C846   C901    1.368   .     S
C846   I930    2.163   .     S
C847   H859    1.082   .     S
C847   C852    1.396   .     A
C848   H860    1.082   .     S
C848   C851    1.396   .     A
C848   C514    1.388   1_565 S
C849   C851    1.405   .     A
C849   I875    2.125   .     S
C849   C511    1.388   1_565 S
C850   C852    1.405   .     A
C850   I876    2.125   .     S
C853   C877    1.524   .     S
C853   N864    1.399   .     A
C854   N863    1.399   .     A
C854   C887    1.524   .     S
C854   C1360   1.423   .     S
C855   N863    1.349   .     A
C855   H861    1.076   .     S
C855   C1357   1.423   .     S
C856   N864    1.349   .     A
C856   H862    1.076   .     S
Cu857  O869    1.976   .     S
Cu857  O865    1.945   .     S
Cu857  Cu858   2.697   .     S
Cu857  N863    2.027   .     S
Cu857  O872    1.983   .     S
Cu857  O868    1.957   .     S
Cu858  O870    1.976   .     S
Cu858  O866    1.945   .     S
Cu858  N864    2.027   .     S
Cu858  O871    1.983   .     S
Cu858  O867    1.957   .     S
I873   C901    2.163   .     S
I874   C958    2.163   1_455 S
C877   C878    1.543   .     S
C877   H885    1.111   .     S
C877   H886    1.095   .     S
C878   C879    1.526   .     S
C879   H881    1.109   .     S
C879   H880    1.110   .     S
C879   H994    1.109   1_455 S
H882   C935    1.109   .     S
H883   C1382   1.111   .     S
H884   C1382   1.109   .     S
C887   C888    1.543   .     S
C887   H895    1.095   .     S
C887   H896    1.111   .     S
C888   C889    1.526   .     S
C888   H1397   1.109   .     S
C888   H1398   1.111   .     S
C889   H890    1.109   .     S
C889   H891    1.110   .     S
C889   H948    1.109   .     S
H892   C1001   1.109   1_455 S
C897   O921    1.291   .     A
C897   C908    1.440   .     S
C897   O923    1.297   .     A
C898   O922    1.291   .     A
C898   O924    1.297   .     A
C898   C907    1.440   .     S
C899   O927    1.304   .     A
C899   O925    1.286   .     A
C899   C901    1.442   .     S
C900   O928    1.304   .     A
C900   C902    1.442   .     S
C900   O926    1.286   .     A
C902   C957    1.368   .     S
C902   I986    2.163   .     S
C903   H915    1.082   .     S
C903   C908    1.396   .     A
C904   H916    1.082   .     S
C904   C907    1.396   .     A
C904   C570    1.388   1_565 S
C905   C907    1.405   .     A
C905   I931    2.125   .     S
C905   C567    1.388   1_565 S
C906   C908    1.405   .     A
C906   I932    2.125   .     S
C909   C933    1.524   .     S
C909   N920    1.399   .     A
C910   N919    1.399   .     A
C910   C943    1.524   .     S
C910   C1416   1.423   .     S
C911   N919    1.349   .     A
C911   H917    1.076   .     S
C911   C1413   1.423   .     S
C912   N920    1.349   .     A
C912   H918    1.076   .     S
Cu913  O925    1.976   .     S
Cu913  O921    1.945   .     S
Cu913  Cu914   2.697   .     S
Cu913  N919    2.027   .     S
Cu913  O928    1.983   .     S
Cu913  O924    1.957   .     S
Cu914  O926    1.976   .     S
Cu914  O922    1.945   .     S
Cu914  N920    2.027   .     S
Cu914  O927    1.983   .     S
Cu914  O923    1.957   .     S
I929   C957    2.163   .     S
C933   C934    1.543   .     S
C933   H941    1.111   .     S
C933   H942    1.095   .     S
C934   C935    1.526   .     S
C935   H937    1.109   .     S
C935   H936    1.110   .     S
H938   C991    1.109   .     S
H939   C1438   1.111   .     S
H940   C1438   1.109   .     S
C943   C944    1.543   .     S
C943   H951    1.095   .     S
C943   H952    1.111   .     S
C944   C945    1.526   .     S
C944   H1453   1.109   .     S
C944   H1454   1.111   .     S
C945   H946    1.109   .     S
C945   H947    1.110   .     S
C945   H1004   1.109   .     S
C953   O977    1.291   .     A
C953   C964    1.440   .     S
C953   O979    1.297   .     A
C954   O978    1.291   .     A
C954   O980    1.297   .     A
C954   C963    1.440   .     S
C955   O983    1.304   .     A
C955   O981    1.286   .     A
C955   C957    1.442   .     S
C956   O984    1.304   .     A
C956   C958    1.442   .     S
C956   O982    1.286   .     A
C958   C845    1.368   1_655 S
C958   I874    2.163   1_655 S
C959   H971    1.082   .     S
C959   C964    1.396   .     A
C960   H972    1.082   .     S
C960   C963    1.396   .     A
C960   C626    1.388   1_565 S
C961   C963    1.405   .     A
C961   I987    2.125   .     S
C961   C623    1.388   1_565 S
C962   C964    1.405   .     A
C962   I988    2.125   .     S
C965   C989    1.524   .     S
C965   N976    1.399   .     A
C966   N975    1.399   .     A
C966   C999    1.524   .     S
C966   C1472   1.423   .     S
C967   N975    1.349   .     A
C967   H973    1.076   .     S
C967   C1469   1.423   .     S
C968   N976    1.349   .     A
C968   H974    1.076   .     S
Cu969  O981    1.976   .     S
Cu969  O977    1.945   .     S
Cu969  Cu970   2.697   .     S
Cu969  N975    2.027   .     S
Cu969  O984    1.983   .     S
Cu969  O980    1.957   .     S
Cu970  O982    1.976   .     S
Cu970  O978    1.945   .     S
Cu970  N976    2.027   .     S
Cu970  O983    1.983   .     S
Cu970  O979    1.957   .     S
I985   C845    2.163   1_655 S
C989   C990    1.543   .     S
C989   H997    1.111   .     S
C989   H998    1.095   .     S
C990   C991    1.526   .     S
C991   H993    1.109   .     S
C991   H992    1.110   .     S
H994   C879    1.109   1_655 S
H995   C1494   1.111   .     S
H996   C1494   1.109   .     S
C999   C1000   1.543   .     S
C999   H1007   1.095   .     S
C999   H1008   1.111   .     S
C1000  C1001   1.526   .     S
C1000  H1509   1.109   .     S
C1000  H1510   1.111   .     S
C1001  H1002   1.109   .     S
C1001  H1003   1.110   .     S
C1001  H892    1.109   1_655 S
C1009  O1033   1.291   .     A
C1009  C1020   1.440   .     S
C1009  O1035   1.297   .     A
C1010  O1034   1.291   .     A
C1010  O1036   1.297   .     A
C1010  C1019   1.440   .     S
C1011  O1039   1.304   .     A
C1011  O1037   1.286   .     A
C1011  C1013   1.442   .     S
C1012  O1040   1.304   .     A
C1012  C1014   1.442   .     S
C1012  O1038   1.286   .     A
C1013  C1126   1.368   1_455 S
C1013  I1153   2.163   1_455 S
C1014  C1069   1.368   .     S
C1014  I1098   2.163   .     S
C1015  H1027   1.082   .     S
C1015  C1020   1.396   .     A
C1015  C1353   1.388   1_545 S
C1016  H1028   1.082   .     S
C1016  C1019   1.396   .     A
C1016  C1186   1.388   .     S
C1017  C1019   1.405   .     A
C1017  I1043   2.125   .     S
C1017  C1183   1.388   .     S
C1018  C1020   1.405   .     A
C1018  I1044   2.125   .     S
C1018  C1352   1.388   1_545 S
C1021  C1045   1.524   .     S
C1021  N1032   1.399   .     A
C1022  N1031   1.399   .     A
C1022  C1055   1.524   .     S
C1022  C16     1.423   1_556 S
C1023  N1031   1.349   .     A
C1023  H1029   1.076   .     S
C1023  C13     1.423   1_556 S
C1024  N1032   1.349   .     A
C1024  H1030   1.076   .     S
Cu1025 O1037   1.976   .     S
Cu1025 O1033   1.945   .     S
Cu1025 Cu1026  2.697   .     S
Cu1025 N1031   2.027   .     S
Cu1025 O1040   1.983   .     S
Cu1025 O1036   1.957   .     S
Cu1026 O1038   1.976   .     S
Cu1026 O1034   1.945   .     S
Cu1026 N1032   2.027   .     S
Cu1026 O1039   1.983   .     S
Cu1026 O1035   1.957   .     S
I1041  C1069   2.163   .     S
I1042  C1126   2.163   1_455 S
C1045  C1046   1.543   .     S
C1045  H1053   1.111   .     S
C1045  H1054   1.095   .     S
C1046  C1047   1.526   .     S
C1047  H1049   1.109   .     S
C1047  H1048   1.110   .     S
C1047  H1162   1.109   1_455 S
H1050  C1103   1.109   .     S
H1051  C38     1.111   1_556 S
H1052  C38     1.109   1_556 S
C1055  C1056   1.543   .     S
C1055  H1063   1.095   .     S
C1055  H1064   1.111   .     S
C1056  C1057   1.526   .     S
C1056  H53     1.109   1_556 S
C1056  H54     1.111   1_556 S
C1057  H1058   1.109   .     S
C1057  H1059   1.110   .     S
C1057  H1116   1.109   .     S
H1060  C1169   1.109   1_455 S
C1065  O1089   1.291   .     A
C1065  C1076   1.440   .     S
C1065  O1091   1.297   .     A
C1066  O1090   1.291   .     A
C1066  O1092   1.297   .     A
C1066  C1075   1.440   .     S
C1067  O1095   1.304   .     A
C1067  O1093   1.286   .     A
C1067  C1069   1.442   .     S
C1068  O1096   1.304   .     A
C1068  C1070   1.442   .     S
C1068  O1094   1.286   .     A
C1070  C1125   1.368   .     S
C1070  I1154   2.163   .     S
C1071  H1083   1.082   .     S
C1071  C1076   1.396   .     A
C1071  C1409   1.388   1_545 S
C1072  H1084   1.082   .     S
C1072  C1075   1.396   .     A
C1072  C1242   1.388   .     S
C1073  C1075   1.405   .     A
C1073  I1099   2.125   .     S
C1073  C1239   1.388   .     S
C1074  C1076   1.405   .     A
C1074  I1100   2.125   .     S
C1074  C1408   1.388   1_545 S
C1077  C1101   1.524   .     S
C1077  N1088   1.399   .     A
C1078  N1087   1.399   .     A
C1078  C1111   1.524   .     S
C1078  C72     1.423   1_556 S
C1079  N1087   1.349   .     A
C1079  H1085   1.076   .     S
C1079  C69     1.423   1_556 S
C1080  N1088   1.349   .     A
C1080  H1086   1.076   .     S
Cu1081 O1093   1.976   .     S
Cu1081 O1089   1.945   .     S
Cu1081 Cu1082  2.697   .     S
Cu1081 N1087   2.027   .     S
Cu1081 O1096   1.983   .     S
Cu1081 O1092   1.957   .     S
Cu1082 O1094   1.976   .     S
Cu1082 O1090   1.945   .     S
Cu1082 N1088   2.027   .     S
Cu1082 O1095   1.983   .     S
Cu1082 O1091   1.957   .     S
I1097  C1125   2.163   .     S
C1101  C1102   1.543   .     S
C1101  H1109   1.111   .     S
C1101  H1110   1.095   .     S
C1102  C1103   1.526   .     S
C1103  H1105   1.109   .     S
C1103  H1104   1.110   .     S
H1106  C1159   1.109   .     S
H1107  C94     1.111   1_556 S
H1108  C94     1.109   1_556 S
C1111  C1112   1.543   .     S
C1111  H1119   1.095   .     S
C1111  H1120   1.111   .     S
C1112  C1113   1.526   .     S
C1112  H109    1.109   1_556 S
C1112  H110    1.111   1_556 S
C1113  H1114   1.109   .     S
C1113  H1115   1.110   .     S
C1113  H1172   1.109   .     S
C1121  O1145   1.291   .     A
C1121  C1132   1.440   .     S
C1121  O1147   1.297   .     A
C1122  O1146   1.291   .     A
C1122  O1148   1.297   .     A
C1122  C1131   1.440   .     S
C1123  O1151   1.304   .     A
C1123  O1149   1.286   .     A
C1123  C1125   1.442   .     S
C1124  O1152   1.304   .     A
C1124  C1126   1.442   .     S
C1124  O1150   1.286   .     A
C1126  C1013   1.368   1_655 S
C1126  I1042   2.163   1_655 S
C1127  H1139   1.082   .     S
C1127  C1132   1.396   .     A
C1127  C1465   1.388   1_545 S
C1128  H1140   1.082   .     S
C1128  C1131   1.396   .     A
C1128  C1298   1.388   .     S
C1129  C1131   1.405   .     A
C1129  I1155   2.125   .     S
C1129  C1295   1.388   .     S
C1130  C1132   1.405   .     A
C1130  I1156   2.125   .     S
C1130  C1464   1.388   1_545 S
C1133  C1157   1.524   .     S
C1133  N1144   1.399   .     A
C1134  N1143   1.399   .     A
C1134  C1167   1.524   .     S
C1134  C128    1.423   1_556 S
C1135  N1143   1.349   .     A
C1135  H1141   1.076   .     S
C1135  C125    1.423   1_556 S
C1136  N1144   1.349   .     A
C1136  H1142   1.076   .     S
Cu1137 O1149   1.976   .     S
Cu1137 O1145   1.945   .     S
Cu1137 Cu1138  2.697   .     S
Cu1137 N1143   2.027   .     S
Cu1137 O1152   1.983   .     S
Cu1137 O1148   1.957   .     S
Cu1138 O1150   1.976   .     S
Cu1138 O1146   1.945   .     S
Cu1138 N1144   2.027   .     S
Cu1138 O1151   1.983   .     S
Cu1138 O1147   1.957   .     S
I1153  C1013   2.163   1_655 S
C1157  C1158   1.543   .     S
C1157  H1165   1.111   .     S
C1157  H1166   1.095   .     S
C1158  C1159   1.526   .     S
C1159  H1161   1.109   .     S
C1159  H1160   1.110   .     S
H1162  C1047   1.109   1_655 S
H1163  C150    1.111   1_556 S
H1164  C150    1.109   1_556 S
C1167  C1168   1.543   .     S
C1167  H1175   1.095   .     S
C1167  H1176   1.111   .     S
C1168  C1169   1.526   .     S
C1168  H165    1.109   1_556 S
C1168  H166    1.111   1_556 S
C1169  H1170   1.109   .     S
C1169  H1171   1.110   .     S
C1169  H1060   1.109   1_655 S
C1177  O1201   1.291   .     A
C1177  C1188   1.440   .     S
C1177  O1203   1.297   .     A
C1178  O1202   1.291   .     A
C1178  O1204   1.297   .     A
C1178  C1187   1.440   .     S
C1179  O1207   1.304   .     A
C1179  O1205   1.286   .     A
C1179  C1181   1.442   .     S
C1180  O1208   1.304   .     A
C1180  C1182   1.442   .     S
C1180  O1206   1.286   .     A
C1181  C1294   1.368   1_455 S
C1181  I1321   2.163   1_455 S
C1182  C1237   1.368   .     S
C1182  I1266   2.163   .     S
C1183  H1195   1.082   .     S
C1183  C1188   1.396   .     A
C1184  H1196   1.082   .     S
C1184  C1187   1.396   .     A
C1184  C1354   1.388   .     S
C1185  C1187   1.405   .     A
C1185  I1211   2.125   .     S
C1185  C1351   1.388   .     S
C1186  C1188   1.405   .     A
C1186  I1212   2.125   .     S
C1189  C1213   1.524   .     S
C1189  N1200   1.399   .     A
C1190  N1199   1.399   .     A
C1190  C1223   1.524   .     S
C1190  C184    1.423   1_556 S
C1191  N1199   1.349   .     A
C1191  H1197   1.076   .     S
C1191  C181    1.423   1_556 S
C1192  N1200   1.349   .     A
C1192  H1198   1.076   .     S
Cu1193 O1205   1.976   .     S
Cu1193 O1201   1.945   .     S
Cu1193 Cu1194  2.697   .     S
Cu1193 N1199   2.027   .     S
Cu1193 O1208   1.983   .     S
Cu1193 O1204   1.957   .     S
Cu1194 O1206   1.976   .     S
Cu1194 O1202   1.945   .     S
Cu1194 N1200   2.027   .     S
Cu1194 O1207   1.983   .     S
Cu1194 O1203   1.957   .     S
I1209  C1237   2.163   .     S
I1210  C1294   2.163   1_455 S
C1213  C1214   1.543   .     S
C1213  H1221   1.111   .     S
C1213  H1222   1.095   .     S
C1214  C1215   1.526   .     S
C1215  H1217   1.109   .     S
C1215  H1216   1.110   .     S
C1215  H1330   1.109   1_455 S
H1218  C1271   1.109   .     S
H1219  C206    1.111   1_556 S
H1220  C206    1.109   1_556 S
C1223  C1224   1.543   .     S
C1223  H1231   1.095   .     S
C1223  H1232   1.111   .     S
C1224  C1225   1.526   .     S
C1224  H221    1.109   1_556 S
C1224  H222    1.111   1_556 S
C1225  H1226   1.109   .     S
C1225  H1227   1.110   .     S
C1225  H1284   1.109   .     S
H1228  C1337   1.109   1_455 S
C1233  O1257   1.291   .     A
C1233  C1244   1.440   .     S
C1233  O1259   1.297   .     A
C1234  O1258   1.291   .     A
C1234  O1260   1.297   .     A
C1234  C1243   1.440   .     S
C1235  O1263   1.304   .     A
C1235  O1261   1.286   .     A
C1235  C1237   1.442   .     S
C1236  O1264   1.304   .     A
C1236  C1238   1.442   .     S
C1236  O1262   1.286   .     A
C1238  C1293   1.368   .     S
C1238  I1322   2.163   .     S
C1239  H1251   1.082   .     S
C1239  C1244   1.396   .     A
C1240  H1252   1.082   .     S
C1240  C1243   1.396   .     A
C1240  C1410   1.388   .     S
C1241  C1243   1.405   .     A
C1241  I1267   2.125   .     S
C1241  C1407   1.388   .     S
C1242  C1244   1.405   .     A
C1242  I1268   2.125   .     S
C1245  C1269   1.524   .     S
C1245  N1256   1.399   .     A
C1246  N1255   1.399   .     A
C1246  C1279   1.524   .     S
C1246  C240    1.423   1_556 S
C1247  N1255   1.349   .     A
C1247  H1253   1.076   .     S
C1247  C237    1.423   1_556 S
C1248  N1256   1.349   .     A
C1248  H1254   1.076   .     S
Cu1249 O1261   1.976   .     S
Cu1249 O1257   1.945   .     S
Cu1249 Cu1250  2.697   .     S
Cu1249 N1255   2.027   .     S
Cu1249 O1264   1.983   .     S
Cu1249 O1260   1.957   .     S
Cu1250 O1262   1.976   .     S
Cu1250 O1258   1.945   .     S
Cu1250 N1256   2.027   .     S
Cu1250 O1263   1.983   .     S
Cu1250 O1259   1.957   .     S
I1265  C1293   2.163   .     S
C1269  C1270   1.543   .     S
C1269  H1277   1.111   .     S
C1269  H1278   1.095   .     S
C1270  C1271   1.526   .     S
C1271  H1273   1.109   .     S
C1271  H1272   1.110   .     S
H1274  C1327   1.109   .     S
H1275  C262    1.111   1_556 S
H1276  C262    1.109   1_556 S
C1279  C1280   1.543   .     S
C1279  H1287   1.095   .     S
C1279  H1288   1.111   .     S
C1280  C1281   1.526   .     S
C1280  H277    1.109   1_556 S
C1280  H278    1.111   1_556 S
C1281  H1282   1.109   .     S
C1281  H1283   1.110   .     S
C1281  H1340   1.109   .     S
C1289  O1313   1.291   .     A
C1289  C1300   1.440   .     S
C1289  O1315   1.297   .     A
C1290  O1314   1.291   .     A
C1290  O1316   1.297   .     A
C1290  C1299   1.440   .     S
C1291  O1319   1.304   .     A
C1291  O1317   1.286   .     A
C1291  C1293   1.442   .     S
C1292  O1320   1.304   .     A
C1292  C1294   1.442   .     S
C1292  O1318   1.286   .     A
C1294  C1181   1.368   1_655 S
C1294  I1210   2.163   1_655 S
C1295  H1307   1.082   .     S
C1295  C1300   1.396   .     A
C1296  H1308   1.082   .     S
C1296  C1299   1.396   .     A
C1296  C1466   1.388   .     S
C1297  C1299   1.405   .     A
C1297  I1323   2.125   .     S
C1297  C1463   1.388   .     S
C1298  C1300   1.405   .     A
C1298  I1324   2.125   .     S
C1301  C1325   1.524   .     S
C1301  N1312   1.399   .     A
C1302  N1311   1.399   .     A
C1302  C1335   1.524   .     S
C1302  C296    1.423   1_556 S
C1303  N1311   1.349   .     A
C1303  H1309   1.076   .     S
C1303  C293    1.423   1_556 S
C1304  N1312   1.349   .     A
C1304  H1310   1.076   .     S
Cu1305 O1317   1.976   .     S
Cu1305 O1313   1.945   .     S
Cu1305 Cu1306  2.697   .     S
Cu1305 N1311   2.027   .     S
Cu1305 O1320   1.983   .     S
Cu1305 O1316   1.957   .     S
Cu1306 O1318   1.976   .     S
Cu1306 O1314   1.945   .     S
Cu1306 N1312   2.027   .     S
Cu1306 O1319   1.983   .     S
Cu1306 O1315   1.957   .     S
I1321  C1181   2.163   1_655 S
C1325  C1326   1.543   .     S
C1325  H1333   1.111   .     S
C1325  H1334   1.095   .     S
C1326  C1327   1.526   .     S
C1327  H1329   1.109   .     S
C1327  H1328   1.110   .     S
H1330  C1215   1.109   1_655 S
H1331  C318    1.111   1_556 S
H1332  C318    1.109   1_556 S
C1335  C1336   1.543   .     S
C1335  H1343   1.095   .     S
C1335  H1344   1.111   .     S
C1336  C1337   1.526   .     S
C1336  H333    1.109   1_556 S
C1336  H334    1.111   1_556 S
C1337  H1338   1.109   .     S
C1337  H1339   1.110   .     S
C1337  H1228   1.109   1_655 S
C1345  O1369   1.291   .     A
C1345  C1356   1.440   .     S
C1345  O1371   1.297   .     A
C1346  O1370   1.291   .     A
C1346  O1372   1.297   .     A
C1346  C1355   1.440   .     S
C1347  O1375   1.304   .     A
C1347  O1373   1.286   .     A
C1347  C1349   1.442   .     S
C1348  O1376   1.304   .     A
C1348  C1350   1.442   .     S
C1348  O1374   1.286   .     A
C1349  C1462   1.368   1_455 S
C1349  I1489   2.163   1_455 S
C1350  C1405   1.368   .     S
C1350  I1434   2.163   .     S
C1351  H1363   1.082   .     S
C1351  C1356   1.396   .     A
C1352  H1364   1.082   .     S
C1352  C1355   1.396   .     A
C1352  C1018   1.388   1_565 S
C1353  C1355   1.405   .     A
C1353  I1379   2.125   .     S
C1353  C1015   1.388   1_565 S
C1354  C1356   1.405   .     A
C1354  I1380   2.125   .     S
C1357  C1381   1.524   .     S
C1357  N1368   1.399   .     A
C1358  N1367   1.399   .     A
C1358  C1391   1.524   .     S
C1358  C352    1.423   1_556 S
C1359  N1367   1.349   .     A
C1359  H1365   1.076   .     S
C1359  C349    1.423   1_556 S
C1360  N1368   1.349   .     A
C1360  H1366   1.076   .     S
Cu1361 O1373   1.976   .     S
Cu1361 O1369   1.945   .     S
Cu1361 Cu1362  2.697   .     S
Cu1361 N1367   2.027   .     S
Cu1361 O1376   1.983   .     S
Cu1361 O1372   1.957   .     S
Cu1362 O1374   1.976   .     S
Cu1362 O1370   1.945   .     S
Cu1362 N1368   2.027   .     S
Cu1362 O1375   1.983   .     S
Cu1362 O1371   1.957   .     S
I1377  C1405   2.163   .     S
I1378  C1462   2.163   1_455 S
C1381  C1382   1.543   .     S
C1381  H1389   1.111   .     S
C1381  H1390   1.095   .     S
C1382  C1383   1.526   .     S
C1383  H1385   1.109   .     S
C1383  H1384   1.110   .     S
C1383  H1498   1.109   1_455 S
H1386  C1439   1.109   .     S
H1387  C374    1.111   1_556 S
H1388  C374    1.109   1_556 S
C1391  C1392   1.543   .     S
C1391  H1399   1.095   .     S
C1391  H1400   1.111   .     S
C1392  C1393   1.526   .     S
C1392  H389    1.109   1_556 S
C1392  H390    1.111   1_556 S
C1393  H1394   1.109   .     S
C1393  H1395   1.110   .     S
C1393  H1452   1.109   .     S
H1396  C1505   1.109   1_455 S
C1401  O1425   1.291   .     A
C1401  C1412   1.440   .     S
C1401  O1427   1.297   .     A
C1402  O1426   1.291   .     A
C1402  O1428   1.297   .     A
C1402  C1411   1.440   .     S
C1403  O1431   1.304   .     A
C1403  O1429   1.286   .     A
C1403  C1405   1.442   .     S
C1404  O1432   1.304   .     A
C1404  C1406   1.442   .     S
C1404  O1430   1.286   .     A
C1406  C1461   1.368   .     S
C1406  I1490   2.163   .     S
C1407  H1419   1.082   .     S
C1407  C1412   1.396   .     A
C1408  H1420   1.082   .     S
C1408  C1411   1.396   .     A
C1408  C1074   1.388   1_565 S
C1409  C1411   1.405   .     A
C1409  I1435   2.125   .     S
C1409  C1071   1.388   1_565 S
C1410  C1412   1.405   .     A
C1410  I1436   2.125   .     S
C1413  C1437   1.524   .     S
C1413  N1424   1.399   .     A
C1414  N1423   1.399   .     A
C1414  C1447   1.524   .     S
C1414  C408    1.423   1_556 S
C1415  N1423   1.349   .     A
C1415  H1421   1.076   .     S
C1415  C405    1.423   1_556 S
C1416  N1424   1.349   .     A
C1416  H1422   1.076   .     S
Cu1417 O1429   1.976   .     S
Cu1417 O1425   1.945   .     S
Cu1417 Cu1418  2.697   .     S
Cu1417 N1423   2.027   .     S
Cu1417 O1432   1.983   .     S
Cu1417 O1428   1.957   .     S
Cu1418 O1430   1.976   .     S
Cu1418 O1426   1.945   .     S
Cu1418 N1424   2.027   .     S
Cu1418 O1431   1.983   .     S
Cu1418 O1427   1.957   .     S
I1433  C1461   2.163   .     S
C1437  C1438   1.543   .     S
C1437  H1445   1.111   .     S
C1437  H1446   1.095   .     S
C1438  C1439   1.526   .     S
C1439  H1441   1.109   .     S
C1439  H1440   1.110   .     S
H1442  C1495   1.109   .     S
H1443  C430    1.111   1_556 S
H1444  C430    1.109   1_556 S
C1447  C1448   1.543   .     S
C1447  H1455   1.095   .     S
C1447  H1456   1.111   .     S
C1448  C1449   1.526   .     S
C1448  H445    1.109   1_556 S
C1448  H446    1.111   1_556 S
C1449  H1450   1.109   .     S
C1449  H1451   1.110   .     S
C1449  H1508   1.109   .     S
C1457  O1481   1.291   .     A
C1457  C1468   1.440   .     S
C1457  O1483   1.297   .     A
C1458  O1482   1.291   .     A
C1458  O1484   1.297   .     A
C1458  C1467   1.440   .     S
C1459  O1487   1.304   .     A
C1459  O1485   1.286   .     A
C1459  C1461   1.442   .     S
C1460  O1488   1.304   .     A
C1460  C1462   1.442   .     S
C1460  O1486   1.286   .     A
C1462  C1349   1.368   1_655 S
C1462  I1378   2.163   1_655 S
C1463  H1475   1.082   .     S
C1463  C1468   1.396   .     A
C1464  H1476   1.082   .     S
C1464  C1467   1.396   .     A
C1464  C1130   1.388   1_565 S
C1465  C1467   1.405   .     A
C1465  I1491   2.125   .     S
C1465  C1127   1.388   1_565 S
C1466  C1468   1.405   .     A
C1466  I1492   2.125   .     S
C1469  C1493   1.524   .     S
C1469  N1480   1.399   .     A
C1470  N1479   1.399   .     A
C1470  C1503   1.524   .     S
C1470  C464    1.423   1_556 S
C1471  N1479   1.349   .     A
C1471  H1477   1.076   .     S
C1471  C461    1.423   1_556 S
C1472  N1480   1.349   .     A
C1472  H1478   1.076   .     S
Cu1473 O1485   1.976   .     S
Cu1473 O1481   1.945   .     S
Cu1473 Cu1474  2.697   .     S
Cu1473 N1479   2.027   .     S
Cu1473 O1488   1.983   .     S
Cu1473 O1484   1.957   .     S
Cu1474 O1486   1.976   .     S
Cu1474 O1482   1.945   .     S
Cu1474 N1480   2.027   .     S
Cu1474 O1487   1.983   .     S
Cu1474 O1483   1.957   .     S
I1489  C1349   2.163   1_655 S
C1493  C1494   1.543   .     S
C1493  H1501   1.111   .     S
C1493  H1502   1.095   .     S
C1494  C1495   1.526   .     S
C1495  H1497   1.109   .     S
C1495  H1496   1.110   .     S
H1498  C1383   1.109   1_655 S
H1499  C486    1.111   1_556 S
H1500  C486    1.109   1_556 S
C1503  C1504   1.543   .     S
C1503  H1511   1.095   .     S
C1503  H1512   1.111   .     S
C1504  C1505   1.526   .     S
C1504  H501    1.109   1_556 S
C1504  H502    1.111   1_556 S
C1505  H1506   1.109   .     S
C1505  H1507   1.110   .     S
C1505  H1396   1.109   1_655 S
