data_str_m1_o10_o16_pcu_sym.208
_audit_creation_date              2020-01-03
_audit_creation_method            'Materials Studio'
_symmetry_space_group_name_H-M    'P1'
_symmetry_Int_Tables_number       1
_symmetry_cell_setting            triclinic
loop_
_symmetry_equiv_pos_as_xyz
  x,y,z
_cell_length_a                    32.5642
_cell_length_b                    32.5304
_cell_length_c                    31.0037
_cell_angle_alpha                 96.1706
_cell_angle_beta                  74.2688
_cell_angle_gamma                 98.4608
loop_
_atom_site_label
_atom_site_type_symbol
_atom_site_fract_x
_atom_site_fract_y
_atom_site_fract_z
_atom_site_U_iso_or_equiv
_atom_site_adp_type
_atom_site_occupancy
C1     C     0.05277   0.15984   0.25996   0.00000  Uiso   1.00
C2     C     0.16590   0.15138   0.05879   0.00000  Uiso   1.00
C3     C     0.23831   0.13994   0.05624   0.00000  Uiso   1.00
C4     C     0.28088   0.17390   0.23992   0.00000  Uiso   1.00
C5     C     0.13669   0.18906   0.42061   0.00000  Uiso   1.00
C6     C     0.32682   0.17658   0.23560   0.00000  Uiso   1.00
C7     C     0.00743   0.15767   0.26411   0.00000  Uiso   1.00
C8     C     0.18067   0.32257   0.23626   0.00000  Uiso   1.00
C9     C     0.15213   0.01180   0.26400   0.00000  Uiso   1.00
C10    C     0.15630   0.05590   0.26015   0.00000  Uiso   1.00
C11    C     0.17668   0.27799   0.24010   0.00000  Uiso   1.00
C12    C     0.07877   0.18538   0.48908   0.00000  Uiso   1.00
C13    C     0.18583   0.14830   0.12920   0.00000  Uiso   1.00
C14    C     0.14838   0.18466   0.37100   0.00000  Uiso   1.00
C15    C     0.25172   0.14784   0.01114   0.00000  Uiso   1.00
C16    C     0.19575   0.14293   0.08040   0.00000  Uiso   1.00
C17    C     0.09305   0.19161   0.44328   0.00000  Uiso   1.00
C18    C     0.10636   0.17471   0.01190   0.00000  Uiso   1.00
C19    C     0.15039   0.17286   0.49059   0.00000  Uiso   1.00
C20    C     0.16649   0.18375   0.44513   0.00000  Uiso   1.00
C21    C     0.17895   0.16084   0.01321   0.00000  Uiso   1.00
C22    C     0.22290   0.15988   0.48998   0.00000  Uiso   1.00
C23    C     0.23872   0.17438   0.44727   0.00000  Uiso   1.00
C24    C     0.21184   0.18881   0.42591   0.00000  Uiso   1.00
H25    H     0.26178   0.13405   0.07308   0.00000  Uiso   1.00
H26    H     0.01604   0.19391   0.20910   0.00000  Uiso   1.00
H27    H     0.03530   0.19861   0.44047   0.00000  Uiso   1.00
H28    H     0.21276   0.23507   0.38468   0.00000  Uiso   1.00
H29    H     0.24225   0.19499   0.35961   0.00000  Uiso   1.00
H30    H     0.31883   0.14055   0.29111   0.00000  Uiso   1.00
H31    H     0.20705   0.00380   0.21068   0.00000  Uiso   1.00
H32    H     0.12544   0.33132   0.28974   0.00000  Uiso   1.00
H33    H     0.27300   0.17726   0.43146   0.00000  Uiso   1.00
H34    H     0.28531   0.14709   0.49357   0.00000  Uiso   1.00
H35    H     0.13388   0.15388   0.07960   0.00000  Uiso   1.00
H36    H     0.09183   0.16815   0.04637   0.00000  Uiso   1.00
H37    H     0.04535   0.18673   0.00687   0.00000  Uiso   1.00
N38    N     0.23251   0.21408   0.38888   0.00000  Uiso   1.00
O39    O     0.16667   0.16667   0.25000   0.00000  Uiso   1.00
O40    O     0.15451   0.12637   0.15458   0.00000  Uiso   1.00
O41    O     0.12940   0.20391   0.34968   0.00000  Uiso   1.00
O42    O     0.20824   0.17759   0.14606   0.00000  Uiso   1.00
O43    O     0.17451   0.15880   0.34968   0.00000  Uiso   1.00
O44    O     0.06437   0.19808   0.41968   0.00000  Uiso   1.00
O45    O     0.17930   0.08019   0.28213   0.00000  Uiso   1.00
O46    O     0.14632   0.26085   0.27013   0.00000  Uiso   1.00
O47    O     0.07412   0.13291   0.23413   0.00000  Uiso   1.00
O48    O     0.26693   0.19272   0.21360   0.00000  Uiso   1.00
O49    O     0.07071   0.18878   0.28213   0.00000  Uiso   1.00
O50    O     0.25491   0.15226   0.27013   0.00000  Uiso   1.00
O51    O     0.13760   0.06944   0.23413   0.00000  Uiso   1.00
O52    O     0.20345   0.25620   0.21360   0.00000  Uiso   1.00
Zn53   Zn    0.19338   0.13994   0.28734   0.00000  Uiso   1.00
Zn54   Zn    0.13379   0.12458   0.21875   0.00000  Uiso   1.00
Zn55   Zn    0.21056   0.19775   0.20657   0.00000  Uiso   1.00
Zn56   Zn    0.12893   0.20439   0.28733   0.00000  Uiso   1.00
C57    C     0.38610   0.15984   0.25996   0.00000  Uiso   1.00
C58    C     0.49923   0.15138   0.05879   0.00000  Uiso   1.00
C59    C     0.57164   0.13994   0.05624   0.00000  Uiso   1.00
C60    C     0.61421   0.17390   0.23992   0.00000  Uiso   1.00
C61    C     0.47002   0.18906   0.42061   0.00000  Uiso   1.00
C62    C     0.66016   0.17658   0.23560   0.00000  Uiso   1.00
C63    C     0.34077   0.15767   0.26411   0.00000  Uiso   1.00
C64    C     0.51400   0.32257   0.23626   0.00000  Uiso   1.00
C65    C     0.48546   0.01180   0.26400   0.00000  Uiso   1.00
C66    C     0.48963   0.05590   0.26015   0.00000  Uiso   1.00
C67    C     0.51001   0.27799   0.24010   0.00000  Uiso   1.00
C68    C     0.41210   0.18538   0.48908   0.00000  Uiso   1.00
C69    C     0.51917   0.14830   0.12920   0.00000  Uiso   1.00
C70    C     0.48171   0.18466   0.37100   0.00000  Uiso   1.00
C71    C     0.58505   0.14784   0.01114   0.00000  Uiso   1.00
C72    C     0.52908   0.14293   0.08040   0.00000  Uiso   1.00
C73    C     0.42638   0.19161   0.44328   0.00000  Uiso   1.00
C74    C     0.43969   0.17471   0.01190   0.00000  Uiso   1.00
C75    C     0.48372   0.17286   0.49059   0.00000  Uiso   1.00
C76    C     0.49982   0.18375   0.44513   0.00000  Uiso   1.00
C77    C     0.51229   0.16084   0.01321   0.00000  Uiso   1.00
C78    C     0.55623   0.15988   0.48998   0.00000  Uiso   1.00
C79    C     0.57206   0.17438   0.44727   0.00000  Uiso   1.00
C80    C     0.54517   0.18881   0.42591   0.00000  Uiso   1.00
H81    H     0.59512   0.13405   0.07308   0.00000  Uiso   1.00
H82    H     0.34938   0.19391   0.20910   0.00000  Uiso   1.00
H83    H     0.36863   0.19861   0.44047   0.00000  Uiso   1.00
H84    H     0.54609   0.23507   0.38468   0.00000  Uiso   1.00
H85    H     0.57559   0.19499   0.35961   0.00000  Uiso   1.00
H86    H     0.65216   0.14055   0.29111   0.00000  Uiso   1.00
H87    H     0.54039   0.00380   0.21068   0.00000  Uiso   1.00
H88    H     0.45877   0.33132   0.28974   0.00000  Uiso   1.00
H89    H     0.60634   0.17726   0.43146   0.00000  Uiso   1.00
H90    H     0.61864   0.14709   0.49357   0.00000  Uiso   1.00
H91    H     0.46722   0.15388   0.07960   0.00000  Uiso   1.00
H92    H     0.42516   0.16815   0.04637   0.00000  Uiso   1.00
H93    H     0.37868   0.18673   0.00687   0.00000  Uiso   1.00
N94    N     0.56584   0.21408   0.38888   0.00000  Uiso   1.00
O95    O     0.50000   0.16667   0.25000   0.00000  Uiso   1.00
O96    O     0.48784   0.12637   0.15458   0.00000  Uiso   1.00
O97    O     0.46274   0.20391   0.34968   0.00000  Uiso   1.00
O98    O     0.54157   0.17759   0.14606   0.00000  Uiso   1.00
O99    O     0.50785   0.15880   0.34968   0.00000  Uiso   1.00
O100   O     0.39771   0.19808   0.41968   0.00000  Uiso   1.00
O101   O     0.51264   0.08019   0.28213   0.00000  Uiso   1.00
O102   O     0.47965   0.26085   0.27013   0.00000  Uiso   1.00
O103   O     0.40745   0.13291   0.23413   0.00000  Uiso   1.00
O104   O     0.60026   0.19272   0.21360   0.00000  Uiso   1.00
O105   O     0.40405   0.18878   0.28213   0.00000  Uiso   1.00
O106   O     0.58824   0.15226   0.27013   0.00000  Uiso   1.00
O107   O     0.47093   0.06944   0.23413   0.00000  Uiso   1.00
O108   O     0.53678   0.25620   0.21360   0.00000  Uiso   1.00
Zn109  Zn    0.52672   0.13994   0.28734   0.00000  Uiso   1.00
Zn110  Zn    0.46713   0.12458   0.21875   0.00000  Uiso   1.00
Zn111  Zn    0.54389   0.19775   0.20657   0.00000  Uiso   1.00
Zn112  Zn    0.46226   0.20439   0.28733   0.00000  Uiso   1.00
C113   C     0.71944   0.15984   0.25996   0.00000  Uiso   1.00
C114   C     0.83256   0.15138   0.05879   0.00000  Uiso   1.00
C115   C     0.90498   0.13994   0.05624   0.00000  Uiso   1.00
C116   C     0.94755   0.17390   0.23992   0.00000  Uiso   1.00
C117   C     0.80335   0.18906   0.42061   0.00000  Uiso   1.00
C118   C     0.99349   0.17658   0.23560   0.00000  Uiso   1.00
C119   C     0.67410   0.15767   0.26411   0.00000  Uiso   1.00
C120   C     0.84734   0.32257   0.23626   0.00000  Uiso   1.00
C121   C     0.81880   0.01180   0.26400   0.00000  Uiso   1.00
C122   C     0.82296   0.05590   0.26015   0.00000  Uiso   1.00
C123   C     0.84334   0.27799   0.24010   0.00000  Uiso   1.00
C124   C     0.74544   0.18538   0.48908   0.00000  Uiso   1.00
C125   C     0.85250   0.14830   0.12920   0.00000  Uiso   1.00
C126   C     0.81505   0.18466   0.37100   0.00000  Uiso   1.00
C127   C     0.91839   0.14784   0.01114   0.00000  Uiso   1.00
C128   C     0.86241   0.14293   0.08040   0.00000  Uiso   1.00
C129   C     0.75971   0.19161   0.44328   0.00000  Uiso   1.00
C130   C     0.77302   0.17471   0.01190   0.00000  Uiso   1.00
C131   C     0.81705   0.17286   0.49059   0.00000  Uiso   1.00
C132   C     0.83315   0.18375   0.44513   0.00000  Uiso   1.00
C133   C     0.84562   0.16084   0.01321   0.00000  Uiso   1.00
C134   C     0.88957   0.15988   0.48998   0.00000  Uiso   1.00
C135   C     0.90539   0.17438   0.44727   0.00000  Uiso   1.00
C136   C     0.87851   0.18881   0.42591   0.00000  Uiso   1.00
H137   H     0.92845   0.13405   0.07308   0.00000  Uiso   1.00
H138   H     0.68271   0.19391   0.20910   0.00000  Uiso   1.00
H139   H     0.70197   0.19861   0.44047   0.00000  Uiso   1.00
H140   H     0.87943   0.23507   0.38468   0.00000  Uiso   1.00
H141   H     0.90892   0.19499   0.35961   0.00000  Uiso   1.00
H142   H     0.98550   0.14055   0.29111   0.00000  Uiso   1.00
H143   H     0.87372   0.00380   0.21068   0.00000  Uiso   1.00
H144   H     0.79211   0.33132   0.28974   0.00000  Uiso   1.00
H145   H     0.93967   0.17726   0.43146   0.00000  Uiso   1.00
H146   H     0.95198   0.14709   0.49357   0.00000  Uiso   1.00
H147   H     0.80055   0.15388   0.07960   0.00000  Uiso   1.00
H148   H     0.75850   0.16815   0.04637   0.00000  Uiso   1.00
H149   H     0.71201   0.18673   0.00687   0.00000  Uiso   1.00
N150   N     0.89917   0.21408   0.38888   0.00000  Uiso   1.00
O151   O     0.83333   0.16667   0.25000   0.00000  Uiso   1.00
O152   O     0.82118   0.12637   0.15458   0.00000  Uiso   1.00
O153   O     0.79607   0.20391   0.34968   0.00000  Uiso   1.00
O154   O     0.87491   0.17759   0.14606   0.00000  Uiso   1.00
O155   O     0.84118   0.15880   0.34968   0.00000  Uiso   1.00
O156   O     0.73104   0.19808   0.41968   0.00000  Uiso   1.00
O157   O     0.84597   0.08019   0.28213   0.00000  Uiso   1.00
O158   O     0.81298   0.26085   0.27013   0.00000  Uiso   1.00
O159   O     0.74078   0.13291   0.23413   0.00000  Uiso   1.00
O160   O     0.93360   0.19272   0.21360   0.00000  Uiso   1.00
O161   O     0.73738   0.18878   0.28213   0.00000  Uiso   1.00
O162   O     0.92158   0.15226   0.27013   0.00000  Uiso   1.00
O163   O     0.80426   0.06944   0.23413   0.00000  Uiso   1.00
O164   O     0.87012   0.25620   0.21360   0.00000  Uiso   1.00
Zn165  Zn    0.86005   0.13994   0.28734   0.00000  Uiso   1.00
Zn166  Zn    0.80046   0.12458   0.21875   0.00000  Uiso   1.00
Zn167  Zn    0.87723   0.19775   0.20657   0.00000  Uiso   1.00
Zn168  Zn    0.79560   0.20439   0.28733   0.00000  Uiso   1.00
C169   C     0.05277   0.49318   0.25996   0.00000  Uiso   1.00
C170   C     0.16590   0.48471   0.05879   0.00000  Uiso   1.00
C171   C     0.23831   0.47327   0.05624   0.00000  Uiso   1.00
C172   C     0.28088   0.50723   0.23992   0.00000  Uiso   1.00
C173   C     0.13669   0.52239   0.42061   0.00000  Uiso   1.00
C174   C     0.32682   0.50992   0.23560   0.00000  Uiso   1.00
C175   C     0.00743   0.49100   0.26411   0.00000  Uiso   1.00
C176   C     0.18067   0.65590   0.23626   0.00000  Uiso   1.00
C177   C     0.15213   0.34513   0.26400   0.00000  Uiso   1.00
C178   C     0.15630   0.38923   0.26015   0.00000  Uiso   1.00
C179   C     0.17668   0.61132   0.24010   0.00000  Uiso   1.00
C180   C     0.07877   0.51872   0.48908   0.00000  Uiso   1.00
C181   C     0.18583   0.48163   0.12920   0.00000  Uiso   1.00
C182   C     0.14838   0.51799   0.37100   0.00000  Uiso   1.00
C183   C     0.25172   0.48117   0.01114   0.00000  Uiso   1.00
C184   C     0.19575   0.47626   0.08040   0.00000  Uiso   1.00
C185   C     0.09305   0.52495   0.44328   0.00000  Uiso   1.00
C186   C     0.10636   0.50805   0.01190   0.00000  Uiso   1.00
C187   C     0.15039   0.50619   0.49059   0.00000  Uiso   1.00
C188   C     0.16649   0.51708   0.44513   0.00000  Uiso   1.00
C189   C     0.17895   0.49417   0.01321   0.00000  Uiso   1.00
C190   C     0.22290   0.49322   0.48998   0.00000  Uiso   1.00
C191   C     0.23872   0.50772   0.44727   0.00000  Uiso   1.00
C192   C     0.21184   0.52215   0.42591   0.00000  Uiso   1.00
H193   H     0.26178   0.46738   0.07308   0.00000  Uiso   1.00
H194   H     0.01604   0.52724   0.20910   0.00000  Uiso   1.00
H195   H     0.03530   0.53194   0.44047   0.00000  Uiso   1.00
H196   H     0.21276   0.56840   0.38468   0.00000  Uiso   1.00
H197   H     0.24225   0.52832   0.35961   0.00000  Uiso   1.00
H198   H     0.31883   0.47388   0.29111   0.00000  Uiso   1.00
H199   H     0.20705   0.33714   0.21068   0.00000  Uiso   1.00
H200   H     0.12544   0.66465   0.28974   0.00000  Uiso   1.00
H201   H     0.27300   0.51059   0.43146   0.00000  Uiso   1.00
H202   H     0.28531   0.48042   0.49357   0.00000  Uiso   1.00
H203   H     0.13388   0.48721   0.07960   0.00000  Uiso   1.00
H204   H     0.09183   0.50148   0.04637   0.00000  Uiso   1.00
H205   H     0.04535   0.52007   0.00687   0.00000  Uiso   1.00
N206   N     0.23251   0.54741   0.38888   0.00000  Uiso   1.00
O207   O     0.16667   0.50000   0.25000   0.00000  Uiso   1.00
O208   O     0.15451   0.45970   0.15458   0.00000  Uiso   1.00
O209   O     0.12940   0.53724   0.34968   0.00000  Uiso   1.00
O210   O     0.20824   0.51092   0.14606   0.00000  Uiso   1.00
O211   O     0.17451   0.49213   0.34968   0.00000  Uiso   1.00
O212   O     0.06437   0.53142   0.41968   0.00000  Uiso   1.00
O213   O     0.17930   0.41352   0.28213   0.00000  Uiso   1.00
O214   O     0.14632   0.59418   0.27013   0.00000  Uiso   1.00
O215   O     0.07412   0.46625   0.23413   0.00000  Uiso   1.00
O216   O     0.26693   0.52605   0.21360   0.00000  Uiso   1.00
O217   O     0.07071   0.52211   0.28213   0.00000  Uiso   1.00
O218   O     0.25491   0.48559   0.27013   0.00000  Uiso   1.00
O219   O     0.13760   0.40277   0.23413   0.00000  Uiso   1.00
O220   O     0.20345   0.58953   0.21360   0.00000  Uiso   1.00
Zn221  Zn    0.19338   0.47327   0.28734   0.00000  Uiso   1.00
Zn222  Zn    0.13379   0.45791   0.21875   0.00000  Uiso   1.00
Zn223  Zn    0.21056   0.53109   0.20657   0.00000  Uiso   1.00
Zn224  Zn    0.12893   0.53773   0.28733   0.00000  Uiso   1.00
C225   C     0.38610   0.49318   0.25996   0.00000  Uiso   1.00
C226   C     0.49923   0.48471   0.05879   0.00000  Uiso   1.00
C227   C     0.57164   0.47327   0.05624   0.00000  Uiso   1.00
C228   C     0.61421   0.50723   0.23992   0.00000  Uiso   1.00
C229   C     0.47002   0.52239   0.42061   0.00000  Uiso   1.00
C230   C     0.66016   0.50992   0.23560   0.00000  Uiso   1.00
C231   C     0.34077   0.49100   0.26411   0.00000  Uiso   1.00
C232   C     0.51400   0.65590   0.23626   0.00000  Uiso   1.00
C233   C     0.48546   0.34513   0.26400   0.00000  Uiso   1.00
C234   C     0.48963   0.38923   0.26015   0.00000  Uiso   1.00
C235   C     0.51001   0.61132   0.24010   0.00000  Uiso   1.00
C236   C     0.41210   0.51872   0.48908   0.00000  Uiso   1.00
C237   C     0.51917   0.48163   0.12920   0.00000  Uiso   1.00
C238   C     0.48171   0.51799   0.37100   0.00000  Uiso   1.00
C239   C     0.58505   0.48117   0.01114   0.00000  Uiso   1.00
C240   C     0.52908   0.47626   0.08040   0.00000  Uiso   1.00
C241   C     0.42638   0.52495   0.44328   0.00000  Uiso   1.00
C242   C     0.43969   0.50805   0.01190   0.00000  Uiso   1.00
C243   C     0.48372   0.50619   0.49059   0.00000  Uiso   1.00
C244   C     0.49982   0.51708   0.44513   0.00000  Uiso   1.00
C245   C     0.51229   0.49417   0.01321   0.00000  Uiso   1.00
C246   C     0.55623   0.49322   0.48998   0.00000  Uiso   1.00
C247   C     0.57206   0.50772   0.44727   0.00000  Uiso   1.00
C248   C     0.54517   0.52215   0.42591   0.00000  Uiso   1.00
H249   H     0.59512   0.46738   0.07308   0.00000  Uiso   1.00
H250   H     0.34938   0.52724   0.20910   0.00000  Uiso   1.00
H251   H     0.36863   0.53194   0.44047   0.00000  Uiso   1.00
H252   H     0.54609   0.56840   0.38468   0.00000  Uiso   1.00
H253   H     0.57559   0.52832   0.35961   0.00000  Uiso   1.00
H254   H     0.65216   0.47388   0.29111   0.00000  Uiso   1.00
H255   H     0.54039   0.33714   0.21068   0.00000  Uiso   1.00
H256   H     0.45877   0.66465   0.28974   0.00000  Uiso   1.00
H257   H     0.60634   0.51059   0.43146   0.00000  Uiso   1.00
H258   H     0.61864   0.48042   0.49357   0.00000  Uiso   1.00
H259   H     0.46722   0.48721   0.07960   0.00000  Uiso   1.00
H260   H     0.42516   0.50148   0.04637   0.00000  Uiso   1.00
H261   H     0.37868   0.52007   0.00687   0.00000  Uiso   1.00
N262   N     0.56584   0.54741   0.38888   0.00000  Uiso   1.00
O263   O     0.50000   0.50000   0.25000   0.00000  Uiso   1.00
O264   O     0.48784   0.45970   0.15458   0.00000  Uiso   1.00
O265   O     0.46274   0.53724   0.34968   0.00000  Uiso   1.00
O266   O     0.54157   0.51092   0.14606   0.00000  Uiso   1.00
O267   O     0.50785   0.49213   0.34968   0.00000  Uiso   1.00
O268   O     0.39771   0.53142   0.41968   0.00000  Uiso   1.00
O269   O     0.51264   0.41352   0.28213   0.00000  Uiso   1.00
O270   O     0.47965   0.59418   0.27013   0.00000  Uiso   1.00
O271   O     0.40745   0.46625   0.23413   0.00000  Uiso   1.00
O272   O     0.60026   0.52605   0.21360   0.00000  Uiso   1.00
O273   O     0.40405   0.52211   0.28213   0.00000  Uiso   1.00
O274   O     0.58824   0.48559   0.27013   0.00000  Uiso   1.00
O275   O     0.47093   0.40277   0.23413   0.00000  Uiso   1.00
O276   O     0.53678   0.58953   0.21360   0.00000  Uiso   1.00
Zn277  Zn    0.52672   0.47327   0.28734   0.00000  Uiso   1.00
Zn278  Zn    0.46713   0.45791   0.21875   0.00000  Uiso   1.00
Zn279  Zn    0.54389   0.53109   0.20657   0.00000  Uiso   1.00
Zn280  Zn    0.46226   0.53773   0.28733   0.00000  Uiso   1.00
C281   C     0.71944   0.49318   0.25996   0.00000  Uiso   1.00
C282   C     0.83256   0.48471   0.05879   0.00000  Uiso   1.00
C283   C     0.90498   0.47327   0.05624   0.00000  Uiso   1.00
C284   C     0.94755   0.50723   0.23992   0.00000  Uiso   1.00
C285   C     0.80335   0.52239   0.42061   0.00000  Uiso   1.00
C286   C     0.99349   0.50992   0.23560   0.00000  Uiso   1.00
C287   C     0.67410   0.49100   0.26411   0.00000  Uiso   1.00
C288   C     0.84734   0.65590   0.23626   0.00000  Uiso   1.00
C289   C     0.81880   0.34513   0.26400   0.00000  Uiso   1.00
C290   C     0.82296   0.38923   0.26015   0.00000  Uiso   1.00
C291   C     0.84334   0.61132   0.24010   0.00000  Uiso   1.00
C292   C     0.74544   0.51872   0.48908   0.00000  Uiso   1.00
C293   C     0.85250   0.48163   0.12920   0.00000  Uiso   1.00
C294   C     0.81505   0.51799   0.37100   0.00000  Uiso   1.00
C295   C     0.91839   0.48117   0.01114   0.00000  Uiso   1.00
C296   C     0.86241   0.47626   0.08040   0.00000  Uiso   1.00
C297   C     0.75971   0.52495   0.44328   0.00000  Uiso   1.00
C298   C     0.77302   0.50805   0.01190   0.00000  Uiso   1.00
C299   C     0.81705   0.50619   0.49059   0.00000  Uiso   1.00
C300   C     0.83315   0.51708   0.44513   0.00000  Uiso   1.00
C301   C     0.84562   0.49417   0.01321   0.00000  Uiso   1.00
C302   C     0.88957   0.49322   0.48998   0.00000  Uiso   1.00
C303   C     0.90539   0.50772   0.44727   0.00000  Uiso   1.00
C304   C     0.87851   0.52215   0.42591   0.00000  Uiso   1.00
H305   H     0.92845   0.46738   0.07308   0.00000  Uiso   1.00
H306   H     0.68271   0.52724   0.20910   0.00000  Uiso   1.00
H307   H     0.70197   0.53194   0.44047   0.00000  Uiso   1.00
H308   H     0.87943   0.56840   0.38468   0.00000  Uiso   1.00
H309   H     0.90892   0.52832   0.35961   0.00000  Uiso   1.00
H310   H     0.98550   0.47388   0.29111   0.00000  Uiso   1.00
H311   H     0.87372   0.33714   0.21068   0.00000  Uiso   1.00
H312   H     0.79211   0.66465   0.28974   0.00000  Uiso   1.00
H313   H     0.93967   0.51059   0.43146   0.00000  Uiso   1.00
H314   H     0.95198   0.48042   0.49357   0.00000  Uiso   1.00
H315   H     0.80055   0.48721   0.07960   0.00000  Uiso   1.00
H316   H     0.75850   0.50148   0.04637   0.00000  Uiso   1.00
H317   H     0.71201   0.52007   0.00687   0.00000  Uiso   1.00
N318   N     0.89917   0.54741   0.38888   0.00000  Uiso   1.00
O319   O     0.83333   0.50000   0.25000   0.00000  Uiso   1.00
O320   O     0.82118   0.45970   0.15458   0.00000  Uiso   1.00
O321   O     0.79607   0.53724   0.34968   0.00000  Uiso   1.00
O322   O     0.87491   0.51092   0.14606   0.00000  Uiso   1.00
O323   O     0.84118   0.49213   0.34968   0.00000  Uiso   1.00
O324   O     0.73104   0.53142   0.41968   0.00000  Uiso   1.00
O325   O     0.84597   0.41352   0.28213   0.00000  Uiso   1.00
O326   O     0.81298   0.59418   0.27013   0.00000  Uiso   1.00
O327   O     0.74078   0.46625   0.23413   0.00000  Uiso   1.00
O328   O     0.93360   0.52605   0.21360   0.00000  Uiso   1.00
O329   O     0.73738   0.52211   0.28213   0.00000  Uiso   1.00
O330   O     0.92158   0.48559   0.27013   0.00000  Uiso   1.00
O331   O     0.80426   0.40277   0.23413   0.00000  Uiso   1.00
O332   O     0.87012   0.58953   0.21360   0.00000  Uiso   1.00
Zn333  Zn    0.86005   0.47327   0.28734   0.00000  Uiso   1.00
Zn334  Zn    0.80046   0.45791   0.21875   0.00000  Uiso   1.00
Zn335  Zn    0.87723   0.53109   0.20657   0.00000  Uiso   1.00
Zn336  Zn    0.79560   0.53773   0.28733   0.00000  Uiso   1.00
C337   C     0.05277   0.82651   0.25996   0.00000  Uiso   1.00
C338   C     0.16590   0.81805   0.05879   0.00000  Uiso   1.00
C339   C     0.23831   0.80660   0.05624   0.00000  Uiso   1.00
C340   C     0.28088   0.84056   0.23992   0.00000  Uiso   1.00
C341   C     0.13669   0.85573   0.42061   0.00000  Uiso   1.00
C342   C     0.32682   0.84325   0.23560   0.00000  Uiso   1.00
C343   C     0.00743   0.82433   0.26411   0.00000  Uiso   1.00
C344   C     0.18067   0.98924   0.23626   0.00000  Uiso   1.00
C345   C     0.15213   0.67846   0.26400   0.00000  Uiso   1.00
C346   C     0.15630   0.72257   0.26015   0.00000  Uiso   1.00
C347   C     0.17668   0.94466   0.24010   0.00000  Uiso   1.00
C348   C     0.07877   0.85205   0.48908   0.00000  Uiso   1.00
C349   C     0.18583   0.81497   0.12920   0.00000  Uiso   1.00
C350   C     0.14838   0.85133   0.37100   0.00000  Uiso   1.00
C351   C     0.25172   0.81451   0.01114   0.00000  Uiso   1.00
C352   C     0.19575   0.80960   0.08040   0.00000  Uiso   1.00
C353   C     0.09305   0.85828   0.44328   0.00000  Uiso   1.00
C354   C     0.10636   0.84138   0.01190   0.00000  Uiso   1.00
C355   C     0.15039   0.83953   0.49059   0.00000  Uiso   1.00
C356   C     0.16649   0.85041   0.44513   0.00000  Uiso   1.00
C357   C     0.17895   0.82751   0.01321   0.00000  Uiso   1.00
C358   C     0.22290   0.82655   0.48998   0.00000  Uiso   1.00
C359   C     0.23872   0.84105   0.44727   0.00000  Uiso   1.00
C360   C     0.21184   0.85548   0.42591   0.00000  Uiso   1.00
H361   H     0.26178   0.80071   0.07308   0.00000  Uiso   1.00
H362   H     0.01604   0.86057   0.20910   0.00000  Uiso   1.00
H363   H     0.03530   0.86527   0.44047   0.00000  Uiso   1.00
H364   H     0.21276   0.90173   0.38468   0.00000  Uiso   1.00
H365   H     0.24225   0.86166   0.35961   0.00000  Uiso   1.00
H366   H     0.31883   0.80721   0.29111   0.00000  Uiso   1.00
H367   H     0.20705   0.67047   0.21068   0.00000  Uiso   1.00
H368   H     0.12544   0.99798   0.28974   0.00000  Uiso   1.00
H369   H     0.27300   0.84392   0.43146   0.00000  Uiso   1.00
H370   H     0.28531   0.81376   0.49357   0.00000  Uiso   1.00
H371   H     0.13388   0.82055   0.07960   0.00000  Uiso   1.00
H372   H     0.09183   0.83482   0.04637   0.00000  Uiso   1.00
H373   H     0.04535   0.85340   0.00687   0.00000  Uiso   1.00
N374   N     0.23251   0.88074   0.38888   0.00000  Uiso   1.00
O375   O     0.16667   0.83333   0.25000   0.00000  Uiso   1.00
O376   O     0.15451   0.79304   0.15458   0.00000  Uiso   1.00
O377   O     0.12940   0.87058   0.34968   0.00000  Uiso   1.00
O378   O     0.20824   0.84425   0.14606   0.00000  Uiso   1.00
O379   O     0.17451   0.82546   0.34968   0.00000  Uiso   1.00
O380   O     0.06437   0.86475   0.41968   0.00000  Uiso   1.00
O381   O     0.17930   0.74686   0.28213   0.00000  Uiso   1.00
O382   O     0.14632   0.92751   0.27013   0.00000  Uiso   1.00
O383   O     0.07412   0.79958   0.23413   0.00000  Uiso   1.00
O384   O     0.26693   0.85939   0.21360   0.00000  Uiso   1.00
O385   O     0.07071   0.85544   0.28213   0.00000  Uiso   1.00
O386   O     0.25491   0.81892   0.27013   0.00000  Uiso   1.00
O387   O     0.13760   0.73610   0.23413   0.00000  Uiso   1.00
O388   O     0.20345   0.92286   0.21360   0.00000  Uiso   1.00
Zn389  Zn    0.19338   0.80661   0.28734   0.00000  Uiso   1.00
Zn390  Zn    0.13379   0.79124   0.21875   0.00000  Uiso   1.00
Zn391  Zn    0.21056   0.86442   0.20657   0.00000  Uiso   1.00
Zn392  Zn    0.12893   0.87106   0.28733   0.00000  Uiso   1.00
C393   C     0.38610   0.82651   0.25996   0.00000  Uiso   1.00
C394   C     0.49923   0.81805   0.05879   0.00000  Uiso   1.00
C395   C     0.57164   0.80660   0.05624   0.00000  Uiso   1.00
C396   C     0.61421   0.84056   0.23992   0.00000  Uiso   1.00
C397   C     0.47002   0.85573   0.42061   0.00000  Uiso   1.00
C398   C     0.66016   0.84325   0.23560   0.00000  Uiso   1.00
C399   C     0.34077   0.82433   0.26411   0.00000  Uiso   1.00
C400   C     0.51400   0.98924   0.23626   0.00000  Uiso   1.00
C401   C     0.48546   0.67846   0.26400   0.00000  Uiso   1.00
C402   C     0.48963   0.72257   0.26015   0.00000  Uiso   1.00
C403   C     0.51001   0.94466   0.24010   0.00000  Uiso   1.00
C404   C     0.41210   0.85205   0.48908   0.00000  Uiso   1.00
C405   C     0.51917   0.81497   0.12920   0.00000  Uiso   1.00
C406   C     0.48171   0.85133   0.37100   0.00000  Uiso   1.00
C407   C     0.58505   0.81451   0.01114   0.00000  Uiso   1.00
C408   C     0.52908   0.80960   0.08040   0.00000  Uiso   1.00
C409   C     0.42638   0.85828   0.44328   0.00000  Uiso   1.00
C410   C     0.43969   0.84138   0.01190   0.00000  Uiso   1.00
C411   C     0.48372   0.83953   0.49059   0.00000  Uiso   1.00
C412   C     0.49982   0.85041   0.44513   0.00000  Uiso   1.00
C413   C     0.51229   0.82751   0.01321   0.00000  Uiso   1.00
C414   C     0.55623   0.82655   0.48998   0.00000  Uiso   1.00
C415   C     0.57206   0.84105   0.44727   0.00000  Uiso   1.00
C416   C     0.54517   0.85548   0.42591   0.00000  Uiso   1.00
H417   H     0.59512   0.80071   0.07308   0.00000  Uiso   1.00
H418   H     0.34938   0.86057   0.20910   0.00000  Uiso   1.00
H419   H     0.36863   0.86527   0.44047   0.00000  Uiso   1.00
H420   H     0.54609   0.90173   0.38468   0.00000  Uiso   1.00
H421   H     0.57559   0.86166   0.35961   0.00000  Uiso   1.00
H422   H     0.65216   0.80721   0.29111   0.00000  Uiso   1.00
H423   H     0.54039   0.67047   0.21068   0.00000  Uiso   1.00
H424   H     0.45877   0.99798   0.28974   0.00000  Uiso   1.00
H425   H     0.60634   0.84392   0.43146   0.00000  Uiso   1.00
H426   H     0.61864   0.81376   0.49357   0.00000  Uiso   1.00
H427   H     0.46722   0.82055   0.07960   0.00000  Uiso   1.00
H428   H     0.42516   0.83482   0.04637   0.00000  Uiso   1.00
H429   H     0.37868   0.85340   0.00687   0.00000  Uiso   1.00
N430   N     0.56584   0.88074   0.38888   0.00000  Uiso   1.00
O431   O     0.50000   0.83333   0.25000   0.00000  Uiso   1.00
O432   O     0.48784   0.79304   0.15458   0.00000  Uiso   1.00
O433   O     0.46274   0.87058   0.34968   0.00000  Uiso   1.00
O434   O     0.54157   0.84425   0.14606   0.00000  Uiso   1.00
O435   O     0.50785   0.82546   0.34968   0.00000  Uiso   1.00
O436   O     0.39771   0.86475   0.41968   0.00000  Uiso   1.00
O437   O     0.51264   0.74686   0.28213   0.00000  Uiso   1.00
O438   O     0.47965   0.92751   0.27013   0.00000  Uiso   1.00
O439   O     0.40745   0.79958   0.23413   0.00000  Uiso   1.00
O440   O     0.60026   0.85939   0.21360   0.00000  Uiso   1.00
O441   O     0.40405   0.85544   0.28213   0.00000  Uiso   1.00
O442   O     0.58824   0.81892   0.27013   0.00000  Uiso   1.00
O443   O     0.47093   0.73610   0.23413   0.00000  Uiso   1.00
O444   O     0.53678   0.92286   0.21360   0.00000  Uiso   1.00
Zn445  Zn    0.52672   0.80661   0.28734   0.00000  Uiso   1.00
Zn446  Zn    0.46713   0.79124   0.21875   0.00000  Uiso   1.00
Zn447  Zn    0.54389   0.86442   0.20657   0.00000  Uiso   1.00
Zn448  Zn    0.46226   0.87106   0.28733   0.00000  Uiso   1.00
C449   C     0.71944   0.82651   0.25996   0.00000  Uiso   1.00
C450   C     0.83256   0.81805   0.05879   0.00000  Uiso   1.00
C451   C     0.90498   0.80660   0.05624   0.00000  Uiso   1.00
C452   C     0.94755   0.84056   0.23992   0.00000  Uiso   1.00
C453   C     0.80335   0.85573   0.42061   0.00000  Uiso   1.00
C454   C     0.99349   0.84325   0.23560   0.00000  Uiso   1.00
C455   C     0.67410   0.82433   0.26411   0.00000  Uiso   1.00
C456   C     0.84734   0.98924   0.23626   0.00000  Uiso   1.00
C457   C     0.81880   0.67846   0.26400   0.00000  Uiso   1.00
C458   C     0.82296   0.72257   0.26015   0.00000  Uiso   1.00
C459   C     0.84334   0.94466   0.24010   0.00000  Uiso   1.00
C460   C     0.74544   0.85205   0.48908   0.00000  Uiso   1.00
C461   C     0.85250   0.81497   0.12920   0.00000  Uiso   1.00
C462   C     0.81505   0.85133   0.37100   0.00000  Uiso   1.00
C463   C     0.91839   0.81451   0.01114   0.00000  Uiso   1.00
C464   C     0.86241   0.80960   0.08040   0.00000  Uiso   1.00
C465   C     0.75971   0.85828   0.44328   0.00000  Uiso   1.00
C466   C     0.77302   0.84138   0.01190   0.00000  Uiso   1.00
C467   C     0.81705   0.83953   0.49059   0.00000  Uiso   1.00
C468   C     0.83315   0.85041   0.44513   0.00000  Uiso   1.00
C469   C     0.84562   0.82751   0.01321   0.00000  Uiso   1.00
C470   C     0.88957   0.82655   0.48998   0.00000  Uiso   1.00
C471   C     0.90539   0.84105   0.44727   0.00000  Uiso   1.00
C472   C     0.87851   0.85548   0.42591   0.00000  Uiso   1.00
H473   H     0.92845   0.80071   0.07308   0.00000  Uiso   1.00
H474   H     0.68271   0.86057   0.20910   0.00000  Uiso   1.00
H475   H     0.70197   0.86527   0.44047   0.00000  Uiso   1.00
H476   H     0.87943   0.90173   0.38468   0.00000  Uiso   1.00
H477   H     0.90892   0.86166   0.35961   0.00000  Uiso   1.00
H478   H     0.98550   0.80721   0.29111   0.00000  Uiso   1.00
H479   H     0.87372   0.67047   0.21068   0.00000  Uiso   1.00
H480   H     0.79211   0.99798   0.28974   0.00000  Uiso   1.00
H481   H     0.93967   0.84392   0.43146   0.00000  Uiso   1.00
H482   H     0.95198   0.81376   0.49357   0.00000  Uiso   1.00
H483   H     0.80055   0.82055   0.07960   0.00000  Uiso   1.00
H484   H     0.75850   0.83482   0.04637   0.00000  Uiso   1.00
H485   H     0.71201   0.85340   0.00687   0.00000  Uiso   1.00
N486   N     0.89917   0.88074   0.38888   0.00000  Uiso   1.00
O487   O     0.83333   0.83333   0.25000   0.00000  Uiso   1.00
O488   O     0.82118   0.79304   0.15458   0.00000  Uiso   1.00
O489   O     0.79607   0.87058   0.34968   0.00000  Uiso   1.00
O490   O     0.87491   0.84425   0.14606   0.00000  Uiso   1.00
O491   O     0.84118   0.82546   0.34968   0.00000  Uiso   1.00
O492   O     0.73104   0.86475   0.41968   0.00000  Uiso   1.00
O493   O     0.84597   0.74686   0.28213   0.00000  Uiso   1.00
O494   O     0.81298   0.92751   0.27013   0.00000  Uiso   1.00
O495   O     0.74078   0.79958   0.23413   0.00000  Uiso   1.00
O496   O     0.93360   0.85939   0.21360   0.00000  Uiso   1.00
O497   O     0.73738   0.85544   0.28213   0.00000  Uiso   1.00
O498   O     0.92158   0.81892   0.27013   0.00000  Uiso   1.00
O499   O     0.80426   0.73610   0.23413   0.00000  Uiso   1.00
O500   O     0.87012   0.92286   0.21360   0.00000  Uiso   1.00
Zn501  Zn    0.86005   0.80661   0.28734   0.00000  Uiso   1.00
Zn502  Zn    0.80046   0.79124   0.21875   0.00000  Uiso   1.00
Zn503  Zn    0.87723   0.86442   0.20657   0.00000  Uiso   1.00
Zn504  Zn    0.79560   0.87106   0.28733   0.00000  Uiso   1.00
C505   C     0.05277   0.15984   0.75996   0.00000  Uiso   1.00
C506   C     0.16590   0.15138   0.55879   0.00000  Uiso   1.00
C507   C     0.23831   0.13994   0.55624   0.00000  Uiso   1.00
C508   C     0.28088   0.17390   0.73992   0.00000  Uiso   1.00
C509   C     0.13669   0.18906   0.92061   0.00000  Uiso   1.00
C510   C     0.32682   0.17658   0.73560   0.00000  Uiso   1.00
C511   C     0.00743   0.15767   0.76411   0.00000  Uiso   1.00
C512   C     0.18067   0.32257   0.73626   0.00000  Uiso   1.00
C513   C     0.15213   0.01180   0.76400   0.00000  Uiso   1.00
C514   C     0.15630   0.05590   0.76015   0.00000  Uiso   1.00
C515   C     0.17668   0.27799   0.74010   0.00000  Uiso   1.00
C516   C     0.07877   0.18538   0.98908   0.00000  Uiso   1.00
C517   C     0.18583   0.14830   0.62920   0.00000  Uiso   1.00
C518   C     0.14838   0.18466   0.87100   0.00000  Uiso   1.00
C519   C     0.25172   0.14784   0.51114   0.00000  Uiso   1.00
C520   C     0.19575   0.14293   0.58040   0.00000  Uiso   1.00
C521   C     0.09305   0.19161   0.94328   0.00000  Uiso   1.00
C522   C     0.10636   0.17471   0.51190   0.00000  Uiso   1.00
C523   C     0.15039   0.17286   0.99059   0.00000  Uiso   1.00
C524   C     0.16649   0.18375   0.94513   0.00000  Uiso   1.00
C525   C     0.17895   0.16084   0.51321   0.00000  Uiso   1.00
C526   C     0.22290   0.15988   0.98998   0.00000  Uiso   1.00
C527   C     0.23872   0.17438   0.94727   0.00000  Uiso   1.00
C528   C     0.21184   0.18881   0.92591   0.00000  Uiso   1.00
H529   H     0.26178   0.13405   0.57308   0.00000  Uiso   1.00
H530   H     0.01604   0.19391   0.70910   0.00000  Uiso   1.00
H531   H     0.03530   0.19861   0.94047   0.00000  Uiso   1.00
H532   H     0.21276   0.23507   0.88468   0.00000  Uiso   1.00
H533   H     0.24225   0.19499   0.85961   0.00000  Uiso   1.00
H534   H     0.31883   0.14055   0.79111   0.00000  Uiso   1.00
H535   H     0.20705   0.00380   0.71068   0.00000  Uiso   1.00
H536   H     0.12544   0.33132   0.78974   0.00000  Uiso   1.00
H537   H     0.27300   0.17726   0.93146   0.00000  Uiso   1.00
H538   H     0.28531   0.14709   0.99357   0.00000  Uiso   1.00
H539   H     0.13388   0.15388   0.57960   0.00000  Uiso   1.00
H540   H     0.09183   0.16815   0.54637   0.00000  Uiso   1.00
H541   H     0.04535   0.18673   0.50687   0.00000  Uiso   1.00
N542   N     0.23251   0.21408   0.88888   0.00000  Uiso   1.00
O543   O     0.16667   0.16667   0.75000   0.00000  Uiso   1.00
O544   O     0.15451   0.12637   0.65458   0.00000  Uiso   1.00
O545   O     0.12940   0.20391   0.84968   0.00000  Uiso   1.00
O546   O     0.20824   0.17759   0.64606   0.00000  Uiso   1.00
O547   O     0.17451   0.15880   0.84968   0.00000  Uiso   1.00
O548   O     0.06437   0.19808   0.91968   0.00000  Uiso   1.00
O549   O     0.17930   0.08019   0.78213   0.00000  Uiso   1.00
O550   O     0.14632   0.26085   0.77013   0.00000  Uiso   1.00
O551   O     0.07412   0.13291   0.73413   0.00000  Uiso   1.00
O552   O     0.26693   0.19272   0.71360   0.00000  Uiso   1.00
O553   O     0.07071   0.18878   0.78213   0.00000  Uiso   1.00
O554   O     0.25491   0.15226   0.77013   0.00000  Uiso   1.00
O555   O     0.13760   0.06944   0.73413   0.00000  Uiso   1.00
O556   O     0.20345   0.25620   0.71360   0.00000  Uiso   1.00
Zn557  Zn    0.19338   0.13994   0.78734   0.00000  Uiso   1.00
Zn558  Zn    0.13379   0.12458   0.71875   0.00000  Uiso   1.00
Zn559  Zn    0.21056   0.19775   0.70657   0.00000  Uiso   1.00
Zn560  Zn    0.12893   0.20439   0.78733   0.00000  Uiso   1.00
C561   C     0.38610   0.15984   0.75996   0.00000  Uiso   1.00
C562   C     0.49923   0.15138   0.55879   0.00000  Uiso   1.00
C563   C     0.57164   0.13994   0.55624   0.00000  Uiso   1.00
C564   C     0.61421   0.17390   0.73992   0.00000  Uiso   1.00
C565   C     0.47002   0.18906   0.92061   0.00000  Uiso   1.00
C566   C     0.66016   0.17658   0.73560   0.00000  Uiso   1.00
C567   C     0.34077   0.15767   0.76411   0.00000  Uiso   1.00
C568   C     0.51400   0.32257   0.73626   0.00000  Uiso   1.00
C569   C     0.48546   0.01180   0.76400   0.00000  Uiso   1.00
C570   C     0.48963   0.05590   0.76015   0.00000  Uiso   1.00
C571   C     0.51001   0.27799   0.74010   0.00000  Uiso   1.00
C572   C     0.41210   0.18538   0.98908   0.00000  Uiso   1.00
C573   C     0.51917   0.14830   0.62920   0.00000  Uiso   1.00
C574   C     0.48171   0.18466   0.87100   0.00000  Uiso   1.00
C575   C     0.58505   0.14784   0.51114   0.00000  Uiso   1.00
C576   C     0.52908   0.14293   0.58040   0.00000  Uiso   1.00
C577   C     0.42638   0.19161   0.94328   0.00000  Uiso   1.00
C578   C     0.43969   0.17471   0.51190   0.00000  Uiso   1.00
C579   C     0.48372   0.17286   0.99059   0.00000  Uiso   1.00
C580   C     0.49982   0.18375   0.94513   0.00000  Uiso   1.00
C581   C     0.51229   0.16084   0.51321   0.00000  Uiso   1.00
C582   C     0.55623   0.15988   0.98998   0.00000  Uiso   1.00
C583   C     0.57206   0.17438   0.94727   0.00000  Uiso   1.00
C584   C     0.54517   0.18881   0.92591   0.00000  Uiso   1.00
H585   H     0.59512   0.13405   0.57308   0.00000  Uiso   1.00
H586   H     0.34938   0.19391   0.70910   0.00000  Uiso   1.00
H587   H     0.36863   0.19861   0.94047   0.00000  Uiso   1.00
H588   H     0.54609   0.23507   0.88468   0.00000  Uiso   1.00
H589   H     0.57559   0.19499   0.85961   0.00000  Uiso   1.00
H590   H     0.65216   0.14055   0.79111   0.00000  Uiso   1.00
H591   H     0.54039   0.00380   0.71068   0.00000  Uiso   1.00
H592   H     0.45877   0.33132   0.78974   0.00000  Uiso   1.00
H593   H     0.60634   0.17726   0.93146   0.00000  Uiso   1.00
H594   H     0.61864   0.14709   0.99357   0.00000  Uiso   1.00
H595   H     0.46722   0.15388   0.57960   0.00000  Uiso   1.00
H596   H     0.42516   0.16815   0.54637   0.00000  Uiso   1.00
H597   H     0.37868   0.18673   0.50687   0.00000  Uiso   1.00
N598   N     0.56584   0.21408   0.88888   0.00000  Uiso   1.00
O599   O     0.50000   0.16667   0.75000   0.00000  Uiso   1.00
O600   O     0.48784   0.12637   0.65458   0.00000  Uiso   1.00
O601   O     0.46274   0.20391   0.84968   0.00000  Uiso   1.00
O602   O     0.54157   0.17759   0.64606   0.00000  Uiso   1.00
O603   O     0.50785   0.15880   0.84968   0.00000  Uiso   1.00
O604   O     0.39771   0.19808   0.91968   0.00000  Uiso   1.00
O605   O     0.51264   0.08019   0.78213   0.00000  Uiso   1.00
O606   O     0.47965   0.26085   0.77013   0.00000  Uiso   1.00
O607   O     0.40745   0.13291   0.73413   0.00000  Uiso   1.00
O608   O     0.60026   0.19272   0.71360   0.00000  Uiso   1.00
O609   O     0.40405   0.18878   0.78213   0.00000  Uiso   1.00
O610   O     0.58824   0.15226   0.77013   0.00000  Uiso   1.00
O611   O     0.47093   0.06944   0.73413   0.00000  Uiso   1.00
O612   O     0.53678   0.25620   0.71360   0.00000  Uiso   1.00
Zn613  Zn    0.52672   0.13994   0.78734   0.00000  Uiso   1.00
Zn614  Zn    0.46713   0.12458   0.71875   0.00000  Uiso   1.00
Zn615  Zn    0.54389   0.19775   0.70657   0.00000  Uiso   1.00
Zn616  Zn    0.46226   0.20439   0.78733   0.00000  Uiso   1.00
C617   C     0.71944   0.15984   0.75996   0.00000  Uiso   1.00
C618   C     0.83256   0.15138   0.55879   0.00000  Uiso   1.00
C619   C     0.90498   0.13994   0.55624   0.00000  Uiso   1.00
C620   C     0.94755   0.17390   0.73992   0.00000  Uiso   1.00
C621   C     0.80335   0.18906   0.92061   0.00000  Uiso   1.00
C622   C     0.99349   0.17658   0.73560   0.00000  Uiso   1.00
C623   C     0.67410   0.15767   0.76411   0.00000  Uiso   1.00
C624   C     0.84734   0.32257   0.73626   0.00000  Uiso   1.00
C625   C     0.81880   0.01180   0.76400   0.00000  Uiso   1.00
C626   C     0.82296   0.05590   0.76015   0.00000  Uiso   1.00
C627   C     0.84334   0.27799   0.74010   0.00000  Uiso   1.00
C628   C     0.74544   0.18538   0.98908   0.00000  Uiso   1.00
C629   C     0.85250   0.14830   0.62920   0.00000  Uiso   1.00
C630   C     0.81505   0.18466   0.87100   0.00000  Uiso   1.00
C631   C     0.91839   0.14784   0.51114   0.00000  Uiso   1.00
C632   C     0.86241   0.14293   0.58040   0.00000  Uiso   1.00
C633   C     0.75971   0.19161   0.94328   0.00000  Uiso   1.00
C634   C     0.77302   0.17471   0.51190   0.00000  Uiso   1.00
C635   C     0.81705   0.17286   0.99059   0.00000  Uiso   1.00
C636   C     0.83315   0.18375   0.94513   0.00000  Uiso   1.00
C637   C     0.84562   0.16084   0.51321   0.00000  Uiso   1.00
C638   C     0.88957   0.15988   0.98998   0.00000  Uiso   1.00
C639   C     0.90539   0.17438   0.94727   0.00000  Uiso   1.00
C640   C     0.87851   0.18881   0.92591   0.00000  Uiso   1.00
H641   H     0.92845   0.13405   0.57308   0.00000  Uiso   1.00
H642   H     0.68271   0.19391   0.70910   0.00000  Uiso   1.00
H643   H     0.70197   0.19861   0.94047   0.00000  Uiso   1.00
H644   H     0.87943   0.23507   0.88468   0.00000  Uiso   1.00
H645   H     0.90892   0.19499   0.85961   0.00000  Uiso   1.00
H646   H     0.98550   0.14055   0.79111   0.00000  Uiso   1.00
H647   H     0.87372   0.00380   0.71068   0.00000  Uiso   1.00
H648   H     0.79211   0.33132   0.78974   0.00000  Uiso   1.00
H649   H     0.93967   0.17726   0.93146   0.00000  Uiso   1.00
H650   H     0.95198   0.14709   0.99357   0.00000  Uiso   1.00
H651   H     0.80055   0.15388   0.57960   0.00000  Uiso   1.00
H652   H     0.75850   0.16815   0.54637   0.00000  Uiso   1.00
H653   H     0.71201   0.18673   0.50687   0.00000  Uiso   1.00
N654   N     0.89917   0.21408   0.88888   0.00000  Uiso   1.00
O655   O     0.83333   0.16667   0.75000   0.00000  Uiso   1.00
O656   O     0.82118   0.12637   0.65458   0.00000  Uiso   1.00
O657   O     0.79607   0.20391   0.84968   0.00000  Uiso   1.00
O658   O     0.87491   0.17759   0.64606   0.00000  Uiso   1.00
O659   O     0.84118   0.15880   0.84968   0.00000  Uiso   1.00
O660   O     0.73104   0.19808   0.91968   0.00000  Uiso   1.00
O661   O     0.84597   0.08019   0.78213   0.00000  Uiso   1.00
O662   O     0.81298   0.26085   0.77013   0.00000  Uiso   1.00
O663   O     0.74078   0.13291   0.73413   0.00000  Uiso   1.00
O664   O     0.93360   0.19272   0.71360   0.00000  Uiso   1.00
O665   O     0.73738   0.18878   0.78213   0.00000  Uiso   1.00
O666   O     0.92158   0.15226   0.77013   0.00000  Uiso   1.00
O667   O     0.80426   0.06944   0.73413   0.00000  Uiso   1.00
O668   O     0.87012   0.25620   0.71360   0.00000  Uiso   1.00
Zn669  Zn    0.86005   0.13994   0.78734   0.00000  Uiso   1.00
Zn670  Zn    0.80046   0.12458   0.71875   0.00000  Uiso   1.00
Zn671  Zn    0.87723   0.19775   0.70657   0.00000  Uiso   1.00
Zn672  Zn    0.79560   0.20439   0.78733   0.00000  Uiso   1.00
C673   C     0.05277   0.49318   0.75996   0.00000  Uiso   1.00
C674   C     0.16590   0.48471   0.55879   0.00000  Uiso   1.00
C675   C     0.23831   0.47327   0.55624   0.00000  Uiso   1.00
C676   C     0.28088   0.50723   0.73992   0.00000  Uiso   1.00
C677   C     0.13669   0.52239   0.92061   0.00000  Uiso   1.00
C678   C     0.32682   0.50992   0.73560   0.00000  Uiso   1.00
C679   C     0.00743   0.49100   0.76411   0.00000  Uiso   1.00
C680   C     0.18067   0.65590   0.73626   0.00000  Uiso   1.00
C681   C     0.15213   0.34513   0.76400   0.00000  Uiso   1.00
C682   C     0.15630   0.38923   0.76015   0.00000  Uiso   1.00
C683   C     0.17668   0.61132   0.74010   0.00000  Uiso   1.00
C684   C     0.07877   0.51872   0.98908   0.00000  Uiso   1.00
C685   C     0.18583   0.48163   0.62920   0.00000  Uiso   1.00
C686   C     0.14838   0.51799   0.87100   0.00000  Uiso   1.00
C687   C     0.25172   0.48117   0.51114   0.00000  Uiso   1.00
C688   C     0.19575   0.47626   0.58040   0.00000  Uiso   1.00
C689   C     0.09305   0.52495   0.94328   0.00000  Uiso   1.00
C690   C     0.10636   0.50805   0.51190   0.00000  Uiso   1.00
C691   C     0.15039   0.50619   0.99059   0.00000  Uiso   1.00
C692   C     0.16649   0.51708   0.94513   0.00000  Uiso   1.00
C693   C     0.17895   0.49417   0.51321   0.00000  Uiso   1.00
C694   C     0.22290   0.49322   0.98998   0.00000  Uiso   1.00
C695   C     0.23872   0.50772   0.94727   0.00000  Uiso   1.00
C696   C     0.21184   0.52215   0.92591   0.00000  Uiso   1.00
H697   H     0.26178   0.46738   0.57308   0.00000  Uiso   1.00
H698   H     0.01604   0.52724   0.70910   0.00000  Uiso   1.00
H699   H     0.03530   0.53194   0.94047   0.00000  Uiso   1.00
H700   H     0.21276   0.56840   0.88468   0.00000  Uiso   1.00
H701   H     0.24225   0.52832   0.85961   0.00000  Uiso   1.00
H702   H     0.31883   0.47388   0.79111   0.00000  Uiso   1.00
H703   H     0.20705   0.33714   0.71068   0.00000  Uiso   1.00
H704   H     0.12544   0.66465   0.78974   0.00000  Uiso   1.00
H705   H     0.27300   0.51059   0.93146   0.00000  Uiso   1.00
H706   H     0.28531   0.48042   0.99357   0.00000  Uiso   1.00
H707   H     0.13388   0.48721   0.57960   0.00000  Uiso   1.00
H708   H     0.09183   0.50148   0.54637   0.00000  Uiso   1.00
H709   H     0.04535   0.52007   0.50687   0.00000  Uiso   1.00
N710   N     0.23251   0.54741   0.88888   0.00000  Uiso   1.00
O711   O     0.16667   0.50000   0.75000   0.00000  Uiso   1.00
O712   O     0.15451   0.45970   0.65458   0.00000  Uiso   1.00
O713   O     0.12940   0.53724   0.84968   0.00000  Uiso   1.00
O714   O     0.20824   0.51092   0.64606   0.00000  Uiso   1.00
O715   O     0.17451   0.49213   0.84968   0.00000  Uiso   1.00
O716   O     0.06437   0.53142   0.91968   0.00000  Uiso   1.00
O717   O     0.17930   0.41352   0.78213   0.00000  Uiso   1.00
O718   O     0.14632   0.59418   0.77013   0.00000  Uiso   1.00
O719   O     0.07412   0.46625   0.73413   0.00000  Uiso   1.00
O720   O     0.26693   0.52605   0.71360   0.00000  Uiso   1.00
O721   O     0.07071   0.52211   0.78213   0.00000  Uiso   1.00
O722   O     0.25491   0.48559   0.77013   0.00000  Uiso   1.00
O723   O     0.13760   0.40277   0.73413   0.00000  Uiso   1.00
O724   O     0.20345   0.58953   0.71360   0.00000  Uiso   1.00
Zn725  Zn    0.19338   0.47327   0.78734   0.00000  Uiso   1.00
Zn726  Zn    0.13379   0.45791   0.71875   0.00000  Uiso   1.00
Zn727  Zn    0.21056   0.53109   0.70657   0.00000  Uiso   1.00
Zn728  Zn    0.12893   0.53773   0.78733   0.00000  Uiso   1.00
C729   C     0.38610   0.49318   0.75996   0.00000  Uiso   1.00
C730   C     0.49923   0.48471   0.55879   0.00000  Uiso   1.00
C731   C     0.57164   0.47327   0.55624   0.00000  Uiso   1.00
C732   C     0.61421   0.50723   0.73992   0.00000  Uiso   1.00
C733   C     0.47002   0.52239   0.92061   0.00000  Uiso   1.00
C734   C     0.66016   0.50992   0.73560   0.00000  Uiso   1.00
C735   C     0.34077   0.49100   0.76411   0.00000  Uiso   1.00
C736   C     0.51400   0.65590   0.73626   0.00000  Uiso   1.00
C737   C     0.48546   0.34513   0.76400   0.00000  Uiso   1.00
C738   C     0.48963   0.38923   0.76015   0.00000  Uiso   1.00
C739   C     0.51001   0.61132   0.74010   0.00000  Uiso   1.00
C740   C     0.41210   0.51872   0.98908   0.00000  Uiso   1.00
C741   C     0.51917   0.48163   0.62920   0.00000  Uiso   1.00
C742   C     0.48171   0.51799   0.87100   0.00000  Uiso   1.00
C743   C     0.58505   0.48117   0.51114   0.00000  Uiso   1.00
C744   C     0.52908   0.47626   0.58040   0.00000  Uiso   1.00
C745   C     0.42638   0.52495   0.94328   0.00000  Uiso   1.00
C746   C     0.43969   0.50805   0.51190   0.00000  Uiso   1.00
C747   C     0.48372   0.50619   0.99059   0.00000  Uiso   1.00
C748   C     0.49982   0.51708   0.94513   0.00000  Uiso   1.00
C749   C     0.51229   0.49417   0.51321   0.00000  Uiso   1.00
C750   C     0.55623   0.49322   0.98998   0.00000  Uiso   1.00
C751   C     0.57206   0.50772   0.94727   0.00000  Uiso   1.00
C752   C     0.54517   0.52215   0.92591   0.00000  Uiso   1.00
H753   H     0.59512   0.46738   0.57308   0.00000  Uiso   1.00
H754   H     0.34938   0.52724   0.70910   0.00000  Uiso   1.00
H755   H     0.36863   0.53194   0.94047   0.00000  Uiso   1.00
H756   H     0.54609   0.56840   0.88468   0.00000  Uiso   1.00
H757   H     0.57559   0.52832   0.85961   0.00000  Uiso   1.00
H758   H     0.65216   0.47388   0.79111   0.00000  Uiso   1.00
H759   H     0.54039   0.33714   0.71068   0.00000  Uiso   1.00
H760   H     0.45877   0.66465   0.78974   0.00000  Uiso   1.00
H761   H     0.60634   0.51059   0.93146   0.00000  Uiso   1.00
H762   H     0.61864   0.48042   0.99357   0.00000  Uiso   1.00
H763   H     0.46722   0.48721   0.57960   0.00000  Uiso   1.00
H764   H     0.42516   0.50148   0.54637   0.00000  Uiso   1.00
H765   H     0.37868   0.52007   0.50687   0.00000  Uiso   1.00
N766   N     0.56584   0.54741   0.88888   0.00000  Uiso   1.00
O767   O     0.50000   0.50000   0.75000   0.00000  Uiso   1.00
O768   O     0.48784   0.45970   0.65458   0.00000  Uiso   1.00
O769   O     0.46274   0.53724   0.84968   0.00000  Uiso   1.00
O770   O     0.54157   0.51092   0.64606   0.00000  Uiso   1.00
O771   O     0.50785   0.49213   0.84968   0.00000  Uiso   1.00
O772   O     0.39771   0.53142   0.91968   0.00000  Uiso   1.00
O773   O     0.51264   0.41352   0.78213   0.00000  Uiso   1.00
O774   O     0.47965   0.59418   0.77013   0.00000  Uiso   1.00
O775   O     0.40745   0.46625   0.73413   0.00000  Uiso   1.00
O776   O     0.60026   0.52605   0.71360   0.00000  Uiso   1.00
O777   O     0.40405   0.52211   0.78213   0.00000  Uiso   1.00
O778   O     0.58824   0.48559   0.77013   0.00000  Uiso   1.00
O779   O     0.47093   0.40277   0.73413   0.00000  Uiso   1.00
O780   O     0.53678   0.58953   0.71360   0.00000  Uiso   1.00
Zn781  Zn    0.52672   0.47327   0.78734   0.00000  Uiso   1.00
Zn782  Zn    0.46713   0.45791   0.71875   0.00000  Uiso   1.00
Zn783  Zn    0.54389   0.53109   0.70657   0.00000  Uiso   1.00
Zn784  Zn    0.46226   0.53773   0.78733   0.00000  Uiso   1.00
C785   C     0.71944   0.49318   0.75996   0.00000  Uiso   1.00
C786   C     0.83256   0.48471   0.55879   0.00000  Uiso   1.00
C787   C     0.90498   0.47327   0.55624   0.00000  Uiso   1.00
C788   C     0.94755   0.50723   0.73992   0.00000  Uiso   1.00
C789   C     0.80335   0.52239   0.92061   0.00000  Uiso   1.00
C790   C     0.99349   0.50992   0.73560   0.00000  Uiso   1.00
C791   C     0.67410   0.49100   0.76411   0.00000  Uiso   1.00
C792   C     0.84734   0.65590   0.73626   0.00000  Uiso   1.00
C793   C     0.81880   0.34513   0.76400   0.00000  Uiso   1.00
C794   C     0.82296   0.38923   0.76015   0.00000  Uiso   1.00
C795   C     0.84334   0.61132   0.74010   0.00000  Uiso   1.00
C796   C     0.74544   0.51872   0.98908   0.00000  Uiso   1.00
C797   C     0.85250   0.48163   0.62920   0.00000  Uiso   1.00
C798   C     0.81505   0.51799   0.87100   0.00000  Uiso   1.00
C799   C     0.91839   0.48117   0.51114   0.00000  Uiso   1.00
C800   C     0.86241   0.47626   0.58040   0.00000  Uiso   1.00
C801   C     0.75971   0.52495   0.94328   0.00000  Uiso   1.00
C802   C     0.77302   0.50805   0.51190   0.00000  Uiso   1.00
C803   C     0.81705   0.50619   0.99059   0.00000  Uiso   1.00
C804   C     0.83315   0.51708   0.94513   0.00000  Uiso   1.00
C805   C     0.84562   0.49417   0.51321   0.00000  Uiso   1.00
C806   C     0.88957   0.49322   0.98998   0.00000  Uiso   1.00
C807   C     0.90539   0.50772   0.94727   0.00000  Uiso   1.00
C808   C     0.87851   0.52215   0.92591   0.00000  Uiso   1.00
H809   H     0.92845   0.46738   0.57308   0.00000  Uiso   1.00
H810   H     0.68271   0.52724   0.70910   0.00000  Uiso   1.00
H811   H     0.70197   0.53194   0.94047   0.00000  Uiso   1.00
H812   H     0.87943   0.56840   0.88468   0.00000  Uiso   1.00
H813   H     0.90892   0.52832   0.85961   0.00000  Uiso   1.00
H814   H     0.98550   0.47388   0.79111   0.00000  Uiso   1.00
H815   H     0.87372   0.33714   0.71068   0.00000  Uiso   1.00
H816   H     0.79211   0.66465   0.78974   0.00000  Uiso   1.00
H817   H     0.93967   0.51059   0.93146   0.00000  Uiso   1.00
H818   H     0.95198   0.48042   0.99357   0.00000  Uiso   1.00
H819   H     0.80055   0.48721   0.57960   0.00000  Uiso   1.00
H820   H     0.75850   0.50148   0.54637   0.00000  Uiso   1.00
H821   H     0.71201   0.52007   0.50687   0.00000  Uiso   1.00
N822   N     0.89917   0.54741   0.88888   0.00000  Uiso   1.00
O823   O     0.83333   0.50000   0.75000   0.00000  Uiso   1.00
O824   O     0.82118   0.45970   0.65458   0.00000  Uiso   1.00
O825   O     0.79607   0.53724   0.84968   0.00000  Uiso   1.00
O826   O     0.87491   0.51092   0.64606   0.00000  Uiso   1.00
O827   O     0.84118   0.49213   0.84968   0.00000  Uiso   1.00
O828   O     0.73104   0.53142   0.91968   0.00000  Uiso   1.00
O829   O     0.84597   0.41352   0.78213   0.00000  Uiso   1.00
O830   O     0.81298   0.59418   0.77013   0.00000  Uiso   1.00
O831   O     0.74078   0.46625   0.73413   0.00000  Uiso   1.00
O832   O     0.93360   0.52605   0.71360   0.00000  Uiso   1.00
O833   O     0.73738   0.52211   0.78213   0.00000  Uiso   1.00
O834   O     0.92158   0.48559   0.77013   0.00000  Uiso   1.00
O835   O     0.80426   0.40277   0.73413   0.00000  Uiso   1.00
O836   O     0.87012   0.58953   0.71360   0.00000  Uiso   1.00
Zn837  Zn    0.86005   0.47327   0.78734   0.00000  Uiso   1.00
Zn838  Zn    0.80046   0.45791   0.71875   0.00000  Uiso   1.00
Zn839  Zn    0.87723   0.53109   0.70657   0.00000  Uiso   1.00
Zn840  Zn    0.79560   0.53773   0.78733   0.00000  Uiso   1.00
C841   C     0.05277   0.82651   0.75996   0.00000  Uiso   1.00
C842   C     0.16590   0.81805   0.55879   0.00000  Uiso   1.00
C843   C     0.23831   0.80660   0.55624   0.00000  Uiso   1.00
C844   C     0.28088   0.84056   0.73992   0.00000  Uiso   1.00
C845   C     0.13669   0.85573   0.92061   0.00000  Uiso   1.00
C846   C     0.32682   0.84325   0.73560   0.00000  Uiso   1.00
C847   C     0.00743   0.82433   0.76411   0.00000  Uiso   1.00
C848   C     0.18067   0.98924   0.73626   0.00000  Uiso   1.00
C849   C     0.15213   0.67846   0.76400   0.00000  Uiso   1.00
C850   C     0.15630   0.72257   0.76015   0.00000  Uiso   1.00
C851   C     0.17668   0.94466   0.74010   0.00000  Uiso   1.00
C852   C     0.07877   0.85205   0.98908   0.00000  Uiso   1.00
C853   C     0.18583   0.81497   0.62920   0.00000  Uiso   1.00
C854   C     0.14838   0.85133   0.87100   0.00000  Uiso   1.00
C855   C     0.25172   0.81451   0.51114   0.00000  Uiso   1.00
C856   C     0.19575   0.80960   0.58040   0.00000  Uiso   1.00
C857   C     0.09305   0.85828   0.94328   0.00000  Uiso   1.00
C858   C     0.10636   0.84138   0.51190   0.00000  Uiso   1.00
C859   C     0.15039   0.83953   0.99059   0.00000  Uiso   1.00
C860   C     0.16649   0.85041   0.94513   0.00000  Uiso   1.00
C861   C     0.17895   0.82751   0.51321   0.00000  Uiso   1.00
C862   C     0.22290   0.82655   0.98998   0.00000  Uiso   1.00
C863   C     0.23872   0.84105   0.94727   0.00000  Uiso   1.00
C864   C     0.21184   0.85548   0.92591   0.00000  Uiso   1.00
H865   H     0.26178   0.80071   0.57308   0.00000  Uiso   1.00
H866   H     0.01604   0.86057   0.70910   0.00000  Uiso   1.00
H867   H     0.03530   0.86527   0.94047   0.00000  Uiso   1.00
H868   H     0.21276   0.90173   0.88468   0.00000  Uiso   1.00
H869   H     0.24225   0.86166   0.85961   0.00000  Uiso   1.00
H870   H     0.31883   0.80721   0.79111   0.00000  Uiso   1.00
H871   H     0.20705   0.67047   0.71068   0.00000  Uiso   1.00
H872   H     0.12544   0.99798   0.78974   0.00000  Uiso   1.00
H873   H     0.27300   0.84392   0.93146   0.00000  Uiso   1.00
H874   H     0.28531   0.81376   0.99357   0.00000  Uiso   1.00
H875   H     0.13388   0.82055   0.57960   0.00000  Uiso   1.00
H876   H     0.09183   0.83482   0.54637   0.00000  Uiso   1.00
H877   H     0.04535   0.85340   0.50687   0.00000  Uiso   1.00
N878   N     0.23251   0.88074   0.88888   0.00000  Uiso   1.00
O879   O     0.16667   0.83333   0.75000   0.00000  Uiso   1.00
O880   O     0.15451   0.79304   0.65458   0.00000  Uiso   1.00
O881   O     0.12940   0.87058   0.84968   0.00000  Uiso   1.00
O882   O     0.20824   0.84425   0.64606   0.00000  Uiso   1.00
O883   O     0.17451   0.82546   0.84968   0.00000  Uiso   1.00
O884   O     0.06437   0.86475   0.91968   0.00000  Uiso   1.00
O885   O     0.17930   0.74686   0.78213   0.00000  Uiso   1.00
O886   O     0.14632   0.92751   0.77013   0.00000  Uiso   1.00
O887   O     0.07412   0.79958   0.73413   0.00000  Uiso   1.00
O888   O     0.26693   0.85939   0.71360   0.00000  Uiso   1.00
O889   O     0.07071   0.85544   0.78213   0.00000  Uiso   1.00
O890   O     0.25491   0.81892   0.77013   0.00000  Uiso   1.00
O891   O     0.13760   0.73610   0.73413   0.00000  Uiso   1.00
O892   O     0.20345   0.92286   0.71360   0.00000  Uiso   1.00
Zn893  Zn    0.19338   0.80661   0.78734   0.00000  Uiso   1.00
Zn894  Zn    0.13379   0.79124   0.71875   0.00000  Uiso   1.00
Zn895  Zn    0.21056   0.86442   0.70657   0.00000  Uiso   1.00
Zn896  Zn    0.12893   0.87106   0.78733   0.00000  Uiso   1.00
C897   C     0.38610   0.82651   0.75996   0.00000  Uiso   1.00
C898   C     0.49923   0.81805   0.55879   0.00000  Uiso   1.00
C899   C     0.57164   0.80660   0.55624   0.00000  Uiso   1.00
C900   C     0.61421   0.84056   0.73992   0.00000  Uiso   1.00
C901   C     0.47002   0.85573   0.92061   0.00000  Uiso   1.00
C902   C     0.66016   0.84325   0.73560   0.00000  Uiso   1.00
C903   C     0.34077   0.82433   0.76411   0.00000  Uiso   1.00
C904   C     0.51400   0.98924   0.73626   0.00000  Uiso   1.00
C905   C     0.48546   0.67846   0.76400   0.00000  Uiso   1.00
C906   C     0.48963   0.72257   0.76015   0.00000  Uiso   1.00
C907   C     0.51001   0.94466   0.74010   0.00000  Uiso   1.00
C908   C     0.41210   0.85205   0.98908   0.00000  Uiso   1.00
C909   C     0.51917   0.81497   0.62920   0.00000  Uiso   1.00
C910   C     0.48171   0.85133   0.87100   0.00000  Uiso   1.00
C911   C     0.58505   0.81451   0.51114   0.00000  Uiso   1.00
C912   C     0.52908   0.80960   0.58040   0.00000  Uiso   1.00
C913   C     0.42638   0.85828   0.94328   0.00000  Uiso   1.00
C914   C     0.43969   0.84138   0.51190   0.00000  Uiso   1.00
C915   C     0.48372   0.83953   0.99059   0.00000  Uiso   1.00
C916   C     0.49982   0.85041   0.94513   0.00000  Uiso   1.00
C917   C     0.51229   0.82751   0.51321   0.00000  Uiso   1.00
C918   C     0.55623   0.82655   0.98998   0.00000  Uiso   1.00
C919   C     0.57206   0.84105   0.94727   0.00000  Uiso   1.00
C920   C     0.54517   0.85548   0.92591   0.00000  Uiso   1.00
H921   H     0.59512   0.80071   0.57308   0.00000  Uiso   1.00
H922   H     0.34938   0.86057   0.70910   0.00000  Uiso   1.00
H923   H     0.36863   0.86527   0.94047   0.00000  Uiso   1.00
H924   H     0.54609   0.90173   0.88468   0.00000  Uiso   1.00
H925   H     0.57559   0.86166   0.85961   0.00000  Uiso   1.00
H926   H     0.65216   0.80721   0.79111   0.00000  Uiso   1.00
H927   H     0.54039   0.67047   0.71068   0.00000  Uiso   1.00
H928   H     0.45877   0.99798   0.78974   0.00000  Uiso   1.00
H929   H     0.60634   0.84392   0.93146   0.00000  Uiso   1.00
H930   H     0.61864   0.81376   0.99357   0.00000  Uiso   1.00
H931   H     0.46722   0.82055   0.57960   0.00000  Uiso   1.00
H932   H     0.42516   0.83482   0.54637   0.00000  Uiso   1.00
H933   H     0.37868   0.85340   0.50687   0.00000  Uiso   1.00
N934   N     0.56584   0.88074   0.88888   0.00000  Uiso   1.00
O935   O     0.50000   0.83333   0.75000   0.00000  Uiso   1.00
O936   O     0.48784   0.79304   0.65458   0.00000  Uiso   1.00
O937   O     0.46274   0.87058   0.84968   0.00000  Uiso   1.00
O938   O     0.54157   0.84425   0.64606   0.00000  Uiso   1.00
O939   O     0.50785   0.82546   0.84968   0.00000  Uiso   1.00
O940   O     0.39771   0.86475   0.91968   0.00000  Uiso   1.00
O941   O     0.51264   0.74686   0.78213   0.00000  Uiso   1.00
O942   O     0.47965   0.92751   0.77013   0.00000  Uiso   1.00
O943   O     0.40745   0.79958   0.73413   0.00000  Uiso   1.00
O944   O     0.60026   0.85939   0.71360   0.00000  Uiso   1.00
O945   O     0.40405   0.85544   0.78213   0.00000  Uiso   1.00
O946   O     0.58824   0.81892   0.77013   0.00000  Uiso   1.00
O947   O     0.47093   0.73610   0.73413   0.00000  Uiso   1.00
O948   O     0.53678   0.92286   0.71360   0.00000  Uiso   1.00
Zn949  Zn    0.52672   0.80661   0.78734   0.00000  Uiso   1.00
Zn950  Zn    0.46713   0.79124   0.71875   0.00000  Uiso   1.00
Zn951  Zn    0.54389   0.86442   0.70657   0.00000  Uiso   1.00
Zn952  Zn    0.46226   0.87106   0.78733   0.00000  Uiso   1.00
C953   C     0.71944   0.82651   0.75996   0.00000  Uiso   1.00
C954   C     0.83256   0.81805   0.55879   0.00000  Uiso   1.00
C955   C     0.90498   0.80660   0.55624   0.00000  Uiso   1.00
C956   C     0.94755   0.84056   0.73992   0.00000  Uiso   1.00
C957   C     0.80335   0.85573   0.92061   0.00000  Uiso   1.00
C958   C     0.99349   0.84325   0.73560   0.00000  Uiso   1.00
C959   C     0.67410   0.82433   0.76411   0.00000  Uiso   1.00
C960   C     0.84734   0.98924   0.73626   0.00000  Uiso   1.00
C961   C     0.81880   0.67846   0.76400   0.00000  Uiso   1.00
C962   C     0.82296   0.72257   0.76015   0.00000  Uiso   1.00
C963   C     0.84334   0.94466   0.74010   0.00000  Uiso   1.00
C964   C     0.74544   0.85205   0.98908   0.00000  Uiso   1.00
C965   C     0.85250   0.81497   0.62920   0.00000  Uiso   1.00
C966   C     0.81505   0.85133   0.87100   0.00000  Uiso   1.00
C967   C     0.91839   0.81451   0.51114   0.00000  Uiso   1.00
C968   C     0.86241   0.80960   0.58040   0.00000  Uiso   1.00
C969   C     0.75971   0.85828   0.94328   0.00000  Uiso   1.00
C970   C     0.77302   0.84138   0.51190   0.00000  Uiso   1.00
C971   C     0.81705   0.83953   0.99059   0.00000  Uiso   1.00
C972   C     0.83315   0.85041   0.94513   0.00000  Uiso   1.00
C973   C     0.84562   0.82751   0.51321   0.00000  Uiso   1.00
C974   C     0.88957   0.82655   0.98998   0.00000  Uiso   1.00
C975   C     0.90539   0.84105   0.94727   0.00000  Uiso   1.00
C976   C     0.87851   0.85548   0.92591   0.00000  Uiso   1.00
H977   H     0.92845   0.80071   0.57308   0.00000  Uiso   1.00
H978   H     0.68271   0.86057   0.70910   0.00000  Uiso   1.00
H979   H     0.70197   0.86527   0.94047   0.00000  Uiso   1.00
H980   H     0.87943   0.90173   0.88468   0.00000  Uiso   1.00
H981   H     0.90892   0.86166   0.85961   0.00000  Uiso   1.00
H982   H     0.98550   0.80721   0.79111   0.00000  Uiso   1.00
H983   H     0.87372   0.67047   0.71068   0.00000  Uiso   1.00
H984   H     0.79211   0.99798   0.78974   0.00000  Uiso   1.00
H985   H     0.93967   0.84392   0.93146   0.00000  Uiso   1.00
H986   H     0.95198   0.81376   0.99357   0.00000  Uiso   1.00
H987   H     0.80055   0.82055   0.57960   0.00000  Uiso   1.00
H988   H     0.75850   0.83482   0.54637   0.00000  Uiso   1.00
H989   H     0.71201   0.85340   0.50687   0.00000  Uiso   1.00
N990   N     0.89917   0.88074   0.88888   0.00000  Uiso   1.00
O991   O     0.83333   0.83333   0.75000   0.00000  Uiso   1.00
O992   O     0.82118   0.79304   0.65458   0.00000  Uiso   1.00
O993   O     0.79607   0.87058   0.84968   0.00000  Uiso   1.00
O994   O     0.87491   0.84425   0.64606   0.00000  Uiso   1.00
O995   O     0.84118   0.82546   0.84968   0.00000  Uiso   1.00
O996   O     0.73104   0.86475   0.91968   0.00000  Uiso   1.00
O997   O     0.84597   0.74686   0.78213   0.00000  Uiso   1.00
O998   O     0.81298   0.92751   0.77013   0.00000  Uiso   1.00
O999   O     0.74078   0.79958   0.73413   0.00000  Uiso   1.00
O1000  O     0.93360   0.85939   0.71360   0.00000  Uiso   1.00
O1001  O     0.73738   0.85544   0.78213   0.00000  Uiso   1.00
O1002  O     0.92158   0.81892   0.77013   0.00000  Uiso   1.00
O1003  O     0.80426   0.73610   0.73413   0.00000  Uiso   1.00
O1004  O     0.87012   0.92286   0.71360   0.00000  Uiso   1.00
Zn1005 Zn    0.86005   0.80661   0.78734   0.00000  Uiso   1.00
Zn1006 Zn    0.80046   0.79124   0.71875   0.00000  Uiso   1.00
Zn1007 Zn    0.87723   0.86442   0.70657   0.00000  Uiso   1.00
Zn1008 Zn    0.79560   0.87106   0.78733   0.00000  Uiso   1.00
loop_
_geom_bond_atom_site_label_1
_geom_bond_atom_site_label_2
_geom_bond_distance
_geom_bond_site_symmetry_2
_ccdc_geom_bond_type
C1     O47     1.272   .     A
C1     C7      1.438   .     S
C1     O49     1.271   .     A
C2     H35     1.076   .     S
C2     C16     1.393   .     A
C2     C21     1.415   .     A
C3     H25     1.084   .     S
C3     C15     1.388   .     A
C3     C16     1.397   .     A
C4     C6      1.456   .     S
C4     O48     1.280   .     A
C4     O50     1.275   .     A
C5     C14     1.477   .     S
C5     C17     1.415   .     A
C5     C20     1.424   .     A
C6     C63     1.335   .     S
C6     H82     1.087   .     S
C7     C118    1.335   1_455 S
C7     H142    1.086   1_455 S
C8     C11     1.452   .     S
C8     C177    1.332   .     S
C8     H199    1.088   .     S
C9     C10     1.436   .     S
C9     C344    1.332   1_545 S
C9     H368    1.086   1_545 S
C10    O45     1.280   .     A
C10    O51     1.279   .     A
C11    O46     1.267   .     A
C11    O52     1.267   .     A
C12    C17     1.396   .     A
C12    C522    1.385   .     S
C12    H541    1.083   .     S
C13    O42     1.268   .     A
C13    C16     1.455   .     S
C13    O40     1.281   .     A
C14    O41     1.279   .     A
C14    O43     1.286   .     A
C15    C526    1.401   1_554 S
C15    H538    1.084   1_554 S
C17    O44     1.383   .     S
C18    H36     1.075   .     S
C18    C516    1.385   1_554 S
C18    C523    1.414   1_554 S
C19    C20     1.428   .     A
C19    C522    1.414   .     S
C19    C525    1.425   .     S
C20    C24     1.427   .     A
C21    C523    1.425   1_554 S
C21    C526    1.420   1_554 S
C22    C23     1.391   .     A
C22    C519    1.401   .     S
C22    C525    1.420   .     S
C23    C24     1.388   .     A
C23    H33     1.085   .     S
C24    N38     1.438   .     S
H26    C118    1.087   1_455 S
H27    O44     0.992   .     S
H28    N38     1.044   .     S
H29    N38     1.044   .     S
H30    C63     1.086   .     S
H31    C344    1.088   1_545 S
H32    C177    1.086   .     S
H34    C519    1.084   .     S
H37    C516    1.083   1_554 S
O39    Zn56    1.930   .     S
O39    Zn53    1.959   .     S
O39    Zn54    1.951   .     S
O39    Zn55    1.924   .     S
O40    Zn54    1.924   .     S
O41    Zn56    1.939   .     S
O42    Zn55    1.937   .     S
O43    Zn53    1.924   .     S
O45    Zn53    1.930   .     S
O46    Zn56    1.928   .     S
O47    Zn54    1.924   .     S
O48    Zn55    1.938   .     S
O49    Zn56    1.935   .     S
O50    Zn53    1.921   .     S
O51    Zn54    1.934   .     S
O52    Zn55    1.931   .     S
C57    O103    1.272   .     A
C57    C63     1.438   .     S
C57    O105    1.271   .     A
C58    H91     1.076   .     S
C58    C72     1.393   .     A
C58    C77     1.415   .     A
C59    H81     1.084   .     S
C59    C71     1.388   .     A
C59    C72     1.397   .     A
C60    C62     1.456   .     S
C60    O104    1.280   .     A
C60    O106    1.275   .     A
C61    C70     1.477   .     S
C61    C73     1.415   .     A
C61    C76     1.424   .     A
C62    C119    1.335   .     S
C62    H138    1.087   .     S
C64    C67     1.452   .     S
C64    C233    1.332   .     S
C64    H255    1.088   .     S
C65    C66     1.436   .     S
C65    C400    1.332   1_545 S
C65    H424    1.086   1_545 S
C66    O101    1.280   .     A
C66    O107    1.279   .     A
C67    O102    1.267   .     A
C67    O108    1.267   .     A
C68    C73     1.396   .     A
C68    C578    1.385   .     S
C68    H597    1.083   .     S
C69    O98     1.268   .     A
C69    C72     1.455   .     S
C69    O96     1.281   .     A
C70    O97     1.279   .     A
C70    O99     1.286   .     A
C71    C582    1.401   1_554 S
C71    H594    1.084   1_554 S
C73    O100    1.383   .     S
C74    H92     1.075   .     S
C74    C572    1.385   1_554 S
C74    C579    1.414   1_554 S
C75    C76     1.428   .     A
C75    C578    1.414   .     S
C75    C581    1.425   .     S
C76    C80     1.427   .     A
C77    C579    1.425   1_554 S
C77    C582    1.420   1_554 S
C78    C79     1.391   .     A
C78    C575    1.401   .     S
C78    C581    1.420   .     S
C79    C80     1.388   .     A
C79    H89     1.085   .     S
C80    N94     1.438   .     S
H83    O100    0.992   .     S
H84    N94     1.044   .     S
H85    N94     1.044   .     S
H86    C119    1.086   .     S
H87    C400    1.088   1_545 S
H88    C233    1.086   .     S
H90    C575    1.084   .     S
H93    C572    1.083   1_554 S
O95    Zn112   1.930   .     S
O95    Zn109   1.959   .     S
O95    Zn110   1.951   .     S
O95    Zn111   1.924   .     S
O96    Zn110   1.924   .     S
O97    Zn112   1.939   .     S
O98    Zn111   1.937   .     S
O99    Zn109   1.924   .     S
O101   Zn109   1.930   .     S
O102   Zn112   1.928   .     S
O103   Zn110   1.924   .     S
O104   Zn111   1.938   .     S
O105   Zn112   1.935   .     S
O106   Zn109   1.921   .     S
O107   Zn110   1.934   .     S
O108   Zn111   1.931   .     S
C113   O159    1.272   .     A
C113   C119    1.438   .     S
C113   O161    1.271   .     A
C114   H147    1.076   .     S
C114   C128    1.393   .     A
C114   C133    1.415   .     A
C115   H137    1.084   .     S
C115   C127    1.388   .     A
C115   C128    1.397   .     A
C116   C118    1.456   .     S
C116   O160    1.280   .     A
C116   O162    1.275   .     A
C117   C126    1.477   .     S
C117   C129    1.415   .     A
C117   C132    1.424   .     A
C118   C7      1.335   1_655 S
C118   H26     1.087   1_655 S
C120   C123    1.452   .     S
C120   C289    1.332   .     S
C120   H311    1.088   .     S
C121   C122    1.436   .     S
C121   C456    1.332   1_545 S
C121   H480    1.086   1_545 S
C122   O157    1.280   .     A
C122   O163    1.279   .     A
C123   O158    1.267   .     A
C123   O164    1.267   .     A
C124   C129    1.396   .     A
C124   C634    1.385   .     S
C124   H653    1.083   .     S
C125   O154    1.268   .     A
C125   C128    1.455   .     S
C125   O152    1.281   .     A
C126   O153    1.279   .     A
C126   O155    1.286   .     A
C127   C638    1.401   1_554 S
C127   H650    1.084   1_554 S
C129   O156    1.383   .     S
C130   H148    1.075   .     S
C130   C628    1.385   1_554 S
C130   C635    1.414   1_554 S
C131   C132    1.428   .     A
C131   C634    1.414   .     S
C131   C637    1.425   .     S
C132   C136    1.427   .     A
C133   C635    1.425   1_554 S
C133   C638    1.420   1_554 S
C134   C135    1.391   .     A
C134   C631    1.401   .     S
C134   C637    1.420   .     S
C135   C136    1.388   .     A
C135   H145    1.085   .     S
C136   N150    1.438   .     S
H139   O156    0.992   .     S
H140   N150    1.044   .     S
H141   N150    1.044   .     S
H142   C7      1.086   1_655 S
H143   C456    1.088   1_545 S
H144   C289    1.086   .     S
H146   C631    1.084   .     S
H149   C628    1.083   1_554 S
O151   Zn168   1.930   .     S
O151   Zn165   1.959   .     S
O151   Zn166   1.951   .     S
O151   Zn167   1.924   .     S
O152   Zn166   1.924   .     S
O153   Zn168   1.939   .     S
O154   Zn167   1.937   .     S
O155   Zn165   1.924   .     S
O157   Zn165   1.930   .     S
O158   Zn168   1.928   .     S
O159   Zn166   1.924   .     S
O160   Zn167   1.938   .     S
O161   Zn168   1.935   .     S
O162   Zn165   1.921   .     S
O163   Zn166   1.934   .     S
O164   Zn167   1.931   .     S
C169   O215    1.272   .     A
C169   C175    1.438   .     S
C169   O217    1.271   .     A
C170   H203    1.076   .     S
C170   C184    1.393   .     A
C170   C189    1.415   .     A
C171   H193    1.084   .     S
C171   C183    1.388   .     A
C171   C184    1.397   .     A
C172   C174    1.456   .     S
C172   O216    1.280   .     A
C172   O218    1.275   .     A
C173   C182    1.477   .     S
C173   C185    1.415   .     A
C173   C188    1.424   .     A
C174   C231    1.335   .     S
C174   H250    1.087   .     S
C175   C286    1.335   1_455 S
C175   H310    1.086   1_455 S
C176   C179    1.452   .     S
C176   C345    1.332   .     S
C176   H367    1.088   .     S
C177   C178    1.436   .     S
C178   O213    1.280   .     A
C178   O219    1.279   .     A
C179   O214    1.267   .     A
C179   O220    1.267   .     A
C180   C185    1.396   .     A
C180   C690    1.385   .     S
C180   H709    1.083   .     S
C181   O210    1.268   .     A
C181   C184    1.455   .     S
C181   O208    1.281   .     A
C182   O209    1.279   .     A
C182   O211    1.286   .     A
C183   C694    1.401   1_554 S
C183   H706    1.084   1_554 S
C185   O212    1.383   .     S
C186   H204    1.075   .     S
C186   C684    1.385   1_554 S
C186   C691    1.414   1_554 S
C187   C188    1.428   .     A
C187   C690    1.414   .     S
C187   C693    1.425   .     S
C188   C192    1.427   .     A
C189   C691    1.425   1_554 S
C189   C694    1.420   1_554 S
C190   C191    1.391   .     A
C190   C687    1.401   .     S
C190   C693    1.420   .     S
C191   C192    1.388   .     A
C191   H201    1.085   .     S
C192   N206    1.438   .     S
H194   C286    1.087   1_455 S
H195   O212    0.992   .     S
H196   N206    1.044   .     S
H197   N206    1.044   .     S
H198   C231    1.086   .     S
H200   C345    1.086   .     S
H202   C687    1.084   .     S
H205   C684    1.083   1_554 S
O207   Zn224   1.930   .     S
O207   Zn221   1.959   .     S
O207   Zn222   1.951   .     S
O207   Zn223   1.924   .     S
O208   Zn222   1.924   .     S
O209   Zn224   1.939   .     S
O210   Zn223   1.937   .     S
O211   Zn221   1.924   .     S
O213   Zn221   1.930   .     S
O214   Zn224   1.928   .     S
O215   Zn222   1.924   .     S
O216   Zn223   1.938   .     S
O217   Zn224   1.935   .     S
O218   Zn221   1.921   .     S
O219   Zn222   1.934   .     S
O220   Zn223   1.931   .     S
C225   O271    1.272   .     A
C225   C231    1.438   .     S
C225   O273    1.271   .     A
C226   H259    1.076   .     S
C226   C240    1.393   .     A
C226   C245    1.415   .     A
C227   H249    1.084   .     S
C227   C239    1.388   .     A
C227   C240    1.397   .     A
C228   C230    1.456   .     S
C228   O272    1.280   .     A
C228   O274    1.275   .     A
C229   C238    1.477   .     S
C229   C241    1.415   .     A
C229   C244    1.424   .     A
C230   C287    1.335   .     S
C230   H306    1.087   .     S
C232   C235    1.452   .     S
C232   C401    1.332   .     S
C232   H423    1.088   .     S
C233   C234    1.436   .     S
C234   O269    1.280   .     A
C234   O275    1.279   .     A
C235   O270    1.267   .     A
C235   O276    1.267   .     A
C236   C241    1.396   .     A
C236   C746    1.385   .     S
C236   H765    1.083   .     S
C237   O266    1.268   .     A
C237   C240    1.455   .     S
C237   O264    1.281   .     A
C238   O265    1.279   .     A
C238   O267    1.286   .     A
C239   C750    1.401   1_554 S
C239   H762    1.084   1_554 S
C241   O268    1.383   .     S
C242   H260    1.075   .     S
C242   C740    1.385   1_554 S
C242   C747    1.414   1_554 S
C243   C244    1.428   .     A
C243   C746    1.414   .     S
C243   C749    1.425   .     S
C244   C248    1.427   .     A
C245   C747    1.425   1_554 S
C245   C750    1.420   1_554 S
C246   C247    1.391   .     A
C246   C743    1.401   .     S
C246   C749    1.420   .     S
C247   C248    1.388   .     A
C247   H257    1.085   .     S
C248   N262    1.438   .     S
H251   O268    0.992   .     S
H252   N262    1.044   .     S
H253   N262    1.044   .     S
H254   C287    1.086   .     S
H256   C401    1.086   .     S
H258   C743    1.084   .     S
H261   C740    1.083   1_554 S
O263   Zn280   1.930   .     S
O263   Zn277   1.959   .     S
O263   Zn278   1.951   .     S
O263   Zn279   1.924   .     S
O264   Zn278   1.924   .     S
O265   Zn280   1.939   .     S
O266   Zn279   1.937   .     S
O267   Zn277   1.924   .     S
O269   Zn277   1.930   .     S
O270   Zn280   1.928   .     S
O271   Zn278   1.924   .     S
O272   Zn279   1.938   .     S
O273   Zn280   1.935   .     S
O274   Zn277   1.921   .     S
O275   Zn278   1.934   .     S
O276   Zn279   1.931   .     S
C281   O327    1.272   .     A
C281   C287    1.438   .     S
C281   O329    1.271   .     A
C282   H315    1.076   .     S
C282   C296    1.393   .     A
C282   C301    1.415   .     A
C283   H305    1.084   .     S
C283   C295    1.388   .     A
C283   C296    1.397   .     A
C284   C286    1.456   .     S
C284   O328    1.280   .     A
C284   O330    1.275   .     A
C285   C294    1.477   .     S
C285   C297    1.415   .     A
C285   C300    1.424   .     A
C286   C175    1.335   1_655 S
C286   H194    1.087   1_655 S
C288   C291    1.452   .     S
C288   C457    1.332   .     S
C288   H479    1.088   .     S
C289   C290    1.436   .     S
C290   O325    1.280   .     A
C290   O331    1.279   .     A
C291   O326    1.267   .     A
C291   O332    1.267   .     A
C292   C297    1.396   .     A
C292   C802    1.385   .     S
C292   H821    1.083   .     S
C293   O322    1.268   .     A
C293   C296    1.455   .     S
C293   O320    1.281   .     A
C294   O321    1.279   .     A
C294   O323    1.286   .     A
C295   C806    1.401   1_554 S
C295   H818    1.084   1_554 S
C297   O324    1.383   .     S
C298   H316    1.075   .     S
C298   C796    1.385   1_554 S
C298   C803    1.414   1_554 S
C299   C300    1.428   .     A
C299   C802    1.414   .     S
C299   C805    1.425   .     S
C300   C304    1.427   .     A
C301   C803    1.425   1_554 S
C301   C806    1.420   1_554 S
C302   C303    1.391   .     A
C302   C799    1.401   .     S
C302   C805    1.420   .     S
C303   C304    1.388   .     A
C303   H313    1.085   .     S
C304   N318    1.438   .     S
H307   O324    0.992   .     S
H308   N318    1.044   .     S
H309   N318    1.044   .     S
H310   C175    1.086   1_655 S
H312   C457    1.086   .     S
H314   C799    1.084   .     S
H317   C796    1.083   1_554 S
O319   Zn336   1.930   .     S
O319   Zn333   1.959   .     S
O319   Zn334   1.951   .     S
O319   Zn335   1.924   .     S
O320   Zn334   1.924   .     S
O321   Zn336   1.939   .     S
O322   Zn335   1.937   .     S
O323   Zn333   1.924   .     S
O325   Zn333   1.930   .     S
O326   Zn336   1.928   .     S
O327   Zn334   1.924   .     S
O328   Zn335   1.938   .     S
O329   Zn336   1.935   .     S
O330   Zn333   1.921   .     S
O331   Zn334   1.934   .     S
O332   Zn335   1.931   .     S
C337   O383    1.272   .     A
C337   C343    1.438   .     S
C337   O385    1.271   .     A
C338   H371    1.076   .     S
C338   C352    1.393   .     A
C338   C357    1.415   .     A
C339   H361    1.084   .     S
C339   C351    1.388   .     A
C339   C352    1.397   .     A
C340   C342    1.456   .     S
C340   O384    1.280   .     A
C340   O386    1.275   .     A
C341   C350    1.477   .     S
C341   C353    1.415   .     A
C341   C356    1.424   .     A
C342   C399    1.335   .     S
C342   H418    1.087   .     S
C343   C454    1.335   1_455 S
C343   H478    1.086   1_455 S
C344   C347    1.452   .     S
C344   C9      1.332   1_565 S
C344   H31     1.088   1_565 S
C345   C346    1.436   .     S
C346   O381    1.280   .     A
C346   O387    1.279   .     A
C347   O382    1.267   .     A
C347   O388    1.267   .     A
C348   C353    1.396   .     A
C348   C858    1.385   .     S
C348   H877    1.083   .     S
C349   O378    1.268   .     A
C349   C352    1.455   .     S
C349   O376    1.281   .     A
C350   O377    1.279   .     A
C350   O379    1.286   .     A
C351   C862    1.401   1_554 S
C351   H874    1.084   1_554 S
C353   O380    1.383   .     S
C354   H372    1.075   .     S
C354   C852    1.385   1_554 S
C354   C859    1.414   1_554 S
C355   C356    1.428   .     A
C355   C858    1.414   .     S
C355   C861    1.425   .     S
C356   C360    1.427   .     A
C357   C859    1.425   1_554 S
C357   C862    1.420   1_554 S
C358   C359    1.391   .     A
C358   C855    1.401   .     S
C358   C861    1.420   .     S
C359   C360    1.388   .     A
C359   H369    1.085   .     S
C360   N374    1.438   .     S
H362   C454    1.087   1_455 S
H363   O380    0.992   .     S
H364   N374    1.044   .     S
H365   N374    1.044   .     S
H366   C399    1.086   .     S
H368   C9      1.086   1_565 S
H370   C855    1.084   .     S
H373   C852    1.083   1_554 S
O375   Zn392   1.930   .     S
O375   Zn389   1.959   .     S
O375   Zn390   1.951   .     S
O375   Zn391   1.924   .     S
O376   Zn390   1.924   .     S
O377   Zn392   1.939   .     S
O378   Zn391   1.937   .     S
O379   Zn389   1.924   .     S
O381   Zn389   1.930   .     S
O382   Zn392   1.928   .     S
O383   Zn390   1.924   .     S
O384   Zn391   1.938   .     S
O385   Zn392   1.935   .     S
O386   Zn389   1.921   .     S
O387   Zn390   1.934   .     S
O388   Zn391   1.931   .     S
C393   O439    1.272   .     A
C393   C399    1.438   .     S
C393   O441    1.271   .     A
C394   H427    1.076   .     S
C394   C408    1.393   .     A
C394   C413    1.415   .     A
C395   H417    1.084   .     S
C395   C407    1.388   .     A
C395   C408    1.397   .     A
C396   C398    1.456   .     S
C396   O440    1.280   .     A
C396   O442    1.275   .     A
C397   C406    1.477   .     S
C397   C409    1.415   .     A
C397   C412    1.424   .     A
C398   C455    1.335   .     S
C398   H474    1.087   .     S
C400   C403    1.452   .     S
C400   C65     1.332   1_565 S
C400   H87     1.088   1_565 S
C401   C402    1.436   .     S
C402   O437    1.280   .     A
C402   O443    1.279   .     A
C403   O438    1.267   .     A
C403   O444    1.267   .     A
C404   C409    1.396   .     A
C404   C914    1.385   .     S
C404   H933    1.083   .     S
C405   O434    1.268   .     A
C405   C408    1.455   .     S
C405   O432    1.281   .     A
C406   O433    1.279   .     A
C406   O435    1.286   .     A
C407   C918    1.401   1_554 S
C407   H930    1.084   1_554 S
C409   O436    1.383   .     S
C410   H428    1.075   .     S
C410   C908    1.385   1_554 S
C410   C915    1.414   1_554 S
C411   C412    1.428   .     A
C411   C914    1.414   .     S
C411   C917    1.425   .     S
C412   C416    1.427   .     A
C413   C915    1.425   1_554 S
C413   C918    1.420   1_554 S
C414   C415    1.391   .     A
C414   C911    1.401   .     S
C414   C917    1.420   .     S
C415   C416    1.388   .     A
C415   H425    1.085   .     S
C416   N430    1.438   .     S
H419   O436    0.992   .     S
H420   N430    1.044   .     S
H421   N430    1.044   .     S
H422   C455    1.086   .     S
H424   C65     1.086   1_565 S
H426   C911    1.084   .     S
H429   C908    1.083   1_554 S
O431   Zn448   1.930   .     S
O431   Zn445   1.959   .     S
O431   Zn446   1.951   .     S
O431   Zn447   1.924   .     S
O432   Zn446   1.924   .     S
O433   Zn448   1.939   .     S
O434   Zn447   1.937   .     S
O435   Zn445   1.924   .     S
O437   Zn445   1.930   .     S
O438   Zn448   1.928   .     S
O439   Zn446   1.924   .     S
O440   Zn447   1.938   .     S
O441   Zn448   1.935   .     S
O442   Zn445   1.921   .     S
O443   Zn446   1.934   .     S
O444   Zn447   1.931   .     S
C449   O495    1.272   .     A
C449   C455    1.438   .     S
C449   O497    1.271   .     A
C450   H483    1.076   .     S
C450   C464    1.393   .     A
C450   C469    1.415   .     A
C451   H473    1.084   .     S
C451   C463    1.388   .     A
C451   C464    1.397   .     A
C452   C454    1.456   .     S
C452   O496    1.280   .     A
C452   O498    1.275   .     A
C453   C462    1.477   .     S
C453   C465    1.415   .     A
C453   C468    1.424   .     A
C454   C343    1.335   1_655 S
C454   H362    1.087   1_655 S
C456   C459    1.452   .     S
C456   C121    1.332   1_565 S
C456   H143    1.088   1_565 S
C457   C458    1.436   .     S
C458   O493    1.280   .     A
C458   O499    1.279   .     A
C459   O494    1.267   .     A
C459   O500    1.267   .     A
C460   C465    1.396   .     A
C460   C970    1.385   .     S
C460   H989    1.083   .     S
C461   O490    1.268   .     A
C461   C464    1.455   .     S
C461   O488    1.281   .     A
C462   O489    1.279   .     A
C462   O491    1.286   .     A
C463   C974    1.401   1_554 S
C463   H986    1.084   1_554 S
C465   O492    1.383   .     S
C466   H484    1.075   .     S
C466   C964    1.385   1_554 S
C466   C971    1.414   1_554 S
C467   C468    1.428   .     A
C467   C970    1.414   .     S
C467   C973    1.425   .     S
C468   C472    1.427   .     A
C469   C971    1.425   1_554 S
C469   C974    1.420   1_554 S
C470   C471    1.391   .     A
C470   C967    1.401   .     S
C470   C973    1.420   .     S
C471   C472    1.388   .     A
C471   H481    1.085   .     S
C472   N486    1.438   .     S
H475   O492    0.992   .     S
H476   N486    1.044   .     S
H477   N486    1.044   .     S
H478   C343    1.086   1_655 S
H480   C121    1.086   1_565 S
H482   C967    1.084   .     S
H485   C964    1.083   1_554 S
O487   Zn504   1.930   .     S
O487   Zn501   1.959   .     S
O487   Zn502   1.951   .     S
O487   Zn503   1.924   .     S
O488   Zn502   1.924   .     S
O489   Zn504   1.939   .     S
O490   Zn503   1.937   .     S
O491   Zn501   1.924   .     S
O493   Zn501   1.930   .     S
O494   Zn504   1.928   .     S
O495   Zn502   1.924   .     S
O496   Zn503   1.938   .     S
O497   Zn504   1.935   .     S
O498   Zn501   1.921   .     S
O499   Zn502   1.934   .     S
O500   Zn503   1.931   .     S
C505   O551    1.272   .     A
C505   C511    1.438   .     S
C505   O553    1.271   .     A
C506   H539    1.076   .     S
C506   C520    1.393   .     A
C506   C525    1.415   .     A
C507   H529    1.084   .     S
C507   C519    1.388   .     A
C507   C520    1.397   .     A
C508   C510    1.456   .     S
C508   O552    1.280   .     A
C508   O554    1.275   .     A
C509   C518    1.477   .     S
C509   C521    1.415   .     A
C509   C524    1.424   .     A
C510   C567    1.335   .     S
C510   H586    1.087   .     S
C511   C622    1.335   1_455 S
C511   H646    1.086   1_455 S
C512   C515    1.452   .     S
C512   C681    1.332   .     S
C512   H703    1.088   .     S
C513   C514    1.436   .     S
C513   C848    1.332   1_545 S
C513   H872    1.086   1_545 S
C514   O549    1.280   .     A
C514   O555    1.279   .     A
C515   O550    1.267   .     A
C515   O556    1.267   .     A
C516   C521    1.396   .     A
C516   C18     1.385   1_556 S
C516   H37     1.083   1_556 S
C517   O546    1.268   .     A
C517   C520    1.455   .     S
C517   O544    1.281   .     A
C518   O545    1.279   .     A
C518   O547    1.286   .     A
C521   O548    1.383   .     S
C522   H540    1.075   .     S
C523   C524    1.428   .     A
C523   C18     1.414   1_556 S
C523   C21     1.425   1_556 S
C524   C528    1.427   .     A
C526   C527    1.391   .     A
C526   C15     1.401   1_556 S
C526   C21     1.420   1_556 S
C527   C528    1.388   .     A
C527   H537    1.085   .     S
C528   N542    1.438   .     S
H530   C622    1.087   1_455 S
H531   O548    0.992   .     S
H532   N542    1.044   .     S
H533   N542    1.044   .     S
H534   C567    1.086   .     S
H535   C848    1.088   1_545 S
H536   C681    1.086   .     S
H538   C15     1.084   1_556 S
O543   Zn560   1.930   .     S
O543   Zn557   1.959   .     S
O543   Zn558   1.951   .     S
O543   Zn559   1.924   .     S
O544   Zn558   1.924   .     S
O545   Zn560   1.939   .     S
O546   Zn559   1.937   .     S
O547   Zn557   1.924   .     S
O549   Zn557   1.930   .     S
O550   Zn560   1.928   .     S
O551   Zn558   1.924   .     S
O552   Zn559   1.938   .     S
O553   Zn560   1.935   .     S
O554   Zn557   1.921   .     S
O555   Zn558   1.934   .     S
O556   Zn559   1.931   .     S
C561   O607    1.272   .     A
C561   C567    1.438   .     S
C561   O609    1.271   .     A
C562   H595    1.076   .     S
C562   C576    1.393   .     A
C562   C581    1.415   .     A
C563   H585    1.084   .     S
C563   C575    1.388   .     A
C563   C576    1.397   .     A
C564   C566    1.456   .     S
C564   O608    1.280   .     A
C564   O610    1.275   .     A
C565   C574    1.477   .     S
C565   C577    1.415   .     A
C565   C580    1.424   .     A
C566   C623    1.335   .     S
C566   H642    1.087   .     S
C568   C571    1.452   .     S
C568   C737    1.332   .     S
C568   H759    1.088   .     S
C569   C570    1.436   .     S
C569   C904    1.332   1_545 S
C569   H928    1.086   1_545 S
C570   O605    1.280   .     A
C570   O611    1.279   .     A
C571   O606    1.267   .     A
C571   O612    1.267   .     A
C572   C577    1.396   .     A
C572   C74     1.385   1_556 S
C572   H93     1.083   1_556 S
C573   O602    1.268   .     A
C573   C576    1.455   .     S
C573   O600    1.281   .     A
C574   O601    1.279   .     A
C574   O603    1.286   .     A
C577   O604    1.383   .     S
C578   H596    1.075   .     S
C579   C580    1.428   .     A
C579   C74     1.414   1_556 S
C579   C77     1.425   1_556 S
C580   C584    1.427   .     A
C582   C583    1.391   .     A
C582   C71     1.401   1_556 S
C582   C77     1.420   1_556 S
C583   C584    1.388   .     A
C583   H593    1.085   .     S
C584   N598    1.438   .     S
H587   O604    0.992   .     S
H588   N598    1.044   .     S
H589   N598    1.044   .     S
H590   C623    1.086   .     S
H591   C904    1.088   1_545 S
H592   C737    1.086   .     S
H594   C71     1.084   1_556 S
O599   Zn616   1.930   .     S
O599   Zn613   1.959   .     S
O599   Zn614   1.951   .     S
O599   Zn615   1.924   .     S
O600   Zn614   1.924   .     S
O601   Zn616   1.939   .     S
O602   Zn615   1.937   .     S
O603   Zn613   1.924   .     S
O605   Zn613   1.930   .     S
O606   Zn616   1.928   .     S
O607   Zn614   1.924   .     S
O608   Zn615   1.938   .     S
O609   Zn616   1.935   .     S
O610   Zn613   1.921   .     S
O611   Zn614   1.934   .     S
O612   Zn615   1.931   .     S
C617   O663    1.272   .     A
C617   C623    1.438   .     S
C617   O665    1.271   .     A
C618   H651    1.076   .     S
C618   C632    1.393   .     A
C618   C637    1.415   .     A
C619   H641    1.084   .     S
C619   C631    1.388   .     A
C619   C632    1.397   .     A
C620   C622    1.456   .     S
C620   O664    1.280   .     A
C620   O666    1.275   .     A
C621   C630    1.477   .     S
C621   C633    1.415   .     A
C621   C636    1.424   .     A
C622   C511    1.335   1_655 S
C622   H530    1.087   1_655 S
C624   C627    1.452   .     S
C624   C793    1.332   .     S
C624   H815    1.088   .     S
C625   C626    1.436   .     S
C625   C960    1.332   1_545 S
C625   H984    1.086   1_545 S
C626   O661    1.280   .     A
C626   O667    1.279   .     A
C627   O662    1.267   .     A
C627   O668    1.267   .     A
C628   C633    1.396   .     A
C628   C130    1.385   1_556 S
C628   H149    1.083   1_556 S
C629   O658    1.268   .     A
C629   C632    1.455   .     S
C629   O656    1.281   .     A
C630   O657    1.279   .     A
C630   O659    1.286   .     A
C633   O660    1.383   .     S
C634   H652    1.075   .     S
C635   C636    1.428   .     A
C635   C130    1.414   1_556 S
C635   C133    1.425   1_556 S
C636   C640    1.427   .     A
C638   C639    1.391   .     A
C638   C127    1.401   1_556 S
C638   C133    1.420   1_556 S
C639   C640    1.388   .     A
C639   H649    1.085   .     S
C640   N654    1.438   .     S
H643   O660    0.992   .     S
H644   N654    1.044   .     S
H645   N654    1.044   .     S
H646   C511    1.086   1_655 S
H647   C960    1.088   1_545 S
H648   C793    1.086   .     S
H650   C127    1.084   1_556 S
O655   Zn672   1.930   .     S
O655   Zn669   1.959   .     S
O655   Zn670   1.951   .     S
O655   Zn671   1.924   .     S
O656   Zn670   1.924   .     S
O657   Zn672   1.939   .     S
O658   Zn671   1.937   .     S
O659   Zn669   1.924   .     S
O661   Zn669   1.930   .     S
O662   Zn672   1.928   .     S
O663   Zn670   1.924   .     S
O664   Zn671   1.938   .     S
O665   Zn672   1.935   .     S
O666   Zn669   1.921   .     S
O667   Zn670   1.934   .     S
O668   Zn671   1.931   .     S
C673   O719    1.272   .     A
C673   C679    1.438   .     S
C673   O721    1.271   .     A
C674   H707    1.076   .     S
C674   C688    1.393   .     A
C674   C693    1.415   .     A
C675   H697    1.084   .     S
C675   C687    1.388   .     A
C675   C688    1.397   .     A
C676   C678    1.456   .     S
C676   O720    1.280   .     A
C676   O722    1.275   .     A
C677   C686    1.477   .     S
C677   C689    1.415   .     A
C677   C692    1.424   .     A
C678   C735    1.335   .     S
C678   H754    1.087   .     S
C679   C790    1.335   1_455 S
C679   H814    1.086   1_455 S
C680   C683    1.452   .     S
C680   C849    1.332   .     S
C680   H871    1.088   .     S
C681   C682    1.436   .     S
C682   O717    1.280   .     A
C682   O723    1.279   .     A
C683   O718    1.267   .     A
C683   O724    1.267   .     A
C684   C689    1.396   .     A
C684   C186    1.385   1_556 S
C684   H205    1.083   1_556 S
C685   O714    1.268   .     A
C685   C688    1.455   .     S
C685   O712    1.281   .     A
C686   O713    1.279   .     A
C686   O715    1.286   .     A
C689   O716    1.383   .     S
C690   H708    1.075   .     S
C691   C692    1.428   .     A
C691   C186    1.414   1_556 S
C691   C189    1.425   1_556 S
C692   C696    1.427   .     A
C694   C695    1.391   .     A
C694   C183    1.401   1_556 S
C694   C189    1.420   1_556 S
C695   C696    1.388   .     A
C695   H705    1.085   .     S
C696   N710    1.438   .     S
H698   C790    1.087   1_455 S
H699   O716    0.992   .     S
H700   N710    1.044   .     S
H701   N710    1.044   .     S
H702   C735    1.086   .     S
H704   C849    1.086   .     S
H706   C183    1.084   1_556 S
O711   Zn728   1.930   .     S
O711   Zn725   1.959   .     S
O711   Zn726   1.951   .     S
O711   Zn727   1.924   .     S
O712   Zn726   1.924   .     S
O713   Zn728   1.939   .     S
O714   Zn727   1.937   .     S
O715   Zn725   1.924   .     S
O717   Zn725   1.930   .     S
O718   Zn728   1.928   .     S
O719   Zn726   1.924   .     S
O720   Zn727   1.938   .     S
O721   Zn728   1.935   .     S
O722   Zn725   1.921   .     S
O723   Zn726   1.934   .     S
O724   Zn727   1.931   .     S
C729   O775    1.272   .     A
C729   C735    1.438   .     S
C729   O777    1.271   .     A
C730   H763    1.076   .     S
C730   C744    1.393   .     A
C730   C749    1.415   .     A
C731   H753    1.084   .     S
C731   C743    1.388   .     A
C731   C744    1.397   .     A
C732   C734    1.456   .     S
C732   O776    1.280   .     A
C732   O778    1.275   .     A
C733   C742    1.477   .     S
C733   C745    1.415   .     A
C733   C748    1.424   .     A
C734   C791    1.335   .     S
C734   H810    1.087   .     S
C736   C739    1.452   .     S
C736   C905    1.332   .     S
C736   H927    1.088   .     S
C737   C738    1.436   .     S
C738   O773    1.280   .     A
C738   O779    1.279   .     A
C739   O774    1.267   .     A
C739   O780    1.267   .     A
C740   C745    1.396   .     A
C740   C242    1.385   1_556 S
C740   H261    1.083   1_556 S
C741   O770    1.268   .     A
C741   C744    1.455   .     S
C741   O768    1.281   .     A
C742   O769    1.279   .     A
C742   O771    1.286   .     A
C745   O772    1.383   .     S
C746   H764    1.075   .     S
C747   C748    1.428   .     A
C747   C242    1.414   1_556 S
C747   C245    1.425   1_556 S
C748   C752    1.427   .     A
C750   C751    1.391   .     A
C750   C239    1.401   1_556 S
C750   C245    1.420   1_556 S
C751   C752    1.388   .     A
C751   H761    1.085   .     S
C752   N766    1.438   .     S
H755   O772    0.992   .     S
H756   N766    1.044   .     S
H757   N766    1.044   .     S
H758   C791    1.086   .     S
H760   C905    1.086   .     S
H762   C239    1.084   1_556 S
O767   Zn784   1.930   .     S
O767   Zn781   1.959   .     S
O767   Zn782   1.951   .     S
O767   Zn783   1.924   .     S
O768   Zn782   1.924   .     S
O769   Zn784   1.939   .     S
O770   Zn783   1.937   .     S
O771   Zn781   1.924   .     S
O773   Zn781   1.930   .     S
O774   Zn784   1.928   .     S
O775   Zn782   1.924   .     S
O776   Zn783   1.938   .     S
O777   Zn784   1.935   .     S
O778   Zn781   1.921   .     S
O779   Zn782   1.934   .     S
O780   Zn783   1.931   .     S
C785   O831    1.272   .     A
C785   C791    1.438   .     S
C785   O833    1.271   .     A
C786   H819    1.076   .     S
C786   C800    1.393   .     A
C786   C805    1.415   .     A
C787   H809    1.084   .     S
C787   C799    1.388   .     A
C787   C800    1.397   .     A
C788   C790    1.456   .     S
C788   O832    1.280   .     A
C788   O834    1.275   .     A
C789   C798    1.477   .     S
C789   C801    1.415   .     A
C789   C804    1.424   .     A
C790   C679    1.335   1_655 S
C790   H698    1.087   1_655 S
C792   C795    1.452   .     S
C792   C961    1.332   .     S
C792   H983    1.088   .     S
C793   C794    1.436   .     S
C794   O829    1.280   .     A
C794   O835    1.279   .     A
C795   O830    1.267   .     A
C795   O836    1.267   .     A
C796   C801    1.396   .     A
C796   C298    1.385   1_556 S
C796   H317    1.083   1_556 S
C797   O826    1.268   .     A
C797   C800    1.455   .     S
C797   O824    1.281   .     A
C798   O825    1.279   .     A
C798   O827    1.286   .     A
C801   O828    1.383   .     S
C802   H820    1.075   .     S
C803   C804    1.428   .     A
C803   C298    1.414   1_556 S
C803   C301    1.425   1_556 S
C804   C808    1.427   .     A
C806   C807    1.391   .     A
C806   C295    1.401   1_556 S
C806   C301    1.420   1_556 S
C807   C808    1.388   .     A
C807   H817    1.085   .     S
C808   N822    1.438   .     S
H811   O828    0.992   .     S
H812   N822    1.044   .     S
H813   N822    1.044   .     S
H814   C679    1.086   1_655 S
H816   C961    1.086   .     S
H818   C295    1.084   1_556 S
O823   Zn840   1.930   .     S
O823   Zn837   1.959   .     S
O823   Zn838   1.951   .     S
O823   Zn839   1.924   .     S
O824   Zn838   1.924   .     S
O825   Zn840   1.939   .     S
O826   Zn839   1.937   .     S
O827   Zn837   1.924   .     S
O829   Zn837   1.930   .     S
O830   Zn840   1.928   .     S
O831   Zn838   1.924   .     S
O832   Zn839   1.938   .     S
O833   Zn840   1.935   .     S
O834   Zn837   1.921   .     S
O835   Zn838   1.934   .     S
O836   Zn839   1.931   .     S
C841   O887    1.272   .     A
C841   C847    1.438   .     S
C841   O889    1.271   .     A
C842   H875    1.076   .     S
C842   C856    1.393   .     A
C842   C861    1.415   .     A
C843   H865    1.084   .     S
C843   C855    1.388   .     A
C843   C856    1.397   .     A
C844   C846    1.456   .     S
C844   O888    1.280   .     A
C844   O890    1.275   .     A
C845   C854    1.477   .     S
C845   C857    1.415   .     A
C845   C860    1.424   .     A
C846   C903    1.335   .     S
C846   H922    1.087   .     S
C847   C958    1.335   1_455 S
C847   H982    1.086   1_455 S
C848   C851    1.452   .     S
C848   C513    1.332   1_565 S
C848   H535    1.088   1_565 S
C849   C850    1.436   .     S
C850   O885    1.280   .     A
C850   O891    1.279   .     A
C851   O886    1.267   .     A
C851   O892    1.267   .     A
C852   C857    1.396   .     A
C852   C354    1.385   1_556 S
C852   H373    1.083   1_556 S
C853   O882    1.268   .     A
C853   C856    1.455   .     S
C853   O880    1.281   .     A
C854   O881    1.279   .     A
C854   O883    1.286   .     A
C857   O884    1.383   .     S
C858   H876    1.075   .     S
C859   C860    1.428   .     A
C859   C354    1.414   1_556 S
C859   C357    1.425   1_556 S
C860   C864    1.427   .     A
C862   C863    1.391   .     A
C862   C351    1.401   1_556 S
C862   C357    1.420   1_556 S
C863   C864    1.388   .     A
C863   H873    1.085   .     S
C864   N878    1.438   .     S
H866   C958    1.087   1_455 S
H867   O884    0.992   .     S
H868   N878    1.044   .     S
H869   N878    1.044   .     S
H870   C903    1.086   .     S
H872   C513    1.086   1_565 S
H874   C351    1.084   1_556 S
O879   Zn896   1.930   .     S
O879   Zn893   1.959   .     S
O879   Zn894   1.951   .     S
O879   Zn895   1.924   .     S
O880   Zn894   1.924   .     S
O881   Zn896   1.939   .     S
O882   Zn895   1.937   .     S
O883   Zn893   1.924   .     S
O885   Zn893   1.930   .     S
O886   Zn896   1.928   .     S
O887   Zn894   1.924   .     S
O888   Zn895   1.938   .     S
O889   Zn896   1.935   .     S
O890   Zn893   1.921   .     S
O891   Zn894   1.934   .     S
O892   Zn895   1.931   .     S
C897   O943    1.272   .     A
C897   C903    1.438   .     S
C897   O945    1.271   .     A
C898   H931    1.076   .     S
C898   C912    1.393   .     A
C898   C917    1.415   .     A
C899   H921    1.084   .     S
C899   C911    1.388   .     A
C899   C912    1.397   .     A
C900   C902    1.456   .     S
C900   O944    1.280   .     A
C900   O946    1.275   .     A
C901   C910    1.477   .     S
C901   C913    1.415   .     A
C901   C916    1.424   .     A
C902   C959    1.335   .     S
C902   H978    1.087   .     S
C904   C907    1.452   .     S
C904   C569    1.332   1_565 S
C904   H591    1.088   1_565 S
C905   C906    1.436   .     S
C906   O941    1.280   .     A
C906   O947    1.279   .     A
C907   O942    1.267   .     A
C907   O948    1.267   .     A
C908   C913    1.396   .     A
C908   C410    1.385   1_556 S
C908   H429    1.083   1_556 S
C909   O938    1.268   .     A
C909   C912    1.455   .     S
C909   O936    1.281   .     A
C910   O937    1.279   .     A
C910   O939    1.286   .     A
C913   O940    1.383   .     S
C914   H932    1.075   .     S
C915   C916    1.428   .     A
C915   C410    1.414   1_556 S
C915   C413    1.425   1_556 S
C916   C920    1.427   .     A
C918   C919    1.391   .     A
C918   C407    1.401   1_556 S
C918   C413    1.420   1_556 S
C919   C920    1.388   .     A
C919   H929    1.085   .     S
C920   N934    1.438   .     S
H923   O940    0.992   .     S
H924   N934    1.044   .     S
H925   N934    1.044   .     S
H926   C959    1.086   .     S
H928   C569    1.086   1_565 S
H930   C407    1.084   1_556 S
O935   Zn952   1.930   .     S
O935   Zn949   1.959   .     S
O935   Zn950   1.951   .     S
O935   Zn951   1.924   .     S
O936   Zn950   1.924   .     S
O937   Zn952   1.939   .     S
O938   Zn951   1.937   .     S
O939   Zn949   1.924   .     S
O941   Zn949   1.930   .     S
O942   Zn952   1.928   .     S
O943   Zn950   1.924   .     S
O944   Zn951   1.938   .     S
O945   Zn952   1.935   .     S
O946   Zn949   1.921   .     S
O947   Zn950   1.934   .     S
O948   Zn951   1.931   .     S
C953   O999    1.272   .     A
C953   C959    1.438   .     S
C953   O1001   1.271   .     A
C954   H987    1.076   .     S
C954   C968    1.393   .     A
C954   C973    1.415   .     A
C955   H977    1.084   .     S
C955   C967    1.388   .     A
C955   C968    1.397   .     A
C956   C958    1.456   .     S
C956   O1000   1.280   .     A
C956   O1002   1.275   .     A
C957   C966    1.477   .     S
C957   C969    1.415   .     A
C957   C972    1.424   .     A
C958   C847    1.335   1_655 S
C958   H866    1.087   1_655 S
C960   C963    1.452   .     S
C960   C625    1.332   1_565 S
C960   H647    1.088   1_565 S
C961   C962    1.436   .     S
C962   O997    1.280   .     A
C962   O1003   1.279   .     A
C963   O998    1.267   .     A
C963   O1004   1.267   .     A
C964   C969    1.396   .     A
C964   C466    1.385   1_556 S
C964   H485    1.083   1_556 S
C965   O994    1.268   .     A
C965   C968    1.455   .     S
C965   O992    1.281   .     A
C966   O993    1.279   .     A
C966   O995    1.286   .     A
C969   O996    1.383   .     S
C970   H988    1.075   .     S
C971   C972    1.428   .     A
C971   C466    1.414   1_556 S
C971   C469    1.425   1_556 S
C972   C976    1.427   .     A
C974   C975    1.391   .     A
C974   C463    1.401   1_556 S
C974   C469    1.420   1_556 S
C975   C976    1.388   .     A
C975   H985    1.085   .     S
C976   N990    1.438   .     S
H979   O996    0.992   .     S
H980   N990    1.044   .     S
H981   N990    1.044   .     S
H982   C847    1.086   1_655 S
H984   C625    1.086   1_565 S
H986   C463    1.084   1_556 S
O991   Zn1008  1.930   .     S
O991   Zn1005  1.959   .     S
O991   Zn1006  1.951   .     S
O991   Zn1007  1.924   .     S
O992   Zn1006  1.924   .     S
O993   Zn1008  1.939   .     S
O994   Zn1007  1.937   .     S
O995   Zn1005  1.924   .     S
O997   Zn1005  1.930   .     S
O998   Zn1008  1.928   .     S
O999   Zn1006  1.924   .     S
O1000  Zn1007  1.938   .     S
O1001  Zn1008  1.935   .     S
O1002  Zn1005  1.921   .     S
O1003  Zn1006  1.934   .     S
O1004  Zn1007  1.931   .     S
