data_str_m2_o1_o18_pcu_sym.10
_audit_creation_date              2020-01-03
_audit_creation_method            'Materials Studio'
_symmetry_space_group_name_H-M    'P1'
_symmetry_Int_Tables_number       1
_symmetry_cell_setting            triclinic
loop_
_symmetry_equiv_pos_as_xyz
  x,y,z
_cell_length_a                    28.6495
_cell_length_b                    32.5558
_cell_length_c                    30.6342
_cell_angle_alpha                 88.7426
_cell_angle_beta                  74.0340
_cell_angle_gamma                 88.6584
loop_
_atom_site_label
_atom_site_type_symbol
_atom_site_fract_x
_atom_site_fract_y
_atom_site_fract_z
_atom_site_U_iso_or_equiv
_atom_site_adp_type
_atom_site_occupancy
O1     O     0.03958   0.10655   0.25000   0.00000  Uiso   1.00
O2     O     0.29375   0.22678   0.25000   0.00000  Uiso   1.00
O3     O     0.29372   0.10654   0.25001   0.00000  Uiso   1.00
O4     O     0.03961   0.22679   0.25000   0.00000  Uiso   1.00
C5     C     0.00052   0.08738   0.25024   0.00000  Uiso   1.00
C6     C     0.33297   0.24594   0.24917   0.00000  Uiso   1.00
O7     O     0.01852   0.16668   0.31492   0.00000  Uiso   1.00
O8     O     0.31481   0.16666   0.18509   0.00000  Uiso   1.00
O9     O     0.27267   0.16667   0.31492   0.00000  Uiso   1.00
O10    O     0.06067   0.16667   0.18508   0.00000  Uiso   1.00
C11    C     0.30588   0.16858   0.33618   0.00000  Uiso   1.00
C12    C     0.02754   0.16545   0.16343   0.00000  Uiso   1.00
Cu13   Cu    0.04689   0.16667   0.25000   0.00000  Uiso   1.00
Cu14   Cu    0.28645   0.16666   0.25000   0.00000  Uiso   1.00
C15    C     0.28979   0.17986   0.38427   0.00000  Uiso   1.00
C16    C     0.04290   0.16103   0.11321   0.00000  Uiso   1.00
C17    C     0.28799   0.22871   0.44377   0.00000  Uiso   1.00
C18    C     0.03080   0.13092   0.04476   0.00000  Uiso   1.00
C19    C     0.31048   0.21317   0.40011   0.00000  Uiso   1.00
C20    C     0.01229   0.14225   0.09077   0.00000  Uiso   1.00
C21    C     0.24757   0.16237   0.41175   0.00000  Uiso   1.00
C22    C     0.08986   0.17251   0.08806   0.00000  Uiso   1.00
C23    C     0.21800   0.18504   0.44861   0.00000  Uiso   1.00
C24    C     0.10333   0.17109   0.03987   0.00000  Uiso   1.00
C25    C     0.23958   0.21764   0.46590   0.00000  Uiso   1.00
C26    C     0.07585   0.14658   0.01863   0.00000  Uiso   1.00
C27    C     0.16816   0.17592   0.46905   0.00000  Uiso   1.00
C28    C     0.14561   0.19089   0.01283   0.00000  Uiso   1.00
C29    C     0.16505   0.22642   0.02711   0.00000  Uiso   1.00
C30    C     0.13909   0.15402   0.44683   0.00000  Uiso   1.00
C31    C     0.21158   0.23951   0.00383   0.00000  Uiso   1.00
C32    C     0.09392   0.13890   0.47157   0.00000  Uiso   1.00
C33    C     0.29024   0.02262   0.26437   0.00000  Uiso   1.00
C34    C     0.04332   0.31070   0.23436   0.00000  Uiso   1.00
H35    H     0.25638   0.03981   0.27612   0.00000  Uiso   1.00
H36    H     0.07717   0.29346   0.22279   0.00000  Uiso   1.00
C37    C     0.28842   0.31364   0.26253   0.00000  Uiso   1.00
C38    C     0.04514   0.01970   0.23629   0.00000  Uiso   1.00
C39    C     0.33217   0.29062   0.24803   0.00000  Uiso   1.00
C40    C     0.00138   0.04271   0.25077   0.00000  Uiso   1.00
C41    C     0.18393   0.14107   0.27855   0.00000  Uiso   1.00
C42    C     0.14886   0.19227   0.22184   0.00000  Uiso   1.00
H43    H     0.19692   0.12072   0.30123   0.00000  Uiso   1.00
H44    H     0.13584   0.21282   0.19933   0.00000  Uiso   1.00
C45    C     0.13393   0.14105   0.27888   0.00000  Uiso   1.00
C46    C     0.19800   0.19276   0.22160   0.00000  Uiso   1.00
N47    N     0.11736   0.16668   0.24999   0.00000  Uiso   1.00
N48    N     0.21597   0.16666   0.25001   0.00000  Uiso   1.00
O49    O     0.22925   0.27409   0.01892   0.00000  Uiso   1.00
C50    C     0.21680   0.30884   0.49583   0.00000  Uiso   1.00
H51    H     0.17673   0.31328   0.00374   0.00000  Uiso   1.00
H52    H     0.23291   0.30679   0.45846   0.00000  Uiso   1.00
H53    H     0.23164   0.00316   0.00736   0.00000  Uiso   1.00
O54    O     0.06970   0.11363   0.44969   0.00000  Uiso   1.00
C55    C     0.04006   0.13817   0.42940   0.00000  Uiso   1.00
H56    H     0.01937   0.11767   0.41337   0.00000  Uiso   1.00
H57    H     0.06203   0.15856   0.40224   0.00000  Uiso   1.00
H58    H     0.01331   0.15667   0.45513   0.00000  Uiso   1.00
O59    O     0.12275   0.18315   0.11132   0.00000  Uiso   1.00
H60    H     0.15559   0.17390   0.09366   0.00000  Uiso   1.00
O61    O     0.23717   0.12296   0.40201   0.00000  Uiso   1.00
H62    H     0.21844   0.10960   0.43065   0.00000  Uiso   1.00
O63    O     0.29937   0.13086   0.11509   0.00000  Uiso   1.00
C64    C     0.26557   0.15843   0.10378   0.00000  Uiso   1.00
H65    H     0.27363   0.19095   0.10907   0.00000  Uiso   1.00
H66    H     0.22894   0.15181   0.12633   0.00000  Uiso   1.00
H67    H     0.26425   0.15450   0.06817   0.00000  Uiso   1.00
O68    O     0.01993   0.22954   0.37327   0.00000  Uiso   1.00
C69    C     0.00982   0.26880   0.35722   0.00000  Uiso   1.00
H70    H     0.31143   0.26859   0.34285   0.00000  Uiso   1.00
H71    H     0.04186   0.27859   0.32973   0.00000  Uiso   1.00
H72    H     0.00349   0.29196   0.38440   0.00000  Uiso   1.00
O73    O     0.31194   0.25531   0.46441   0.00000  Uiso   1.00
H74    H     0.01386   0.25396   0.44896   0.00000  Uiso   1.00
O75    O     0.00529   0.10491   0.02497   0.00000  Uiso   1.00
H76    H     0.31266   0.09135   0.04868   0.00000  Uiso   1.00
O77    O     0.13824   0.25132   0.06128   0.00000  Uiso   1.00
H78    H     0.10341   0.24877   0.06285   0.00000  Uiso   1.00
O79    O     0.15143   0.14970   0.40030   0.00000  Uiso   1.00
H80    H     0.16980   0.17423   0.38611   0.00000  Uiso   1.00
O81    O     0.24369   0.29575   0.27672   0.00000  Uiso   1.00
H82    H     0.23847   0.28261   0.24962   0.00000  Uiso   1.00
O83    O     0.08991   0.03758   0.22254   0.00000  Uiso   1.00
H84    H     0.09483   0.05066   0.24980   0.00000  Uiso   1.00
O85    O     0.10143   0.11558   0.30806   0.00000  Uiso   1.00
H86    H     0.11873   0.09943   0.32681   0.00000  Uiso   1.00
O87    O     0.22578   0.22082   0.19201   0.00000  Uiso   1.00
H88    H     0.25948   0.21811   0.19269   0.00000  Uiso   1.00
O89    O     0.37291   0.10655   0.25000   0.00000  Uiso   1.00
O90    O     0.62709   0.22678   0.25000   0.00000  Uiso   1.00
O91    O     0.62706   0.10654   0.25001   0.00000  Uiso   1.00
O92    O     0.37294   0.22679   0.25000   0.00000  Uiso   1.00
C93    C     0.33386   0.08738   0.25024   0.00000  Uiso   1.00
C94    C     0.66630   0.24594   0.24917   0.00000  Uiso   1.00
O95    O     0.35186   0.16668   0.31492   0.00000  Uiso   1.00
O96    O     0.64814   0.16666   0.18509   0.00000  Uiso   1.00
O97    O     0.60600   0.16667   0.31492   0.00000  Uiso   1.00
O98    O     0.39400   0.16667   0.18508   0.00000  Uiso   1.00
C99    C     0.63922   0.16858   0.33618   0.00000  Uiso   1.00
C100   C     0.36087   0.16545   0.16343   0.00000  Uiso   1.00
Cu101  Cu    0.38022   0.16667   0.25000   0.00000  Uiso   1.00
Cu102  Cu    0.61978   0.16666   0.25000   0.00000  Uiso   1.00
C103   C     0.62313   0.17986   0.38427   0.00000  Uiso   1.00
C104   C     0.37623   0.16103   0.11321   0.00000  Uiso   1.00
C105   C     0.62132   0.22871   0.44377   0.00000  Uiso   1.00
C106   C     0.36413   0.13092   0.04476   0.00000  Uiso   1.00
C107   C     0.64381   0.21317   0.40011   0.00000  Uiso   1.00
C108   C     0.34562   0.14225   0.09077   0.00000  Uiso   1.00
C109   C     0.58090   0.16237   0.41175   0.00000  Uiso   1.00
C110   C     0.42319   0.17251   0.08806   0.00000  Uiso   1.00
C111   C     0.55133   0.18504   0.44861   0.00000  Uiso   1.00
C112   C     0.43666   0.17109   0.03987   0.00000  Uiso   1.00
C113   C     0.57292   0.21764   0.46590   0.00000  Uiso   1.00
C114   C     0.40918   0.14658   0.01863   0.00000  Uiso   1.00
C115   C     0.50149   0.17592   0.46905   0.00000  Uiso   1.00
C116   C     0.47894   0.19089   0.01283   0.00000  Uiso   1.00
C117   C     0.49839   0.22642   0.02711   0.00000  Uiso   1.00
C118   C     0.47242   0.15402   0.44683   0.00000  Uiso   1.00
C119   C     0.54491   0.23951   0.00383   0.00000  Uiso   1.00
C120   C     0.42725   0.13890   0.47157   0.00000  Uiso   1.00
C121   C     0.62357   0.02262   0.26437   0.00000  Uiso   1.00
C122   C     0.37665   0.31070   0.23436   0.00000  Uiso   1.00
H123   H     0.58971   0.03981   0.27612   0.00000  Uiso   1.00
H124   H     0.41050   0.29346   0.22279   0.00000  Uiso   1.00
C125   C     0.62175   0.31364   0.26253   0.00000  Uiso   1.00
C126   C     0.37848   0.01970   0.23629   0.00000  Uiso   1.00
C127   C     0.66550   0.29062   0.24803   0.00000  Uiso   1.00
C128   C     0.33472   0.04271   0.25077   0.00000  Uiso   1.00
C129   C     0.51726   0.14107   0.27855   0.00000  Uiso   1.00
C130   C     0.48220   0.19227   0.22184   0.00000  Uiso   1.00
H131   H     0.53026   0.12072   0.30123   0.00000  Uiso   1.00
H132   H     0.46917   0.21282   0.19933   0.00000  Uiso   1.00
C133   C     0.46726   0.14105   0.27888   0.00000  Uiso   1.00
C134   C     0.53133   0.19276   0.22160   0.00000  Uiso   1.00
N135   N     0.45069   0.16668   0.24999   0.00000  Uiso   1.00
N136   N     0.54931   0.16666   0.25001   0.00000  Uiso   1.00
O137   O     0.56259   0.27409   0.01892   0.00000  Uiso   1.00
C138   C     0.55013   0.30884   0.49583   0.00000  Uiso   1.00
H139   H     0.51006   0.31328   0.00374   0.00000  Uiso   1.00
H140   H     0.56625   0.30679   0.45846   0.00000  Uiso   1.00
H141   H     0.56497   0.00316   0.00736   0.00000  Uiso   1.00
O142   O     0.40303   0.11363   0.44969   0.00000  Uiso   1.00
C143   C     0.37340   0.13817   0.42940   0.00000  Uiso   1.00
H144   H     0.35271   0.11767   0.41337   0.00000  Uiso   1.00
H145   H     0.39536   0.15856   0.40224   0.00000  Uiso   1.00
H146   H     0.34664   0.15667   0.45513   0.00000  Uiso   1.00
O147   O     0.45608   0.18315   0.11132   0.00000  Uiso   1.00
H148   H     0.48892   0.17390   0.09366   0.00000  Uiso   1.00
O149   O     0.57050   0.12296   0.40201   0.00000  Uiso   1.00
H150   H     0.55178   0.10960   0.43065   0.00000  Uiso   1.00
O151   O     0.63271   0.13086   0.11509   0.00000  Uiso   1.00
C152   C     0.59890   0.15843   0.10378   0.00000  Uiso   1.00
H153   H     0.60697   0.19095   0.10907   0.00000  Uiso   1.00
H154   H     0.56227   0.15181   0.12633   0.00000  Uiso   1.00
H155   H     0.59759   0.15450   0.06817   0.00000  Uiso   1.00
O156   O     0.35326   0.22954   0.37327   0.00000  Uiso   1.00
C157   C     0.34315   0.26880   0.35722   0.00000  Uiso   1.00
H158   H     0.64477   0.26859   0.34285   0.00000  Uiso   1.00
H159   H     0.37519   0.27859   0.32973   0.00000  Uiso   1.00
H160   H     0.33682   0.29196   0.38440   0.00000  Uiso   1.00
O161   O     0.64528   0.25531   0.46441   0.00000  Uiso   1.00
H162   H     0.34720   0.25396   0.44896   0.00000  Uiso   1.00
O163   O     0.33863   0.10491   0.02497   0.00000  Uiso   1.00
H164   H     0.64599   0.09135   0.04868   0.00000  Uiso   1.00
O165   O     0.47157   0.25132   0.06128   0.00000  Uiso   1.00
H166   H     0.43675   0.24877   0.06285   0.00000  Uiso   1.00
O167   O     0.48477   0.14970   0.40030   0.00000  Uiso   1.00
H168   H     0.50313   0.17423   0.38611   0.00000  Uiso   1.00
O169   O     0.57702   0.29575   0.27672   0.00000  Uiso   1.00
H170   H     0.57180   0.28261   0.24962   0.00000  Uiso   1.00
O171   O     0.42324   0.03758   0.22254   0.00000  Uiso   1.00
H172   H     0.42816   0.05066   0.24980   0.00000  Uiso   1.00
O173   O     0.43476   0.11558   0.30806   0.00000  Uiso   1.00
H174   H     0.45206   0.09943   0.32681   0.00000  Uiso   1.00
O175   O     0.55912   0.22082   0.19201   0.00000  Uiso   1.00
H176   H     0.59282   0.21811   0.19269   0.00000  Uiso   1.00
O177   O     0.70625   0.10655   0.25000   0.00000  Uiso   1.00
O178   O     0.96042   0.22678   0.25000   0.00000  Uiso   1.00
O179   O     0.96039   0.10654   0.25001   0.00000  Uiso   1.00
O180   O     0.70628   0.22679   0.25000   0.00000  Uiso   1.00
C181   C     0.66719   0.08738   0.25024   0.00000  Uiso   1.00
C182   C     0.99963   0.24594   0.24917   0.00000  Uiso   1.00
O183   O     0.68519   0.16668   0.31492   0.00000  Uiso   1.00
O184   O     0.98148   0.16666   0.18509   0.00000  Uiso   1.00
O185   O     0.93933   0.16667   0.31492   0.00000  Uiso   1.00
O186   O     0.72733   0.16667   0.18508   0.00000  Uiso   1.00
C187   C     0.97255   0.16858   0.33618   0.00000  Uiso   1.00
C188   C     0.69420   0.16545   0.16343   0.00000  Uiso   1.00
Cu189  Cu    0.71355   0.16667   0.25000   0.00000  Uiso   1.00
Cu190  Cu    0.95311   0.16666   0.25000   0.00000  Uiso   1.00
C191   C     0.95646   0.17986   0.38427   0.00000  Uiso   1.00
C192   C     0.70956   0.16103   0.11321   0.00000  Uiso   1.00
C193   C     0.95465   0.22871   0.44377   0.00000  Uiso   1.00
C194   C     0.69746   0.13092   0.04476   0.00000  Uiso   1.00
C195   C     0.97715   0.21317   0.40011   0.00000  Uiso   1.00
C196   C     0.67895   0.14225   0.09077   0.00000  Uiso   1.00
C197   C     0.91423   0.16237   0.41175   0.00000  Uiso   1.00
C198   C     0.75653   0.17251   0.08806   0.00000  Uiso   1.00
C199   C     0.88466   0.18504   0.44861   0.00000  Uiso   1.00
C200   C     0.77000   0.17109   0.03987   0.00000  Uiso   1.00
C201   C     0.90625   0.21764   0.46590   0.00000  Uiso   1.00
C202   C     0.74251   0.14658   0.01863   0.00000  Uiso   1.00
C203   C     0.83482   0.17592   0.46905   0.00000  Uiso   1.00
C204   C     0.81228   0.19089   0.01283   0.00000  Uiso   1.00
C205   C     0.83172   0.22642   0.02711   0.00000  Uiso   1.00
C206   C     0.80575   0.15402   0.44683   0.00000  Uiso   1.00
C207   C     0.87825   0.23951   0.00383   0.00000  Uiso   1.00
C208   C     0.76059   0.13890   0.47157   0.00000  Uiso   1.00
C209   C     0.95691   0.02262   0.26437   0.00000  Uiso   1.00
C210   C     0.70998   0.31070   0.23436   0.00000  Uiso   1.00
H211   H     0.92304   0.03981   0.27612   0.00000  Uiso   1.00
H212   H     0.74384   0.29346   0.22279   0.00000  Uiso   1.00
C213   C     0.95509   0.31364   0.26253   0.00000  Uiso   1.00
C214   C     0.71181   0.01970   0.23629   0.00000  Uiso   1.00
C215   C     0.99884   0.29062   0.24803   0.00000  Uiso   1.00
C216   C     0.66805   0.04271   0.25077   0.00000  Uiso   1.00
C217   C     0.85059   0.14107   0.27855   0.00000  Uiso   1.00
C218   C     0.81553   0.19227   0.22184   0.00000  Uiso   1.00
H219   H     0.86359   0.12072   0.30123   0.00000  Uiso   1.00
H220   H     0.80250   0.21282   0.19933   0.00000  Uiso   1.00
C221   C     0.80059   0.14105   0.27888   0.00000  Uiso   1.00
C222   C     0.86467   0.19276   0.22160   0.00000  Uiso   1.00
N223   N     0.78403   0.16668   0.24999   0.00000  Uiso   1.00
N224   N     0.88264   0.16666   0.25001   0.00000  Uiso   1.00
O225   O     0.89592   0.27409   0.01892   0.00000  Uiso   1.00
C226   C     0.88346   0.30884   0.49583   0.00000  Uiso   1.00
H227   H     0.84339   0.31328   0.00374   0.00000  Uiso   1.00
H228   H     0.89958   0.30679   0.45846   0.00000  Uiso   1.00
H229   H     0.89831   0.00316   0.00736   0.00000  Uiso   1.00
O230   O     0.73637   0.11363   0.44969   0.00000  Uiso   1.00
C231   C     0.70673   0.13817   0.42940   0.00000  Uiso   1.00
H232   H     0.68604   0.11767   0.41337   0.00000  Uiso   1.00
H233   H     0.72870   0.15856   0.40224   0.00000  Uiso   1.00
H234   H     0.67997   0.15667   0.45513   0.00000  Uiso   1.00
O235   O     0.78941   0.18315   0.11132   0.00000  Uiso   1.00
H236   H     0.82226   0.17390   0.09366   0.00000  Uiso   1.00
O237   O     0.90383   0.12296   0.40201   0.00000  Uiso   1.00
H238   H     0.88511   0.10960   0.43065   0.00000  Uiso   1.00
O239   O     0.96604   0.13086   0.11509   0.00000  Uiso   1.00
C240   C     0.93224   0.15843   0.10378   0.00000  Uiso   1.00
H241   H     0.94030   0.19095   0.10907   0.00000  Uiso   1.00
H242   H     0.89561   0.15181   0.12633   0.00000  Uiso   1.00
H243   H     0.93092   0.15450   0.06817   0.00000  Uiso   1.00
O244   O     0.68659   0.22954   0.37327   0.00000  Uiso   1.00
C245   C     0.67649   0.26880   0.35722   0.00000  Uiso   1.00
H246   H     0.97810   0.26859   0.34285   0.00000  Uiso   1.00
H247   H     0.70853   0.27859   0.32973   0.00000  Uiso   1.00
H248   H     0.67015   0.29196   0.38440   0.00000  Uiso   1.00
O249   O     0.97861   0.25531   0.46441   0.00000  Uiso   1.00
H250   H     0.68053   0.25396   0.44896   0.00000  Uiso   1.00
O251   O     0.67196   0.10491   0.02497   0.00000  Uiso   1.00
H252   H     0.97933   0.09135   0.04868   0.00000  Uiso   1.00
O253   O     0.80490   0.25132   0.06128   0.00000  Uiso   1.00
H254   H     0.77008   0.24877   0.06285   0.00000  Uiso   1.00
O255   O     0.81810   0.14970   0.40030   0.00000  Uiso   1.00
H256   H     0.83647   0.17423   0.38611   0.00000  Uiso   1.00
O257   O     0.91035   0.29575   0.27672   0.00000  Uiso   1.00
H258   H     0.90513   0.28261   0.24962   0.00000  Uiso   1.00
O259   O     0.75657   0.03758   0.22254   0.00000  Uiso   1.00
H260   H     0.76149   0.05066   0.24980   0.00000  Uiso   1.00
O261   O     0.76809   0.11558   0.30806   0.00000  Uiso   1.00
H262   H     0.78539   0.09943   0.32681   0.00000  Uiso   1.00
O263   O     0.89245   0.22082   0.19201   0.00000  Uiso   1.00
H264   H     0.92615   0.21811   0.19269   0.00000  Uiso   1.00
O265   O     0.03958   0.43989   0.25000   0.00000  Uiso   1.00
O266   O     0.29375   0.56011   0.25000   0.00000  Uiso   1.00
O267   O     0.29372   0.43988   0.25001   0.00000  Uiso   1.00
O268   O     0.03961   0.56012   0.25000   0.00000  Uiso   1.00
C269   C     0.00052   0.42071   0.25024   0.00000  Uiso   1.00
C270   C     0.33297   0.57928   0.24917   0.00000  Uiso   1.00
O271   O     0.01852   0.50001   0.31492   0.00000  Uiso   1.00
O272   O     0.31481   0.49999   0.18509   0.00000  Uiso   1.00
O273   O     0.27267   0.50000   0.31492   0.00000  Uiso   1.00
O274   O     0.06067   0.50000   0.18508   0.00000  Uiso   1.00
C275   C     0.30588   0.50192   0.33618   0.00000  Uiso   1.00
C276   C     0.02754   0.49878   0.16343   0.00000  Uiso   1.00
Cu277  Cu    0.04689   0.50001   0.25000   0.00000  Uiso   1.00
Cu278  Cu    0.28645   0.49999   0.25000   0.00000  Uiso   1.00
C279   C     0.28979   0.51319   0.38427   0.00000  Uiso   1.00
C280   C     0.04290   0.49436   0.11321   0.00000  Uiso   1.00
C281   C     0.28799   0.56204   0.44377   0.00000  Uiso   1.00
C282   C     0.03080   0.46426   0.04476   0.00000  Uiso   1.00
C283   C     0.31048   0.54650   0.40011   0.00000  Uiso   1.00
C284   C     0.01229   0.47559   0.09077   0.00000  Uiso   1.00
C285   C     0.24757   0.49570   0.41175   0.00000  Uiso   1.00
C286   C     0.08986   0.50584   0.08806   0.00000  Uiso   1.00
C287   C     0.21800   0.51838   0.44861   0.00000  Uiso   1.00
C288   C     0.10333   0.50442   0.03987   0.00000  Uiso   1.00
C289   C     0.23958   0.55097   0.46590   0.00000  Uiso   1.00
C290   C     0.07585   0.47992   0.01863   0.00000  Uiso   1.00
C291   C     0.16816   0.50925   0.46905   0.00000  Uiso   1.00
C292   C     0.14561   0.52422   0.01283   0.00000  Uiso   1.00
C293   C     0.16505   0.55975   0.02711   0.00000  Uiso   1.00
C294   C     0.13909   0.48736   0.44683   0.00000  Uiso   1.00
C295   C     0.21158   0.57284   0.00383   0.00000  Uiso   1.00
C296   C     0.09392   0.47223   0.47157   0.00000  Uiso   1.00
C297   C     0.29024   0.35595   0.26437   0.00000  Uiso   1.00
C298   C     0.04332   0.64403   0.23436   0.00000  Uiso   1.00
H299   H     0.25638   0.37315   0.27612   0.00000  Uiso   1.00
H300   H     0.07717   0.62679   0.22279   0.00000  Uiso   1.00
C301   C     0.28842   0.64697   0.26253   0.00000  Uiso   1.00
C302   C     0.04514   0.35303   0.23629   0.00000  Uiso   1.00
C303   C     0.33217   0.62395   0.24803   0.00000  Uiso   1.00
C304   C     0.00138   0.37604   0.25077   0.00000  Uiso   1.00
C305   C     0.18393   0.47440   0.27855   0.00000  Uiso   1.00
C306   C     0.14886   0.52560   0.22184   0.00000  Uiso   1.00
H307   H     0.19692   0.45405   0.30123   0.00000  Uiso   1.00
H308   H     0.13584   0.54615   0.19933   0.00000  Uiso   1.00
C309   C     0.13393   0.47438   0.27888   0.00000  Uiso   1.00
C310   C     0.19800   0.52609   0.22160   0.00000  Uiso   1.00
N311   N     0.11736   0.50001   0.24999   0.00000  Uiso   1.00
N312   N     0.21597   0.49999   0.25001   0.00000  Uiso   1.00
O313   O     0.22925   0.60742   0.01892   0.00000  Uiso   1.00
C314   C     0.21680   0.64217   0.49583   0.00000  Uiso   1.00
H315   H     0.17673   0.64661   0.00374   0.00000  Uiso   1.00
H316   H     0.23291   0.64013   0.45846   0.00000  Uiso   1.00
H317   H     0.23164   0.33649   0.00736   0.00000  Uiso   1.00
O318   O     0.06970   0.44696   0.44969   0.00000  Uiso   1.00
C319   C     0.04006   0.47151   0.42940   0.00000  Uiso   1.00
H320   H     0.01937   0.45101   0.41337   0.00000  Uiso   1.00
H321   H     0.06203   0.49189   0.40224   0.00000  Uiso   1.00
H322   H     0.01331   0.49001   0.45513   0.00000  Uiso   1.00
O323   O     0.12275   0.51648   0.11132   0.00000  Uiso   1.00
H324   H     0.15559   0.50724   0.09366   0.00000  Uiso   1.00
O325   O     0.23717   0.45629   0.40201   0.00000  Uiso   1.00
H326   H     0.21844   0.44293   0.43065   0.00000  Uiso   1.00
O327   O     0.29937   0.46420   0.11509   0.00000  Uiso   1.00
C328   C     0.26557   0.49177   0.10378   0.00000  Uiso   1.00
H329   H     0.27363   0.52429   0.10907   0.00000  Uiso   1.00
H330   H     0.22894   0.48514   0.12633   0.00000  Uiso   1.00
H331   H     0.26425   0.48784   0.06817   0.00000  Uiso   1.00
O332   O     0.01993   0.56287   0.37327   0.00000  Uiso   1.00
C333   C     0.00982   0.60213   0.35722   0.00000  Uiso   1.00
H334   H     0.31143   0.60192   0.34285   0.00000  Uiso   1.00
H335   H     0.04186   0.61193   0.32973   0.00000  Uiso   1.00
H336   H     0.00349   0.62529   0.38440   0.00000  Uiso   1.00
O337   O     0.31194   0.58864   0.46441   0.00000  Uiso   1.00
H338   H     0.01386   0.58729   0.44896   0.00000  Uiso   1.00
O339   O     0.00529   0.43824   0.02497   0.00000  Uiso   1.00
H340   H     0.31266   0.42468   0.04868   0.00000  Uiso   1.00
O341   O     0.13824   0.58465   0.06128   0.00000  Uiso   1.00
H342   H     0.10341   0.58210   0.06285   0.00000  Uiso   1.00
O343   O     0.15143   0.48303   0.40030   0.00000  Uiso   1.00
H344   H     0.16980   0.50756   0.38611   0.00000  Uiso   1.00
O345   O     0.24369   0.62909   0.27672   0.00000  Uiso   1.00
H346   H     0.23847   0.61594   0.24962   0.00000  Uiso   1.00
O347   O     0.08991   0.37091   0.22254   0.00000  Uiso   1.00
H348   H     0.09483   0.38400   0.24980   0.00000  Uiso   1.00
O349   O     0.10143   0.44891   0.30806   0.00000  Uiso   1.00
H350   H     0.11873   0.43276   0.32681   0.00000  Uiso   1.00
O351   O     0.22578   0.55415   0.19201   0.00000  Uiso   1.00
H352   H     0.25948   0.55144   0.19269   0.00000  Uiso   1.00
O353   O     0.37291   0.43989   0.25000   0.00000  Uiso   1.00
O354   O     0.62709   0.56011   0.25000   0.00000  Uiso   1.00
O355   O     0.62706   0.43988   0.25001   0.00000  Uiso   1.00
O356   O     0.37294   0.56012   0.25000   0.00000  Uiso   1.00
C357   C     0.33386   0.42071   0.25024   0.00000  Uiso   1.00
C358   C     0.66630   0.57928   0.24917   0.00000  Uiso   1.00
O359   O     0.35186   0.50001   0.31492   0.00000  Uiso   1.00
O360   O     0.64814   0.49999   0.18509   0.00000  Uiso   1.00
O361   O     0.60600   0.50000   0.31492   0.00000  Uiso   1.00
O362   O     0.39400   0.50000   0.18508   0.00000  Uiso   1.00
C363   C     0.63922   0.50192   0.33618   0.00000  Uiso   1.00
C364   C     0.36087   0.49878   0.16343   0.00000  Uiso   1.00
Cu365  Cu    0.38022   0.50001   0.25000   0.00000  Uiso   1.00
Cu366  Cu    0.61978   0.49999   0.25000   0.00000  Uiso   1.00
C367   C     0.62313   0.51319   0.38427   0.00000  Uiso   1.00
C368   C     0.37623   0.49436   0.11321   0.00000  Uiso   1.00
C369   C     0.62132   0.56204   0.44377   0.00000  Uiso   1.00
C370   C     0.36413   0.46426   0.04476   0.00000  Uiso   1.00
C371   C     0.64381   0.54650   0.40011   0.00000  Uiso   1.00
C372   C     0.34562   0.47559   0.09077   0.00000  Uiso   1.00
C373   C     0.58090   0.49570   0.41175   0.00000  Uiso   1.00
C374   C     0.42319   0.50584   0.08806   0.00000  Uiso   1.00
C375   C     0.55133   0.51838   0.44861   0.00000  Uiso   1.00
C376   C     0.43666   0.50442   0.03987   0.00000  Uiso   1.00
C377   C     0.57292   0.55097   0.46590   0.00000  Uiso   1.00
C378   C     0.40918   0.47992   0.01863   0.00000  Uiso   1.00
C379   C     0.50149   0.50925   0.46905   0.00000  Uiso   1.00
C380   C     0.47894   0.52422   0.01283   0.00000  Uiso   1.00
C381   C     0.49839   0.55975   0.02711   0.00000  Uiso   1.00
C382   C     0.47242   0.48736   0.44683   0.00000  Uiso   1.00
C383   C     0.54491   0.57284   0.00383   0.00000  Uiso   1.00
C384   C     0.42725   0.47223   0.47157   0.00000  Uiso   1.00
C385   C     0.62357   0.35595   0.26437   0.00000  Uiso   1.00
C386   C     0.37665   0.64403   0.23436   0.00000  Uiso   1.00
H387   H     0.58971   0.37315   0.27612   0.00000  Uiso   1.00
H388   H     0.41050   0.62679   0.22279   0.00000  Uiso   1.00
C389   C     0.62175   0.64697   0.26253   0.00000  Uiso   1.00
C390   C     0.37848   0.35303   0.23629   0.00000  Uiso   1.00
C391   C     0.66550   0.62395   0.24803   0.00000  Uiso   1.00
C392   C     0.33472   0.37604   0.25077   0.00000  Uiso   1.00
C393   C     0.51726   0.47440   0.27855   0.00000  Uiso   1.00
C394   C     0.48220   0.52560   0.22184   0.00000  Uiso   1.00
H395   H     0.53026   0.45405   0.30123   0.00000  Uiso   1.00
H396   H     0.46917   0.54615   0.19933   0.00000  Uiso   1.00
C397   C     0.46726   0.47438   0.27888   0.00000  Uiso   1.00
C398   C     0.53133   0.52609   0.22160   0.00000  Uiso   1.00
N399   N     0.45069   0.50001   0.24999   0.00000  Uiso   1.00
N400   N     0.54931   0.49999   0.25001   0.00000  Uiso   1.00
O401   O     0.56259   0.60742   0.01892   0.00000  Uiso   1.00
C402   C     0.55013   0.64217   0.49583   0.00000  Uiso   1.00
H403   H     0.51006   0.64661   0.00374   0.00000  Uiso   1.00
H404   H     0.56625   0.64013   0.45846   0.00000  Uiso   1.00
H405   H     0.56497   0.33649   0.00736   0.00000  Uiso   1.00
O406   O     0.40303   0.44696   0.44969   0.00000  Uiso   1.00
C407   C     0.37340   0.47151   0.42940   0.00000  Uiso   1.00
H408   H     0.35271   0.45101   0.41337   0.00000  Uiso   1.00
H409   H     0.39536   0.49189   0.40224   0.00000  Uiso   1.00
H410   H     0.34664   0.49001   0.45513   0.00000  Uiso   1.00
O411   O     0.45608   0.51648   0.11132   0.00000  Uiso   1.00
H412   H     0.48892   0.50724   0.09366   0.00000  Uiso   1.00
O413   O     0.57050   0.45629   0.40201   0.00000  Uiso   1.00
H414   H     0.55178   0.44293   0.43065   0.00000  Uiso   1.00
O415   O     0.63271   0.46420   0.11509   0.00000  Uiso   1.00
C416   C     0.59890   0.49177   0.10378   0.00000  Uiso   1.00
H417   H     0.60697   0.52429   0.10907   0.00000  Uiso   1.00
H418   H     0.56227   0.48514   0.12633   0.00000  Uiso   1.00
H419   H     0.59759   0.48784   0.06817   0.00000  Uiso   1.00
O420   O     0.35326   0.56287   0.37327   0.00000  Uiso   1.00
C421   C     0.34315   0.60213   0.35722   0.00000  Uiso   1.00
H422   H     0.64477   0.60192   0.34285   0.00000  Uiso   1.00
H423   H     0.37519   0.61193   0.32973   0.00000  Uiso   1.00
H424   H     0.33682   0.62529   0.38440   0.00000  Uiso   1.00
O425   O     0.64528   0.58864   0.46441   0.00000  Uiso   1.00
H426   H     0.34720   0.58729   0.44896   0.00000  Uiso   1.00
O427   O     0.33863   0.43824   0.02497   0.00000  Uiso   1.00
H428   H     0.64599   0.42468   0.04868   0.00000  Uiso   1.00
O429   O     0.47157   0.58465   0.06128   0.00000  Uiso   1.00
H430   H     0.43675   0.58210   0.06285   0.00000  Uiso   1.00
O431   O     0.48477   0.48303   0.40030   0.00000  Uiso   1.00
H432   H     0.50313   0.50756   0.38611   0.00000  Uiso   1.00
O433   O     0.57702   0.62909   0.27672   0.00000  Uiso   1.00
H434   H     0.57180   0.61594   0.24962   0.00000  Uiso   1.00
O435   O     0.42324   0.37091   0.22254   0.00000  Uiso   1.00
H436   H     0.42816   0.38400   0.24980   0.00000  Uiso   1.00
O437   O     0.43476   0.44891   0.30806   0.00000  Uiso   1.00
H438   H     0.45206   0.43276   0.32681   0.00000  Uiso   1.00
O439   O     0.55912   0.55415   0.19201   0.00000  Uiso   1.00
H440   H     0.59282   0.55144   0.19269   0.00000  Uiso   1.00
O441   O     0.70625   0.43989   0.25000   0.00000  Uiso   1.00
O442   O     0.96042   0.56011   0.25000   0.00000  Uiso   1.00
O443   O     0.96039   0.43988   0.25001   0.00000  Uiso   1.00
O444   O     0.70628   0.56012   0.25000   0.00000  Uiso   1.00
C445   C     0.66719   0.42071   0.25024   0.00000  Uiso   1.00
C446   C     0.99963   0.57928   0.24917   0.00000  Uiso   1.00
O447   O     0.68519   0.50001   0.31492   0.00000  Uiso   1.00
O448   O     0.98148   0.49999   0.18509   0.00000  Uiso   1.00
O449   O     0.93933   0.50000   0.31492   0.00000  Uiso   1.00
O450   O     0.72733   0.50000   0.18508   0.00000  Uiso   1.00
C451   C     0.97255   0.50192   0.33618   0.00000  Uiso   1.00
C452   C     0.69420   0.49878   0.16343   0.00000  Uiso   1.00
Cu453  Cu    0.71355   0.50001   0.25000   0.00000  Uiso   1.00
Cu454  Cu    0.95311   0.49999   0.25000   0.00000  Uiso   1.00
C455   C     0.95646   0.51319   0.38427   0.00000  Uiso   1.00
C456   C     0.70956   0.49436   0.11321   0.00000  Uiso   1.00
C457   C     0.95465   0.56204   0.44377   0.00000  Uiso   1.00
C458   C     0.69746   0.46426   0.04476   0.00000  Uiso   1.00
C459   C     0.97715   0.54650   0.40011   0.00000  Uiso   1.00
C460   C     0.67895   0.47559   0.09077   0.00000  Uiso   1.00
C461   C     0.91423   0.49570   0.41175   0.00000  Uiso   1.00
C462   C     0.75653   0.50584   0.08806   0.00000  Uiso   1.00
C463   C     0.88466   0.51838   0.44861   0.00000  Uiso   1.00
C464   C     0.77000   0.50442   0.03987   0.00000  Uiso   1.00
C465   C     0.90625   0.55097   0.46590   0.00000  Uiso   1.00
C466   C     0.74251   0.47992   0.01863   0.00000  Uiso   1.00
C467   C     0.83482   0.50925   0.46905   0.00000  Uiso   1.00
C468   C     0.81228   0.52422   0.01283   0.00000  Uiso   1.00
C469   C     0.83172   0.55975   0.02711   0.00000  Uiso   1.00
C470   C     0.80575   0.48736   0.44683   0.00000  Uiso   1.00
C471   C     0.87825   0.57284   0.00383   0.00000  Uiso   1.00
C472   C     0.76059   0.47223   0.47157   0.00000  Uiso   1.00
C473   C     0.95691   0.35595   0.26437   0.00000  Uiso   1.00
C474   C     0.70998   0.64403   0.23436   0.00000  Uiso   1.00
H475   H     0.92304   0.37315   0.27612   0.00000  Uiso   1.00
H476   H     0.74384   0.62679   0.22279   0.00000  Uiso   1.00
C477   C     0.95509   0.64697   0.26253   0.00000  Uiso   1.00
C478   C     0.71181   0.35303   0.23629   0.00000  Uiso   1.00
C479   C     0.99884   0.62395   0.24803   0.00000  Uiso   1.00
C480   C     0.66805   0.37604   0.25077   0.00000  Uiso   1.00
C481   C     0.85059   0.47440   0.27855   0.00000  Uiso   1.00
C482   C     0.81553   0.52560   0.22184   0.00000  Uiso   1.00
H483   H     0.86359   0.45405   0.30123   0.00000  Uiso   1.00
H484   H     0.80250   0.54615   0.19933   0.00000  Uiso   1.00
C485   C     0.80059   0.47438   0.27888   0.00000  Uiso   1.00
C486   C     0.86467   0.52609   0.22160   0.00000  Uiso   1.00
N487   N     0.78403   0.50001   0.24999   0.00000  Uiso   1.00
N488   N     0.88264   0.49999   0.25001   0.00000  Uiso   1.00
O489   O     0.89592   0.60742   0.01892   0.00000  Uiso   1.00
C490   C     0.88346   0.64217   0.49583   0.00000  Uiso   1.00
H491   H     0.84339   0.64661   0.00374   0.00000  Uiso   1.00
H492   H     0.89958   0.64013   0.45846   0.00000  Uiso   1.00
H493   H     0.89831   0.33649   0.00736   0.00000  Uiso   1.00
O494   O     0.73637   0.44696   0.44969   0.00000  Uiso   1.00
C495   C     0.70673   0.47151   0.42940   0.00000  Uiso   1.00
H496   H     0.68604   0.45101   0.41337   0.00000  Uiso   1.00
H497   H     0.72870   0.49189   0.40224   0.00000  Uiso   1.00
H498   H     0.67997   0.49001   0.45513   0.00000  Uiso   1.00
O499   O     0.78941   0.51648   0.11132   0.00000  Uiso   1.00
H500   H     0.82226   0.50724   0.09366   0.00000  Uiso   1.00
O501   O     0.90383   0.45629   0.40201   0.00000  Uiso   1.00
H502   H     0.88511   0.44293   0.43065   0.00000  Uiso   1.00
O503   O     0.96604   0.46420   0.11509   0.00000  Uiso   1.00
C504   C     0.93224   0.49177   0.10378   0.00000  Uiso   1.00
H505   H     0.94030   0.52429   0.10907   0.00000  Uiso   1.00
H506   H     0.89561   0.48514   0.12633   0.00000  Uiso   1.00
H507   H     0.93092   0.48784   0.06817   0.00000  Uiso   1.00
O508   O     0.68659   0.56287   0.37327   0.00000  Uiso   1.00
C509   C     0.67649   0.60213   0.35722   0.00000  Uiso   1.00
H510   H     0.97810   0.60192   0.34285   0.00000  Uiso   1.00
H511   H     0.70853   0.61193   0.32973   0.00000  Uiso   1.00
H512   H     0.67015   0.62529   0.38440   0.00000  Uiso   1.00
O513   O     0.97861   0.58864   0.46441   0.00000  Uiso   1.00
H514   H     0.68053   0.58729   0.44896   0.00000  Uiso   1.00
O515   O     0.67196   0.43824   0.02497   0.00000  Uiso   1.00
H516   H     0.97933   0.42468   0.04868   0.00000  Uiso   1.00
O517   O     0.80490   0.58465   0.06128   0.00000  Uiso   1.00
H518   H     0.77008   0.58210   0.06285   0.00000  Uiso   1.00
O519   O     0.81810   0.48303   0.40030   0.00000  Uiso   1.00
H520   H     0.83647   0.50756   0.38611   0.00000  Uiso   1.00
O521   O     0.91035   0.62909   0.27672   0.00000  Uiso   1.00
H522   H     0.90513   0.61594   0.24962   0.00000  Uiso   1.00
O523   O     0.75657   0.37091   0.22254   0.00000  Uiso   1.00
H524   H     0.76149   0.38400   0.24980   0.00000  Uiso   1.00
O525   O     0.76809   0.44891   0.30806   0.00000  Uiso   1.00
H526   H     0.78539   0.43276   0.32681   0.00000  Uiso   1.00
O527   O     0.89245   0.55415   0.19201   0.00000  Uiso   1.00
H528   H     0.92615   0.55144   0.19269   0.00000  Uiso   1.00
O529   O     0.03958   0.77322   0.25000   0.00000  Uiso   1.00
O530   O     0.29375   0.89345   0.25000   0.00000  Uiso   1.00
O531   O     0.29372   0.77321   0.25001   0.00000  Uiso   1.00
O532   O     0.03961   0.89346   0.25000   0.00000  Uiso   1.00
C533   C     0.00052   0.75405   0.25024   0.00000  Uiso   1.00
C534   C     0.33297   0.91261   0.24917   0.00000  Uiso   1.00
O535   O     0.01852   0.83334   0.31492   0.00000  Uiso   1.00
O536   O     0.31481   0.83332   0.18509   0.00000  Uiso   1.00
O537   O     0.27267   0.83333   0.31492   0.00000  Uiso   1.00
O538   O     0.06067   0.83333   0.18508   0.00000  Uiso   1.00
C539   C     0.30588   0.83525   0.33618   0.00000  Uiso   1.00
C540   C     0.02754   0.83212   0.16343   0.00000  Uiso   1.00
Cu541  Cu    0.04689   0.83334   0.25000   0.00000  Uiso   1.00
Cu542  Cu    0.28645   0.83333   0.25000   0.00000  Uiso   1.00
C543   C     0.28979   0.84653   0.38427   0.00000  Uiso   1.00
C544   C     0.04290   0.82769   0.11321   0.00000  Uiso   1.00
C545   C     0.28799   0.89538   0.44377   0.00000  Uiso   1.00
C546   C     0.03080   0.79759   0.04476   0.00000  Uiso   1.00
C547   C     0.31048   0.87984   0.40011   0.00000  Uiso   1.00
C548   C     0.01229   0.80892   0.09077   0.00000  Uiso   1.00
C549   C     0.24757   0.82904   0.41175   0.00000  Uiso   1.00
C550   C     0.08986   0.83918   0.08806   0.00000  Uiso   1.00
C551   C     0.21800   0.85171   0.44861   0.00000  Uiso   1.00
C552   C     0.10333   0.83776   0.03987   0.00000  Uiso   1.00
C553   C     0.23958   0.88431   0.46590   0.00000  Uiso   1.00
C554   C     0.07585   0.81325   0.01863   0.00000  Uiso   1.00
C555   C     0.16816   0.84259   0.46905   0.00000  Uiso   1.00
C556   C     0.14561   0.85756   0.01283   0.00000  Uiso   1.00
C557   C     0.16505   0.89309   0.02711   0.00000  Uiso   1.00
C558   C     0.13909   0.82069   0.44683   0.00000  Uiso   1.00
C559   C     0.21158   0.90617   0.00383   0.00000  Uiso   1.00
C560   C     0.09392   0.80557   0.47157   0.00000  Uiso   1.00
C561   C     0.29024   0.68928   0.26437   0.00000  Uiso   1.00
C562   C     0.04332   0.97737   0.23436   0.00000  Uiso   1.00
H563   H     0.25638   0.70648   0.27612   0.00000  Uiso   1.00
H564   H     0.07717   0.96013   0.22279   0.00000  Uiso   1.00
C565   C     0.28842   0.98030   0.26253   0.00000  Uiso   1.00
C566   C     0.04514   0.68636   0.23629   0.00000  Uiso   1.00
C567   C     0.33217   0.95729   0.24803   0.00000  Uiso   1.00
C568   C     0.00138   0.70938   0.25077   0.00000  Uiso   1.00
C569   C     0.18393   0.80774   0.27855   0.00000  Uiso   1.00
C570   C     0.14886   0.85893   0.22184   0.00000  Uiso   1.00
H571   H     0.19692   0.78738   0.30123   0.00000  Uiso   1.00
H572   H     0.13584   0.87948   0.19933   0.00000  Uiso   1.00
C573   C     0.13393   0.80772   0.27888   0.00000  Uiso   1.00
C574   C     0.19800   0.85943   0.22160   0.00000  Uiso   1.00
N575   N     0.11736   0.83334   0.24999   0.00000  Uiso   1.00
N576   N     0.21597   0.83332   0.25001   0.00000  Uiso   1.00
O577   O     0.22925   0.94075   0.01892   0.00000  Uiso   1.00
C578   C     0.21680   0.97551   0.49583   0.00000  Uiso   1.00
H579   H     0.17673   0.97995   0.00374   0.00000  Uiso   1.00
H580   H     0.23291   0.97346   0.45846   0.00000  Uiso   1.00
H581   H     0.23164   0.66983   0.00736   0.00000  Uiso   1.00
O582   O     0.06970   0.78030   0.44969   0.00000  Uiso   1.00
C583   C     0.04006   0.80484   0.42940   0.00000  Uiso   1.00
H584   H     0.01937   0.78434   0.41337   0.00000  Uiso   1.00
H585   H     0.06203   0.82523   0.40224   0.00000  Uiso   1.00
H586   H     0.01331   0.82334   0.45513   0.00000  Uiso   1.00
O587   O     0.12275   0.84982   0.11132   0.00000  Uiso   1.00
H588   H     0.15559   0.84057   0.09366   0.00000  Uiso   1.00
O589   O     0.23717   0.78962   0.40201   0.00000  Uiso   1.00
H590   H     0.21844   0.77626   0.43065   0.00000  Uiso   1.00
O591   O     0.29937   0.79753   0.11509   0.00000  Uiso   1.00
C592   C     0.26557   0.82510   0.10378   0.00000  Uiso   1.00
H593   H     0.27363   0.85762   0.10907   0.00000  Uiso   1.00
H594   H     0.22894   0.81847   0.12633   0.00000  Uiso   1.00
H595   H     0.26425   0.82117   0.06817   0.00000  Uiso   1.00
O596   O     0.01993   0.89620   0.37327   0.00000  Uiso   1.00
C597   C     0.00982   0.93547   0.35722   0.00000  Uiso   1.00
H598   H     0.31143   0.93526   0.34285   0.00000  Uiso   1.00
H599   H     0.04186   0.94526   0.32973   0.00000  Uiso   1.00
H600   H     0.00349   0.95862   0.38440   0.00000  Uiso   1.00
O601   O     0.31194   0.92198   0.46441   0.00000  Uiso   1.00
H602   H     0.01386   0.92063   0.44896   0.00000  Uiso   1.00
O603   O     0.00529   0.77157   0.02497   0.00000  Uiso   1.00
H604   H     0.31266   0.75801   0.04868   0.00000  Uiso   1.00
O605   O     0.13824   0.91798   0.06128   0.00000  Uiso   1.00
H606   H     0.10341   0.91544   0.06285   0.00000  Uiso   1.00
O607   O     0.15143   0.81636   0.40030   0.00000  Uiso   1.00
H608   H     0.16980   0.84090   0.38611   0.00000  Uiso   1.00
O609   O     0.24369   0.96242   0.27672   0.00000  Uiso   1.00
H610   H     0.23847   0.94928   0.24962   0.00000  Uiso   1.00
O611   O     0.08991   0.70424   0.22254   0.00000  Uiso   1.00
H612   H     0.09483   0.71733   0.24980   0.00000  Uiso   1.00
O613   O     0.10143   0.78225   0.30806   0.00000  Uiso   1.00
H614   H     0.11873   0.76610   0.32681   0.00000  Uiso   1.00
O615   O     0.22578   0.88749   0.19201   0.00000  Uiso   1.00
H616   H     0.25948   0.88477   0.19269   0.00000  Uiso   1.00
O617   O     0.37291   0.77322   0.25000   0.00000  Uiso   1.00
O618   O     0.62709   0.89345   0.25000   0.00000  Uiso   1.00
O619   O     0.62706   0.77321   0.25001   0.00000  Uiso   1.00
O620   O     0.37294   0.89346   0.25000   0.00000  Uiso   1.00
C621   C     0.33386   0.75405   0.25024   0.00000  Uiso   1.00
C622   C     0.66630   0.91261   0.24917   0.00000  Uiso   1.00
O623   O     0.35186   0.83334   0.31492   0.00000  Uiso   1.00
O624   O     0.64814   0.83332   0.18509   0.00000  Uiso   1.00
O625   O     0.60600   0.83333   0.31492   0.00000  Uiso   1.00
O626   O     0.39400   0.83333   0.18508   0.00000  Uiso   1.00
C627   C     0.63922   0.83525   0.33618   0.00000  Uiso   1.00
C628   C     0.36087   0.83212   0.16343   0.00000  Uiso   1.00
Cu629  Cu    0.38022   0.83334   0.25000   0.00000  Uiso   1.00
Cu630  Cu    0.61978   0.83333   0.25000   0.00000  Uiso   1.00
C631   C     0.62313   0.84653   0.38427   0.00000  Uiso   1.00
C632   C     0.37623   0.82769   0.11321   0.00000  Uiso   1.00
C633   C     0.62132   0.89538   0.44377   0.00000  Uiso   1.00
C634   C     0.36413   0.79759   0.04476   0.00000  Uiso   1.00
C635   C     0.64381   0.87984   0.40011   0.00000  Uiso   1.00
C636   C     0.34562   0.80892   0.09077   0.00000  Uiso   1.00
C637   C     0.58090   0.82904   0.41175   0.00000  Uiso   1.00
C638   C     0.42319   0.83918   0.08806   0.00000  Uiso   1.00
C639   C     0.55133   0.85171   0.44861   0.00000  Uiso   1.00
C640   C     0.43666   0.83776   0.03987   0.00000  Uiso   1.00
C641   C     0.57292   0.88431   0.46590   0.00000  Uiso   1.00
C642   C     0.40918   0.81325   0.01863   0.00000  Uiso   1.00
C643   C     0.50149   0.84259   0.46905   0.00000  Uiso   1.00
C644   C     0.47894   0.85756   0.01283   0.00000  Uiso   1.00
C645   C     0.49839   0.89309   0.02711   0.00000  Uiso   1.00
C646   C     0.47242   0.82069   0.44683   0.00000  Uiso   1.00
C647   C     0.54491   0.90617   0.00383   0.00000  Uiso   1.00
C648   C     0.42725   0.80557   0.47157   0.00000  Uiso   1.00
C649   C     0.62357   0.68928   0.26437   0.00000  Uiso   1.00
C650   C     0.37665   0.97737   0.23436   0.00000  Uiso   1.00
H651   H     0.58971   0.70648   0.27612   0.00000  Uiso   1.00
H652   H     0.41050   0.96013   0.22279   0.00000  Uiso   1.00
C653   C     0.62175   0.98030   0.26253   0.00000  Uiso   1.00
C654   C     0.37848   0.68636   0.23629   0.00000  Uiso   1.00
C655   C     0.66550   0.95729   0.24803   0.00000  Uiso   1.00
C656   C     0.33472   0.70938   0.25077   0.00000  Uiso   1.00
C657   C     0.51726   0.80774   0.27855   0.00000  Uiso   1.00
C658   C     0.48220   0.85893   0.22184   0.00000  Uiso   1.00
H659   H     0.53026   0.78738   0.30123   0.00000  Uiso   1.00
H660   H     0.46917   0.87948   0.19933   0.00000  Uiso   1.00
C661   C     0.46726   0.80772   0.27888   0.00000  Uiso   1.00
C662   C     0.53133   0.85943   0.22160   0.00000  Uiso   1.00
N663   N     0.45069   0.83334   0.24999   0.00000  Uiso   1.00
N664   N     0.54931   0.83332   0.25001   0.00000  Uiso   1.00
O665   O     0.56259   0.94075   0.01892   0.00000  Uiso   1.00
C666   C     0.55013   0.97551   0.49583   0.00000  Uiso   1.00
H667   H     0.51006   0.97995   0.00374   0.00000  Uiso   1.00
H668   H     0.56625   0.97346   0.45846   0.00000  Uiso   1.00
H669   H     0.56497   0.66983   0.00736   0.00000  Uiso   1.00
O670   O     0.40303   0.78030   0.44969   0.00000  Uiso   1.00
C671   C     0.37340   0.80484   0.42940   0.00000  Uiso   1.00
H672   H     0.35271   0.78434   0.41337   0.00000  Uiso   1.00
H673   H     0.39536   0.82523   0.40224   0.00000  Uiso   1.00
H674   H     0.34664   0.82334   0.45513   0.00000  Uiso   1.00
O675   O     0.45608   0.84982   0.11132   0.00000  Uiso   1.00
H676   H     0.48892   0.84057   0.09366   0.00000  Uiso   1.00
O677   O     0.57050   0.78962   0.40201   0.00000  Uiso   1.00
H678   H     0.55178   0.77626   0.43065   0.00000  Uiso   1.00
O679   O     0.63271   0.79753   0.11509   0.00000  Uiso   1.00
C680   C     0.59890   0.82510   0.10378   0.00000  Uiso   1.00
H681   H     0.60697   0.85762   0.10907   0.00000  Uiso   1.00
H682   H     0.56227   0.81847   0.12633   0.00000  Uiso   1.00
H683   H     0.59759   0.82117   0.06817   0.00000  Uiso   1.00
O684   O     0.35326   0.89620   0.37327   0.00000  Uiso   1.00
C685   C     0.34315   0.93547   0.35722   0.00000  Uiso   1.00
H686   H     0.64477   0.93526   0.34285   0.00000  Uiso   1.00
H687   H     0.37519   0.94526   0.32973   0.00000  Uiso   1.00
H688   H     0.33682   0.95862   0.38440   0.00000  Uiso   1.00
O689   O     0.64528   0.92198   0.46441   0.00000  Uiso   1.00
H690   H     0.34720   0.92063   0.44896   0.00000  Uiso   1.00
O691   O     0.33863   0.77157   0.02497   0.00000  Uiso   1.00
H692   H     0.64599   0.75801   0.04868   0.00000  Uiso   1.00
O693   O     0.47157   0.91798   0.06128   0.00000  Uiso   1.00
H694   H     0.43675   0.91544   0.06285   0.00000  Uiso   1.00
O695   O     0.48477   0.81636   0.40030   0.00000  Uiso   1.00
H696   H     0.50313   0.84090   0.38611   0.00000  Uiso   1.00
O697   O     0.57702   0.96242   0.27672   0.00000  Uiso   1.00
H698   H     0.57180   0.94928   0.24962   0.00000  Uiso   1.00
O699   O     0.42324   0.70424   0.22254   0.00000  Uiso   1.00
H700   H     0.42816   0.71733   0.24980   0.00000  Uiso   1.00
O701   O     0.43476   0.78225   0.30806   0.00000  Uiso   1.00
H702   H     0.45206   0.76610   0.32681   0.00000  Uiso   1.00
O703   O     0.55912   0.88749   0.19201   0.00000  Uiso   1.00
H704   H     0.59282   0.88477   0.19269   0.00000  Uiso   1.00
O705   O     0.70625   0.77322   0.25000   0.00000  Uiso   1.00
O706   O     0.96042   0.89345   0.25000   0.00000  Uiso   1.00
O707   O     0.96039   0.77321   0.25001   0.00000  Uiso   1.00
O708   O     0.70628   0.89346   0.25000   0.00000  Uiso   1.00
C709   C     0.66719   0.75405   0.25024   0.00000  Uiso   1.00
C710   C     0.99963   0.91261   0.24917   0.00000  Uiso   1.00
O711   O     0.68519   0.83334   0.31492   0.00000  Uiso   1.00
O712   O     0.98148   0.83332   0.18509   0.00000  Uiso   1.00
O713   O     0.93933   0.83333   0.31492   0.00000  Uiso   1.00
O714   O     0.72733   0.83333   0.18508   0.00000  Uiso   1.00
C715   C     0.97255   0.83525   0.33618   0.00000  Uiso   1.00
C716   C     0.69420   0.83212   0.16343   0.00000  Uiso   1.00
Cu717  Cu    0.71355   0.83334   0.25000   0.00000  Uiso   1.00
Cu718  Cu    0.95311   0.83333   0.25000   0.00000  Uiso   1.00
C719   C     0.95646   0.84653   0.38427   0.00000  Uiso   1.00
C720   C     0.70956   0.82769   0.11321   0.00000  Uiso   1.00
C721   C     0.95465   0.89538   0.44377   0.00000  Uiso   1.00
C722   C     0.69746   0.79759   0.04476   0.00000  Uiso   1.00
C723   C     0.97715   0.87984   0.40011   0.00000  Uiso   1.00
C724   C     0.67895   0.80892   0.09077   0.00000  Uiso   1.00
C725   C     0.91423   0.82904   0.41175   0.00000  Uiso   1.00
C726   C     0.75653   0.83918   0.08806   0.00000  Uiso   1.00
C727   C     0.88466   0.85171   0.44861   0.00000  Uiso   1.00
C728   C     0.77000   0.83776   0.03987   0.00000  Uiso   1.00
C729   C     0.90625   0.88431   0.46590   0.00000  Uiso   1.00
C730   C     0.74251   0.81325   0.01863   0.00000  Uiso   1.00
C731   C     0.83482   0.84259   0.46905   0.00000  Uiso   1.00
C732   C     0.81228   0.85756   0.01283   0.00000  Uiso   1.00
C733   C     0.83172   0.89309   0.02711   0.00000  Uiso   1.00
C734   C     0.80575   0.82069   0.44683   0.00000  Uiso   1.00
C735   C     0.87825   0.90617   0.00383   0.00000  Uiso   1.00
C736   C     0.76059   0.80557   0.47157   0.00000  Uiso   1.00
C737   C     0.95691   0.68928   0.26437   0.00000  Uiso   1.00
C738   C     0.70998   0.97737   0.23436   0.00000  Uiso   1.00
H739   H     0.92304   0.70648   0.27612   0.00000  Uiso   1.00
H740   H     0.74384   0.96013   0.22279   0.00000  Uiso   1.00
C741   C     0.95509   0.98030   0.26253   0.00000  Uiso   1.00
C742   C     0.71181   0.68636   0.23629   0.00000  Uiso   1.00
C743   C     0.99884   0.95729   0.24803   0.00000  Uiso   1.00
C744   C     0.66805   0.70938   0.25077   0.00000  Uiso   1.00
C745   C     0.85059   0.80774   0.27855   0.00000  Uiso   1.00
C746   C     0.81553   0.85893   0.22184   0.00000  Uiso   1.00
H747   H     0.86359   0.78738   0.30123   0.00000  Uiso   1.00
H748   H     0.80250   0.87948   0.19933   0.00000  Uiso   1.00
C749   C     0.80059   0.80772   0.27888   0.00000  Uiso   1.00
C750   C     0.86467   0.85943   0.22160   0.00000  Uiso   1.00
N751   N     0.78403   0.83334   0.24999   0.00000  Uiso   1.00
N752   N     0.88264   0.83332   0.25001   0.00000  Uiso   1.00
O753   O     0.89592   0.94075   0.01892   0.00000  Uiso   1.00
C754   C     0.88346   0.97551   0.49583   0.00000  Uiso   1.00
H755   H     0.84339   0.97995   0.00374   0.00000  Uiso   1.00
H756   H     0.89958   0.97346   0.45846   0.00000  Uiso   1.00
H757   H     0.89831   0.66983   0.00736   0.00000  Uiso   1.00
O758   O     0.73637   0.78030   0.44969   0.00000  Uiso   1.00
C759   C     0.70673   0.80484   0.42940   0.00000  Uiso   1.00
H760   H     0.68604   0.78434   0.41337   0.00000  Uiso   1.00
H761   H     0.72870   0.82523   0.40224   0.00000  Uiso   1.00
H762   H     0.67997   0.82334   0.45513   0.00000  Uiso   1.00
O763   O     0.78941   0.84982   0.11132   0.00000  Uiso   1.00
H764   H     0.82226   0.84057   0.09366   0.00000  Uiso   1.00
O765   O     0.90383   0.78962   0.40201   0.00000  Uiso   1.00
H766   H     0.88511   0.77626   0.43065   0.00000  Uiso   1.00
O767   O     0.96604   0.79753   0.11509   0.00000  Uiso   1.00
C768   C     0.93224   0.82510   0.10378   0.00000  Uiso   1.00
H769   H     0.94030   0.85762   0.10907   0.00000  Uiso   1.00
H770   H     0.89561   0.81847   0.12633   0.00000  Uiso   1.00
H771   H     0.93092   0.82117   0.06817   0.00000  Uiso   1.00
O772   O     0.68659   0.89620   0.37327   0.00000  Uiso   1.00
C773   C     0.67649   0.93547   0.35722   0.00000  Uiso   1.00
H774   H     0.97810   0.93526   0.34285   0.00000  Uiso   1.00
H775   H     0.70853   0.94526   0.32973   0.00000  Uiso   1.00
H776   H     0.67015   0.95862   0.38440   0.00000  Uiso   1.00
O777   O     0.97861   0.92198   0.46441   0.00000  Uiso   1.00
H778   H     0.68053   0.92063   0.44896   0.00000  Uiso   1.00
O779   O     0.67196   0.77157   0.02497   0.00000  Uiso   1.00
H780   H     0.97933   0.75801   0.04868   0.00000  Uiso   1.00
O781   O     0.80490   0.91798   0.06128   0.00000  Uiso   1.00
H782   H     0.77008   0.91544   0.06285   0.00000  Uiso   1.00
O783   O     0.81810   0.81636   0.40030   0.00000  Uiso   1.00
H784   H     0.83647   0.84090   0.38611   0.00000  Uiso   1.00
O785   O     0.91035   0.96242   0.27672   0.00000  Uiso   1.00
H786   H     0.90513   0.94928   0.24962   0.00000  Uiso   1.00
O787   O     0.75657   0.70424   0.22254   0.00000  Uiso   1.00
H788   H     0.76149   0.71733   0.24980   0.00000  Uiso   1.00
O789   O     0.76809   0.78225   0.30806   0.00000  Uiso   1.00
H790   H     0.78539   0.76610   0.32681   0.00000  Uiso   1.00
O791   O     0.89245   0.88749   0.19201   0.00000  Uiso   1.00
H792   H     0.92615   0.88477   0.19269   0.00000  Uiso   1.00
O793   O     0.03958   0.10655   0.75000   0.00000  Uiso   1.00
O794   O     0.29375   0.22678   0.75000   0.00000  Uiso   1.00
O795   O     0.29372   0.10654   0.75001   0.00000  Uiso   1.00
O796   O     0.03961   0.22679   0.75000   0.00000  Uiso   1.00
C797   C     0.00052   0.08738   0.75024   0.00000  Uiso   1.00
C798   C     0.33297   0.24594   0.74917   0.00000  Uiso   1.00
O799   O     0.01852   0.16668   0.81492   0.00000  Uiso   1.00
O800   O     0.31481   0.16666   0.68509   0.00000  Uiso   1.00
O801   O     0.27267   0.16667   0.81492   0.00000  Uiso   1.00
O802   O     0.06067   0.16667   0.68508   0.00000  Uiso   1.00
C803   C     0.30588   0.16858   0.83618   0.00000  Uiso   1.00
C804   C     0.02754   0.16545   0.66343   0.00000  Uiso   1.00
Cu805  Cu    0.04689   0.16667   0.75000   0.00000  Uiso   1.00
Cu806  Cu    0.28645   0.16666   0.75000   0.00000  Uiso   1.00
C807   C     0.28979   0.17986   0.88427   0.00000  Uiso   1.00
C808   C     0.04290   0.16103   0.61321   0.00000  Uiso   1.00
C809   C     0.28799   0.22871   0.94377   0.00000  Uiso   1.00
C810   C     0.03080   0.13092   0.54476   0.00000  Uiso   1.00
C811   C     0.31048   0.21317   0.90011   0.00000  Uiso   1.00
C812   C     0.01229   0.14225   0.59077   0.00000  Uiso   1.00
C813   C     0.24757   0.16237   0.91175   0.00000  Uiso   1.00
C814   C     0.08986   0.17251   0.58806   0.00000  Uiso   1.00
C815   C     0.21800   0.18504   0.94861   0.00000  Uiso   1.00
C816   C     0.10333   0.17109   0.53987   0.00000  Uiso   1.00
C817   C     0.23958   0.21764   0.96590   0.00000  Uiso   1.00
C818   C     0.07585   0.14658   0.51863   0.00000  Uiso   1.00
C819   C     0.16816   0.17592   0.96905   0.00000  Uiso   1.00
C820   C     0.14561   0.19089   0.51283   0.00000  Uiso   1.00
C821   C     0.16505   0.22642   0.52711   0.00000  Uiso   1.00
C822   C     0.13909   0.15402   0.94683   0.00000  Uiso   1.00
C823   C     0.21158   0.23951   0.50383   0.00000  Uiso   1.00
C824   C     0.09392   0.13890   0.97157   0.00000  Uiso   1.00
C825   C     0.29024   0.02262   0.76437   0.00000  Uiso   1.00
C826   C     0.04332   0.31070   0.73436   0.00000  Uiso   1.00
H827   H     0.25638   0.03981   0.77612   0.00000  Uiso   1.00
H828   H     0.07717   0.29346   0.72279   0.00000  Uiso   1.00
C829   C     0.28842   0.31364   0.76253   0.00000  Uiso   1.00
C830   C     0.04514   0.01970   0.73629   0.00000  Uiso   1.00
C831   C     0.33217   0.29062   0.74803   0.00000  Uiso   1.00
C832   C     0.00138   0.04271   0.75077   0.00000  Uiso   1.00
C833   C     0.18393   0.14107   0.77855   0.00000  Uiso   1.00
C834   C     0.14886   0.19227   0.72184   0.00000  Uiso   1.00
H835   H     0.19692   0.12072   0.80123   0.00000  Uiso   1.00
H836   H     0.13584   0.21282   0.69933   0.00000  Uiso   1.00
C837   C     0.13393   0.14105   0.77888   0.00000  Uiso   1.00
C838   C     0.19800   0.19276   0.72160   0.00000  Uiso   1.00
N839   N     0.11736   0.16668   0.74999   0.00000  Uiso   1.00
N840   N     0.21597   0.16666   0.75001   0.00000  Uiso   1.00
O841   O     0.22925   0.27409   0.51892   0.00000  Uiso   1.00
C842   C     0.21680   0.30884   0.99583   0.00000  Uiso   1.00
H843   H     0.17673   0.31328   0.50374   0.00000  Uiso   1.00
H844   H     0.23291   0.30679   0.95846   0.00000  Uiso   1.00
H845   H     0.23164   0.00316   0.50736   0.00000  Uiso   1.00
O846   O     0.06970   0.11363   0.94969   0.00000  Uiso   1.00
C847   C     0.04006   0.13817   0.92940   0.00000  Uiso   1.00
H848   H     0.01937   0.11767   0.91337   0.00000  Uiso   1.00
H849   H     0.06203   0.15856   0.90224   0.00000  Uiso   1.00
H850   H     0.01331   0.15667   0.95513   0.00000  Uiso   1.00
O851   O     0.12275   0.18315   0.61132   0.00000  Uiso   1.00
H852   H     0.15559   0.17390   0.59366   0.00000  Uiso   1.00
O853   O     0.23717   0.12296   0.90201   0.00000  Uiso   1.00
H854   H     0.21844   0.10960   0.93065   0.00000  Uiso   1.00
O855   O     0.29937   0.13086   0.61509   0.00000  Uiso   1.00
C856   C     0.26557   0.15843   0.60378   0.00000  Uiso   1.00
H857   H     0.27363   0.19095   0.60907   0.00000  Uiso   1.00
H858   H     0.22894   0.15181   0.62633   0.00000  Uiso   1.00
H859   H     0.26425   0.15450   0.56817   0.00000  Uiso   1.00
O860   O     0.01993   0.22954   0.87327   0.00000  Uiso   1.00
C861   C     0.00982   0.26880   0.85722   0.00000  Uiso   1.00
H862   H     0.31143   0.26859   0.84285   0.00000  Uiso   1.00
H863   H     0.04186   0.27859   0.82973   0.00000  Uiso   1.00
H864   H     0.00349   0.29196   0.88440   0.00000  Uiso   1.00
O865   O     0.31194   0.25531   0.96441   0.00000  Uiso   1.00
H866   H     0.01386   0.25396   0.94896   0.00000  Uiso   1.00
O867   O     0.00529   0.10491   0.52497   0.00000  Uiso   1.00
H868   H     0.31266   0.09135   0.54868   0.00000  Uiso   1.00
O869   O     0.13824   0.25132   0.56128   0.00000  Uiso   1.00
H870   H     0.10341   0.24877   0.56285   0.00000  Uiso   1.00
O871   O     0.15143   0.14970   0.90030   0.00000  Uiso   1.00
H872   H     0.16980   0.17423   0.88611   0.00000  Uiso   1.00
O873   O     0.24369   0.29575   0.77672   0.00000  Uiso   1.00
H874   H     0.23847   0.28261   0.74962   0.00000  Uiso   1.00
O875   O     0.08991   0.03758   0.72254   0.00000  Uiso   1.00
H876   H     0.09483   0.05066   0.74980   0.00000  Uiso   1.00
O877   O     0.10143   0.11558   0.80806   0.00000  Uiso   1.00
H878   H     0.11873   0.09943   0.82681   0.00000  Uiso   1.00
O879   O     0.22578   0.22082   0.69201   0.00000  Uiso   1.00
H880   H     0.25948   0.21811   0.69269   0.00000  Uiso   1.00
O881   O     0.37291   0.10655   0.75000   0.00000  Uiso   1.00
O882   O     0.62709   0.22678   0.75000   0.00000  Uiso   1.00
O883   O     0.62706   0.10654   0.75001   0.00000  Uiso   1.00
O884   O     0.37294   0.22679   0.75000   0.00000  Uiso   1.00
C885   C     0.33386   0.08738   0.75024   0.00000  Uiso   1.00
C886   C     0.66630   0.24594   0.74917   0.00000  Uiso   1.00
O887   O     0.35186   0.16668   0.81492   0.00000  Uiso   1.00
O888   O     0.64814   0.16666   0.68509   0.00000  Uiso   1.00
O889   O     0.60600   0.16667   0.81492   0.00000  Uiso   1.00
O890   O     0.39400   0.16667   0.68508   0.00000  Uiso   1.00
C891   C     0.63922   0.16858   0.83618   0.00000  Uiso   1.00
C892   C     0.36087   0.16545   0.66343   0.00000  Uiso   1.00
Cu893  Cu    0.38022   0.16667   0.75000   0.00000  Uiso   1.00
Cu894  Cu    0.61978   0.16666   0.75000   0.00000  Uiso   1.00
C895   C     0.62313   0.17986   0.88427   0.00000  Uiso   1.00
C896   C     0.37623   0.16103   0.61321   0.00000  Uiso   1.00
C897   C     0.62132   0.22871   0.94377   0.00000  Uiso   1.00
C898   C     0.36413   0.13092   0.54476   0.00000  Uiso   1.00
C899   C     0.64381   0.21317   0.90011   0.00000  Uiso   1.00
C900   C     0.34562   0.14225   0.59077   0.00000  Uiso   1.00
C901   C     0.58090   0.16237   0.91175   0.00000  Uiso   1.00
C902   C     0.42319   0.17251   0.58806   0.00000  Uiso   1.00
C903   C     0.55133   0.18504   0.94861   0.00000  Uiso   1.00
C904   C     0.43666   0.17109   0.53987   0.00000  Uiso   1.00
C905   C     0.57292   0.21764   0.96590   0.00000  Uiso   1.00
C906   C     0.40918   0.14658   0.51863   0.00000  Uiso   1.00
C907   C     0.50149   0.17592   0.96905   0.00000  Uiso   1.00
C908   C     0.47894   0.19089   0.51283   0.00000  Uiso   1.00
C909   C     0.49839   0.22642   0.52711   0.00000  Uiso   1.00
C910   C     0.47242   0.15402   0.94683   0.00000  Uiso   1.00
C911   C     0.54491   0.23951   0.50383   0.00000  Uiso   1.00
C912   C     0.42725   0.13890   0.97157   0.00000  Uiso   1.00
C913   C     0.62357   0.02262   0.76437   0.00000  Uiso   1.00
C914   C     0.37665   0.31070   0.73436   0.00000  Uiso   1.00
H915   H     0.58971   0.03981   0.77612   0.00000  Uiso   1.00
H916   H     0.41050   0.29346   0.72279   0.00000  Uiso   1.00
C917   C     0.62175   0.31364   0.76253   0.00000  Uiso   1.00
C918   C     0.37848   0.01970   0.73629   0.00000  Uiso   1.00
C919   C     0.66550   0.29062   0.74803   0.00000  Uiso   1.00
C920   C     0.33472   0.04271   0.75077   0.00000  Uiso   1.00
C921   C     0.51726   0.14107   0.77855   0.00000  Uiso   1.00
C922   C     0.48220   0.19227   0.72184   0.00000  Uiso   1.00
H923   H     0.53026   0.12072   0.80123   0.00000  Uiso   1.00
H924   H     0.46917   0.21282   0.69933   0.00000  Uiso   1.00
C925   C     0.46726   0.14105   0.77888   0.00000  Uiso   1.00
C926   C     0.53133   0.19276   0.72160   0.00000  Uiso   1.00
N927   N     0.45069   0.16668   0.74999   0.00000  Uiso   1.00
N928   N     0.54931   0.16666   0.75001   0.00000  Uiso   1.00
O929   O     0.56259   0.27409   0.51892   0.00000  Uiso   1.00
C930   C     0.55013   0.30884   0.99583   0.00000  Uiso   1.00
H931   H     0.51006   0.31328   0.50374   0.00000  Uiso   1.00
H932   H     0.56625   0.30679   0.95846   0.00000  Uiso   1.00
H933   H     0.56497   0.00316   0.50736   0.00000  Uiso   1.00
O934   O     0.40303   0.11363   0.94969   0.00000  Uiso   1.00
C935   C     0.37340   0.13817   0.92940   0.00000  Uiso   1.00
H936   H     0.35271   0.11767   0.91337   0.00000  Uiso   1.00
H937   H     0.39536   0.15856   0.90224   0.00000  Uiso   1.00
H938   H     0.34664   0.15667   0.95513   0.00000  Uiso   1.00
O939   O     0.45608   0.18315   0.61132   0.00000  Uiso   1.00
H940   H     0.48892   0.17390   0.59366   0.00000  Uiso   1.00
O941   O     0.57050   0.12296   0.90201   0.00000  Uiso   1.00
H942   H     0.55178   0.10960   0.93065   0.00000  Uiso   1.00
O943   O     0.63271   0.13086   0.61509   0.00000  Uiso   1.00
C944   C     0.59890   0.15843   0.60378   0.00000  Uiso   1.00
H945   H     0.60697   0.19095   0.60907   0.00000  Uiso   1.00
H946   H     0.56227   0.15181   0.62633   0.00000  Uiso   1.00
H947   H     0.59759   0.15450   0.56817   0.00000  Uiso   1.00
O948   O     0.35326   0.22954   0.87327   0.00000  Uiso   1.00
C949   C     0.34315   0.26880   0.85722   0.00000  Uiso   1.00
H950   H     0.64477   0.26859   0.84285   0.00000  Uiso   1.00
H951   H     0.37519   0.27859   0.82973   0.00000  Uiso   1.00
H952   H     0.33682   0.29196   0.88440   0.00000  Uiso   1.00
O953   O     0.64528   0.25531   0.96441   0.00000  Uiso   1.00
H954   H     0.34720   0.25396   0.94896   0.00000  Uiso   1.00
O955   O     0.33863   0.10491   0.52497   0.00000  Uiso   1.00
H956   H     0.64599   0.09135   0.54868   0.00000  Uiso   1.00
O957   O     0.47157   0.25132   0.56128   0.00000  Uiso   1.00
H958   H     0.43675   0.24877   0.56285   0.00000  Uiso   1.00
O959   O     0.48477   0.14970   0.90030   0.00000  Uiso   1.00
H960   H     0.50313   0.17423   0.88611   0.00000  Uiso   1.00
O961   O     0.57702   0.29575   0.77672   0.00000  Uiso   1.00
H962   H     0.57180   0.28261   0.74962   0.00000  Uiso   1.00
O963   O     0.42324   0.03758   0.72254   0.00000  Uiso   1.00
H964   H     0.42816   0.05066   0.74980   0.00000  Uiso   1.00
O965   O     0.43476   0.11558   0.80806   0.00000  Uiso   1.00
H966   H     0.45206   0.09943   0.82681   0.00000  Uiso   1.00
O967   O     0.55912   0.22082   0.69201   0.00000  Uiso   1.00
H968   H     0.59282   0.21811   0.69269   0.00000  Uiso   1.00
O969   O     0.70625   0.10655   0.75000   0.00000  Uiso   1.00
O970   O     0.96042   0.22678   0.75000   0.00000  Uiso   1.00
O971   O     0.96039   0.10654   0.75001   0.00000  Uiso   1.00
O972   O     0.70628   0.22679   0.75000   0.00000  Uiso   1.00
C973   C     0.66719   0.08738   0.75024   0.00000  Uiso   1.00
C974   C     0.99963   0.24594   0.74917   0.00000  Uiso   1.00
O975   O     0.68519   0.16668   0.81492   0.00000  Uiso   1.00
O976   O     0.98148   0.16666   0.68509   0.00000  Uiso   1.00
O977   O     0.93933   0.16667   0.81492   0.00000  Uiso   1.00
O978   O     0.72733   0.16667   0.68508   0.00000  Uiso   1.00
C979   C     0.97255   0.16858   0.83618   0.00000  Uiso   1.00
C980   C     0.69420   0.16545   0.66343   0.00000  Uiso   1.00
Cu981  Cu    0.71355   0.16667   0.75000   0.00000  Uiso   1.00
Cu982  Cu    0.95311   0.16666   0.75000   0.00000  Uiso   1.00
C983   C     0.95646   0.17986   0.88427   0.00000  Uiso   1.00
C984   C     0.70956   0.16103   0.61321   0.00000  Uiso   1.00
C985   C     0.95465   0.22871   0.94377   0.00000  Uiso   1.00
C986   C     0.69746   0.13092   0.54476   0.00000  Uiso   1.00
C987   C     0.97715   0.21317   0.90011   0.00000  Uiso   1.00
C988   C     0.67895   0.14225   0.59077   0.00000  Uiso   1.00
C989   C     0.91423   0.16237   0.91175   0.00000  Uiso   1.00
C990   C     0.75653   0.17251   0.58806   0.00000  Uiso   1.00
C991   C     0.88466   0.18504   0.94861   0.00000  Uiso   1.00
C992   C     0.77000   0.17109   0.53987   0.00000  Uiso   1.00
C993   C     0.90625   0.21764   0.96590   0.00000  Uiso   1.00
C994   C     0.74251   0.14658   0.51863   0.00000  Uiso   1.00
C995   C     0.83482   0.17592   0.96905   0.00000  Uiso   1.00
C996   C     0.81228   0.19089   0.51283   0.00000  Uiso   1.00
C997   C     0.83172   0.22642   0.52711   0.00000  Uiso   1.00
C998   C     0.80575   0.15402   0.94683   0.00000  Uiso   1.00
C999   C     0.87825   0.23951   0.50383   0.00000  Uiso   1.00
C1000  C     0.76059   0.13890   0.97157   0.00000  Uiso   1.00
C1001  C     0.95691   0.02262   0.76437   0.00000  Uiso   1.00
C1002  C     0.70998   0.31070   0.73436   0.00000  Uiso   1.00
H1003  H     0.92304   0.03981   0.77612   0.00000  Uiso   1.00
H1004  H     0.74384   0.29346   0.72279   0.00000  Uiso   1.00
C1005  C     0.95509   0.31364   0.76253   0.00000  Uiso   1.00
C1006  C     0.71181   0.01970   0.73629   0.00000  Uiso   1.00
C1007  C     0.99884   0.29062   0.74803   0.00000  Uiso   1.00
C1008  C     0.66805   0.04271   0.75077   0.00000  Uiso   1.00
C1009  C     0.85059   0.14107   0.77855   0.00000  Uiso   1.00
C1010  C     0.81553   0.19227   0.72184   0.00000  Uiso   1.00
H1011  H     0.86359   0.12072   0.80123   0.00000  Uiso   1.00
H1012  H     0.80250   0.21282   0.69933   0.00000  Uiso   1.00
C1013  C     0.80059   0.14105   0.77888   0.00000  Uiso   1.00
C1014  C     0.86467   0.19276   0.72160   0.00000  Uiso   1.00
N1015  N     0.78403   0.16668   0.74999   0.00000  Uiso   1.00
N1016  N     0.88264   0.16666   0.75001   0.00000  Uiso   1.00
O1017  O     0.89592   0.27409   0.51892   0.00000  Uiso   1.00
C1018  C     0.88346   0.30884   0.99583   0.00000  Uiso   1.00
H1019  H     0.84339   0.31328   0.50374   0.00000  Uiso   1.00
H1020  H     0.89958   0.30679   0.95846   0.00000  Uiso   1.00
H1021  H     0.89831   0.00316   0.50736   0.00000  Uiso   1.00
O1022  O     0.73637   0.11363   0.94969   0.00000  Uiso   1.00
C1023  C     0.70673   0.13817   0.92940   0.00000  Uiso   1.00
H1024  H     0.68604   0.11767   0.91337   0.00000  Uiso   1.00
H1025  H     0.72870   0.15856   0.90224   0.00000  Uiso   1.00
H1026  H     0.67997   0.15667   0.95513   0.00000  Uiso   1.00
O1027  O     0.78941   0.18315   0.61132   0.00000  Uiso   1.00
H1028  H     0.82226   0.17390   0.59366   0.00000  Uiso   1.00
O1029  O     0.90383   0.12296   0.90201   0.00000  Uiso   1.00
H1030  H     0.88511   0.10960   0.93065   0.00000  Uiso   1.00
O1031  O     0.96604   0.13086   0.61509   0.00000  Uiso   1.00
C1032  C     0.93224   0.15843   0.60378   0.00000  Uiso   1.00
H1033  H     0.94030   0.19095   0.60907   0.00000  Uiso   1.00
H1034  H     0.89561   0.15181   0.62633   0.00000  Uiso   1.00
H1035  H     0.93092   0.15450   0.56817   0.00000  Uiso   1.00
O1036  O     0.68659   0.22954   0.87327   0.00000  Uiso   1.00
C1037  C     0.67649   0.26880   0.85722   0.00000  Uiso   1.00
H1038  H     0.97810   0.26859   0.84285   0.00000  Uiso   1.00
H1039  H     0.70853   0.27859   0.82973   0.00000  Uiso   1.00
H1040  H     0.67015   0.29196   0.88440   0.00000  Uiso   1.00
O1041  O     0.97861   0.25531   0.96441   0.00000  Uiso   1.00
H1042  H     0.68053   0.25396   0.94896   0.00000  Uiso   1.00
O1043  O     0.67196   0.10491   0.52497   0.00000  Uiso   1.00
H1044  H     0.97933   0.09135   0.54868   0.00000  Uiso   1.00
O1045  O     0.80490   0.25132   0.56128   0.00000  Uiso   1.00
H1046  H     0.77008   0.24877   0.56285   0.00000  Uiso   1.00
O1047  O     0.81810   0.14970   0.90030   0.00000  Uiso   1.00
H1048  H     0.83647   0.17423   0.88611   0.00000  Uiso   1.00
O1049  O     0.91035   0.29575   0.77672   0.00000  Uiso   1.00
H1050  H     0.90513   0.28261   0.74962   0.00000  Uiso   1.00
O1051  O     0.75657   0.03758   0.72254   0.00000  Uiso   1.00
H1052  H     0.76149   0.05066   0.74980   0.00000  Uiso   1.00
O1053  O     0.76809   0.11558   0.80806   0.00000  Uiso   1.00
H1054  H     0.78539   0.09943   0.82681   0.00000  Uiso   1.00
O1055  O     0.89245   0.22082   0.69201   0.00000  Uiso   1.00
H1056  H     0.92615   0.21811   0.69269   0.00000  Uiso   1.00
O1057  O     0.03958   0.43989   0.75000   0.00000  Uiso   1.00
O1058  O     0.29375   0.56011   0.75000   0.00000  Uiso   1.00
O1059  O     0.29372   0.43988   0.75001   0.00000  Uiso   1.00
O1060  O     0.03961   0.56012   0.75000   0.00000  Uiso   1.00
C1061  C     0.00052   0.42071   0.75024   0.00000  Uiso   1.00
C1062  C     0.33297   0.57928   0.74917   0.00000  Uiso   1.00
O1063  O     0.01852   0.50001   0.81492   0.00000  Uiso   1.00
O1064  O     0.31481   0.49999   0.68509   0.00000  Uiso   1.00
O1065  O     0.27267   0.50000   0.81492   0.00000  Uiso   1.00
O1066  O     0.06067   0.50000   0.68508   0.00000  Uiso   1.00
C1067  C     0.30588   0.50192   0.83618   0.00000  Uiso   1.00
C1068  C     0.02754   0.49878   0.66343   0.00000  Uiso   1.00
Cu1069 Cu    0.04689   0.50001   0.75000   0.00000  Uiso   1.00
Cu1070 Cu    0.28645   0.49999   0.75000   0.00000  Uiso   1.00
C1071  C     0.28979   0.51319   0.88427   0.00000  Uiso   1.00
C1072  C     0.04290   0.49436   0.61321   0.00000  Uiso   1.00
C1073  C     0.28799   0.56204   0.94377   0.00000  Uiso   1.00
C1074  C     0.03080   0.46426   0.54476   0.00000  Uiso   1.00
C1075  C     0.31048   0.54650   0.90011   0.00000  Uiso   1.00
C1076  C     0.01229   0.47559   0.59077   0.00000  Uiso   1.00
C1077  C     0.24757   0.49570   0.91175   0.00000  Uiso   1.00
C1078  C     0.08986   0.50584   0.58806   0.00000  Uiso   1.00
C1079  C     0.21800   0.51838   0.94861   0.00000  Uiso   1.00
C1080  C     0.10333   0.50442   0.53987   0.00000  Uiso   1.00
C1081  C     0.23958   0.55097   0.96590   0.00000  Uiso   1.00
C1082  C     0.07585   0.47992   0.51863   0.00000  Uiso   1.00
C1083  C     0.16816   0.50925   0.96905   0.00000  Uiso   1.00
C1084  C     0.14561   0.52422   0.51283   0.00000  Uiso   1.00
C1085  C     0.16505   0.55975   0.52711   0.00000  Uiso   1.00
C1086  C     0.13909   0.48736   0.94683   0.00000  Uiso   1.00
C1087  C     0.21158   0.57284   0.50383   0.00000  Uiso   1.00
C1088  C     0.09392   0.47223   0.97157   0.00000  Uiso   1.00
C1089  C     0.29024   0.35595   0.76437   0.00000  Uiso   1.00
C1090  C     0.04332   0.64403   0.73436   0.00000  Uiso   1.00
H1091  H     0.25638   0.37315   0.77612   0.00000  Uiso   1.00
H1092  H     0.07717   0.62679   0.72279   0.00000  Uiso   1.00
C1093  C     0.28842   0.64697   0.76253   0.00000  Uiso   1.00
C1094  C     0.04514   0.35303   0.73629   0.00000  Uiso   1.00
C1095  C     0.33217   0.62395   0.74803   0.00000  Uiso   1.00
C1096  C     0.00138   0.37604   0.75077   0.00000  Uiso   1.00
C1097  C     0.18393   0.47440   0.77855   0.00000  Uiso   1.00
C1098  C     0.14886   0.52560   0.72184   0.00000  Uiso   1.00
H1099  H     0.19692   0.45405   0.80123   0.00000  Uiso   1.00
H1100  H     0.13584   0.54615   0.69933   0.00000  Uiso   1.00
C1101  C     0.13393   0.47438   0.77888   0.00000  Uiso   1.00
C1102  C     0.19800   0.52609   0.72160   0.00000  Uiso   1.00
N1103  N     0.11736   0.50001   0.74999   0.00000  Uiso   1.00
N1104  N     0.21597   0.49999   0.75001   0.00000  Uiso   1.00
O1105  O     0.22925   0.60742   0.51892   0.00000  Uiso   1.00
C1106  C     0.21680   0.64217   0.99583   0.00000  Uiso   1.00
H1107  H     0.17673   0.64661   0.50374   0.00000  Uiso   1.00
H1108  H     0.23291   0.64013   0.95846   0.00000  Uiso   1.00
H1109  H     0.23164   0.33649   0.50736   0.00000  Uiso   1.00
O1110  O     0.06970   0.44696   0.94969   0.00000  Uiso   1.00
C1111  C     0.04006   0.47151   0.92940   0.00000  Uiso   1.00
H1112  H     0.01937   0.45101   0.91337   0.00000  Uiso   1.00
H1113  H     0.06203   0.49189   0.90224   0.00000  Uiso   1.00
H1114  H     0.01331   0.49001   0.95513   0.00000  Uiso   1.00
O1115  O     0.12275   0.51648   0.61132   0.00000  Uiso   1.00
H1116  H     0.15559   0.50724   0.59366   0.00000  Uiso   1.00
O1117  O     0.23717   0.45629   0.90201   0.00000  Uiso   1.00
H1118  H     0.21844   0.44293   0.93065   0.00000  Uiso   1.00
O1119  O     0.29937   0.46420   0.61509   0.00000  Uiso   1.00
C1120  C     0.26557   0.49177   0.60378   0.00000  Uiso   1.00
H1121  H     0.27363   0.52429   0.60907   0.00000  Uiso   1.00
H1122  H     0.22894   0.48514   0.62633   0.00000  Uiso   1.00
H1123  H     0.26425   0.48784   0.56817   0.00000  Uiso   1.00
O1124  O     0.01993   0.56287   0.87327   0.00000  Uiso   1.00
C1125  C     0.00982   0.60213   0.85722   0.00000  Uiso   1.00
H1126  H     0.31143   0.60192   0.84285   0.00000  Uiso   1.00
H1127  H     0.04186   0.61193   0.82973   0.00000  Uiso   1.00
H1128  H     0.00349   0.62529   0.88440   0.00000  Uiso   1.00
O1129  O     0.31194   0.58864   0.96441   0.00000  Uiso   1.00
H1130  H     0.01386   0.58729   0.94896   0.00000  Uiso   1.00
O1131  O     0.00529   0.43824   0.52497   0.00000  Uiso   1.00
H1132  H     0.31266   0.42468   0.54868   0.00000  Uiso   1.00
O1133  O     0.13824   0.58465   0.56128   0.00000  Uiso   1.00
H1134  H     0.10341   0.58210   0.56285   0.00000  Uiso   1.00
O1135  O     0.15143   0.48303   0.90030   0.00000  Uiso   1.00
H1136  H     0.16980   0.50756   0.88611   0.00000  Uiso   1.00
O1137  O     0.24369   0.62909   0.77672   0.00000  Uiso   1.00
H1138  H     0.23847   0.61594   0.74962   0.00000  Uiso   1.00
O1139  O     0.08991   0.37091   0.72254   0.00000  Uiso   1.00
H1140  H     0.09483   0.38400   0.74980   0.00000  Uiso   1.00
O1141  O     0.10143   0.44891   0.80806   0.00000  Uiso   1.00
H1142  H     0.11873   0.43276   0.82681   0.00000  Uiso   1.00
O1143  O     0.22578   0.55415   0.69201   0.00000  Uiso   1.00
H1144  H     0.25948   0.55144   0.69269   0.00000  Uiso   1.00
O1145  O     0.37291   0.43989   0.75000   0.00000  Uiso   1.00
O1146  O     0.62709   0.56011   0.75000   0.00000  Uiso   1.00
O1147  O     0.62706   0.43988   0.75001   0.00000  Uiso   1.00
O1148  O     0.37294   0.56012   0.75000   0.00000  Uiso   1.00
C1149  C     0.33386   0.42071   0.75024   0.00000  Uiso   1.00
C1150  C     0.66630   0.57928   0.74917   0.00000  Uiso   1.00
O1151  O     0.35186   0.50001   0.81492   0.00000  Uiso   1.00
O1152  O     0.64814   0.49999   0.68509   0.00000  Uiso   1.00
O1153  O     0.60600   0.50000   0.81492   0.00000  Uiso   1.00
O1154  O     0.39400   0.50000   0.68508   0.00000  Uiso   1.00
C1155  C     0.63922   0.50192   0.83618   0.00000  Uiso   1.00
C1156  C     0.36087   0.49878   0.66343   0.00000  Uiso   1.00
Cu1157 Cu    0.38022   0.50001   0.75000   0.00000  Uiso   1.00
Cu1158 Cu    0.61978   0.49999   0.75000   0.00000  Uiso   1.00
C1159  C     0.62313   0.51319   0.88427   0.00000  Uiso   1.00
C1160  C     0.37623   0.49436   0.61321   0.00000  Uiso   1.00
C1161  C     0.62132   0.56204   0.94377   0.00000  Uiso   1.00
C1162  C     0.36413   0.46426   0.54476   0.00000  Uiso   1.00
C1163  C     0.64381   0.54650   0.90011   0.00000  Uiso   1.00
C1164  C     0.34562   0.47559   0.59077   0.00000  Uiso   1.00
C1165  C     0.58090   0.49570   0.91175   0.00000  Uiso   1.00
C1166  C     0.42319   0.50584   0.58806   0.00000  Uiso   1.00
C1167  C     0.55133   0.51838   0.94861   0.00000  Uiso   1.00
C1168  C     0.43666   0.50442   0.53987   0.00000  Uiso   1.00
C1169  C     0.57292   0.55097   0.96590   0.00000  Uiso   1.00
C1170  C     0.40918   0.47992   0.51863   0.00000  Uiso   1.00
C1171  C     0.50149   0.50925   0.96905   0.00000  Uiso   1.00
C1172  C     0.47894   0.52422   0.51283   0.00000  Uiso   1.00
C1173  C     0.49839   0.55975   0.52711   0.00000  Uiso   1.00
C1174  C     0.47242   0.48736   0.94683   0.00000  Uiso   1.00
C1175  C     0.54491   0.57284   0.50383   0.00000  Uiso   1.00
C1176  C     0.42725   0.47223   0.97157   0.00000  Uiso   1.00
C1177  C     0.62357   0.35595   0.76437   0.00000  Uiso   1.00
C1178  C     0.37665   0.64403   0.73436   0.00000  Uiso   1.00
H1179  H     0.58971   0.37315   0.77612   0.00000  Uiso   1.00
H1180  H     0.41050   0.62679   0.72279   0.00000  Uiso   1.00
C1181  C     0.62175   0.64697   0.76253   0.00000  Uiso   1.00
C1182  C     0.37848   0.35303   0.73629   0.00000  Uiso   1.00
C1183  C     0.66550   0.62395   0.74803   0.00000  Uiso   1.00
C1184  C     0.33472   0.37604   0.75077   0.00000  Uiso   1.00
C1185  C     0.51726   0.47440   0.77855   0.00000  Uiso   1.00
C1186  C     0.48220   0.52560   0.72184   0.00000  Uiso   1.00
H1187  H     0.53026   0.45405   0.80123   0.00000  Uiso   1.00
H1188  H     0.46917   0.54615   0.69933   0.00000  Uiso   1.00
C1189  C     0.46726   0.47438   0.77888   0.00000  Uiso   1.00
C1190  C     0.53133   0.52609   0.72160   0.00000  Uiso   1.00
N1191  N     0.45069   0.50001   0.74999   0.00000  Uiso   1.00
N1192  N     0.54931   0.49999   0.75001   0.00000  Uiso   1.00
O1193  O     0.56259   0.60742   0.51892   0.00000  Uiso   1.00
C1194  C     0.55013   0.64217   0.99583   0.00000  Uiso   1.00
H1195  H     0.51006   0.64661   0.50374   0.00000  Uiso   1.00
H1196  H     0.56625   0.64013   0.95846   0.00000  Uiso   1.00
H1197  H     0.56497   0.33649   0.50736   0.00000  Uiso   1.00
O1198  O     0.40303   0.44696   0.94969   0.00000  Uiso   1.00
C1199  C     0.37340   0.47151   0.92940   0.00000  Uiso   1.00
H1200  H     0.35271   0.45101   0.91337   0.00000  Uiso   1.00
H1201  H     0.39536   0.49189   0.90224   0.00000  Uiso   1.00
H1202  H     0.34664   0.49001   0.95513   0.00000  Uiso   1.00
O1203  O     0.45608   0.51648   0.61132   0.00000  Uiso   1.00
H1204  H     0.48892   0.50724   0.59366   0.00000  Uiso   1.00
O1205  O     0.57050   0.45629   0.90201   0.00000  Uiso   1.00
H1206  H     0.55178   0.44293   0.93065   0.00000  Uiso   1.00
O1207  O     0.63271   0.46420   0.61509   0.00000  Uiso   1.00
C1208  C     0.59890   0.49177   0.60378   0.00000  Uiso   1.00
H1209  H     0.60697   0.52429   0.60907   0.00000  Uiso   1.00
H1210  H     0.56227   0.48514   0.62633   0.00000  Uiso   1.00
H1211  H     0.59759   0.48784   0.56817   0.00000  Uiso   1.00
O1212  O     0.35326   0.56287   0.87327   0.00000  Uiso   1.00
C1213  C     0.34315   0.60213   0.85722   0.00000  Uiso   1.00
H1214  H     0.64477   0.60192   0.84285   0.00000  Uiso   1.00
H1215  H     0.37519   0.61193   0.82973   0.00000  Uiso   1.00
H1216  H     0.33682   0.62529   0.88440   0.00000  Uiso   1.00
O1217  O     0.64528   0.58864   0.96441   0.00000  Uiso   1.00
H1218  H     0.34720   0.58729   0.94896   0.00000  Uiso   1.00
O1219  O     0.33863   0.43824   0.52497   0.00000  Uiso   1.00
H1220  H     0.64599   0.42468   0.54868   0.00000  Uiso   1.00
O1221  O     0.47157   0.58465   0.56128   0.00000  Uiso   1.00
H1222  H     0.43675   0.58210   0.56285   0.00000  Uiso   1.00
O1223  O     0.48477   0.48303   0.90030   0.00000  Uiso   1.00
H1224  H     0.50313   0.50756   0.88611   0.00000  Uiso   1.00
O1225  O     0.57702   0.62909   0.77672   0.00000  Uiso   1.00
H1226  H     0.57180   0.61594   0.74962   0.00000  Uiso   1.00
O1227  O     0.42324   0.37091   0.72254   0.00000  Uiso   1.00
H1228  H     0.42816   0.38400   0.74980   0.00000  Uiso   1.00
O1229  O     0.43476   0.44891   0.80806   0.00000  Uiso   1.00
H1230  H     0.45206   0.43276   0.82681   0.00000  Uiso   1.00
O1231  O     0.55912   0.55415   0.69201   0.00000  Uiso   1.00
H1232  H     0.59282   0.55144   0.69269   0.00000  Uiso   1.00
O1233  O     0.70625   0.43989   0.75000   0.00000  Uiso   1.00
O1234  O     0.96042   0.56011   0.75000   0.00000  Uiso   1.00
O1235  O     0.96039   0.43988   0.75001   0.00000  Uiso   1.00
O1236  O     0.70628   0.56012   0.75000   0.00000  Uiso   1.00
C1237  C     0.66719   0.42071   0.75024   0.00000  Uiso   1.00
C1238  C     0.99963   0.57928   0.74917   0.00000  Uiso   1.00
O1239  O     0.68519   0.50001   0.81492   0.00000  Uiso   1.00
O1240  O     0.98148   0.49999   0.68509   0.00000  Uiso   1.00
O1241  O     0.93933   0.50000   0.81492   0.00000  Uiso   1.00
O1242  O     0.72733   0.50000   0.68508   0.00000  Uiso   1.00
C1243  C     0.97255   0.50192   0.83618   0.00000  Uiso   1.00
C1244  C     0.69420   0.49878   0.66343   0.00000  Uiso   1.00
Cu1245 Cu    0.71355   0.50001   0.75000   0.00000  Uiso   1.00
Cu1246 Cu    0.95311   0.49999   0.75000   0.00000  Uiso   1.00
C1247  C     0.95646   0.51319   0.88427   0.00000  Uiso   1.00
C1248  C     0.70956   0.49436   0.61321   0.00000  Uiso   1.00
C1249  C     0.95465   0.56204   0.94377   0.00000  Uiso   1.00
C1250  C     0.69746   0.46426   0.54476   0.00000  Uiso   1.00
C1251  C     0.97715   0.54650   0.90011   0.00000  Uiso   1.00
C1252  C     0.67895   0.47559   0.59077   0.00000  Uiso   1.00
C1253  C     0.91423   0.49570   0.91175   0.00000  Uiso   1.00
C1254  C     0.75653   0.50584   0.58806   0.00000  Uiso   1.00
C1255  C     0.88466   0.51838   0.94861   0.00000  Uiso   1.00
C1256  C     0.77000   0.50442   0.53987   0.00000  Uiso   1.00
C1257  C     0.90625   0.55097   0.96590   0.00000  Uiso   1.00
C1258  C     0.74251   0.47992   0.51863   0.00000  Uiso   1.00
C1259  C     0.83482   0.50925   0.96905   0.00000  Uiso   1.00
C1260  C     0.81228   0.52422   0.51283   0.00000  Uiso   1.00
C1261  C     0.83172   0.55975   0.52711   0.00000  Uiso   1.00
C1262  C     0.80575   0.48736   0.94683   0.00000  Uiso   1.00
C1263  C     0.87825   0.57284   0.50383   0.00000  Uiso   1.00
C1264  C     0.76059   0.47223   0.97157   0.00000  Uiso   1.00
C1265  C     0.95691   0.35595   0.76437   0.00000  Uiso   1.00
C1266  C     0.70998   0.64403   0.73436   0.00000  Uiso   1.00
H1267  H     0.92304   0.37315   0.77612   0.00000  Uiso   1.00
H1268  H     0.74384   0.62679   0.72279   0.00000  Uiso   1.00
C1269  C     0.95509   0.64697   0.76253   0.00000  Uiso   1.00
C1270  C     0.71181   0.35303   0.73629   0.00000  Uiso   1.00
C1271  C     0.99884   0.62395   0.74803   0.00000  Uiso   1.00
C1272  C     0.66805   0.37604   0.75077   0.00000  Uiso   1.00
C1273  C     0.85059   0.47440   0.77855   0.00000  Uiso   1.00
C1274  C     0.81553   0.52560   0.72184   0.00000  Uiso   1.00
H1275  H     0.86359   0.45405   0.80123   0.00000  Uiso   1.00
H1276  H     0.80250   0.54615   0.69933   0.00000  Uiso   1.00
C1277  C     0.80059   0.47438   0.77888   0.00000  Uiso   1.00
C1278  C     0.86467   0.52609   0.72160   0.00000  Uiso   1.00
N1279  N     0.78403   0.50001   0.74999   0.00000  Uiso   1.00
N1280  N     0.88264   0.49999   0.75001   0.00000  Uiso   1.00
O1281  O     0.89592   0.60742   0.51892   0.00000  Uiso   1.00
C1282  C     0.88346   0.64217   0.99583   0.00000  Uiso   1.00
H1283  H     0.84339   0.64661   0.50374   0.00000  Uiso   1.00
H1284  H     0.89958   0.64013   0.95846   0.00000  Uiso   1.00
H1285  H     0.89831   0.33649   0.50736   0.00000  Uiso   1.00
O1286  O     0.73637   0.44696   0.94969   0.00000  Uiso   1.00
C1287  C     0.70673   0.47151   0.92940   0.00000  Uiso   1.00
H1288  H     0.68604   0.45101   0.91337   0.00000  Uiso   1.00
H1289  H     0.72870   0.49189   0.90224   0.00000  Uiso   1.00
H1290  H     0.67997   0.49001   0.95513   0.00000  Uiso   1.00
O1291  O     0.78941   0.51648   0.61132   0.00000  Uiso   1.00
H1292  H     0.82226   0.50724   0.59366   0.00000  Uiso   1.00
O1293  O     0.90383   0.45629   0.90201   0.00000  Uiso   1.00
H1294  H     0.88511   0.44293   0.93065   0.00000  Uiso   1.00
O1295  O     0.96604   0.46420   0.61509   0.00000  Uiso   1.00
C1296  C     0.93224   0.49177   0.60378   0.00000  Uiso   1.00
H1297  H     0.94030   0.52429   0.60907   0.00000  Uiso   1.00
H1298  H     0.89561   0.48514   0.62633   0.00000  Uiso   1.00
H1299  H     0.93092   0.48784   0.56817   0.00000  Uiso   1.00
O1300  O     0.68659   0.56287   0.87327   0.00000  Uiso   1.00
C1301  C     0.67649   0.60213   0.85722   0.00000  Uiso   1.00
H1302  H     0.97810   0.60192   0.84285   0.00000  Uiso   1.00
H1303  H     0.70853   0.61193   0.82973   0.00000  Uiso   1.00
H1304  H     0.67015   0.62529   0.88440   0.00000  Uiso   1.00
O1305  O     0.97861   0.58864   0.96441   0.00000  Uiso   1.00
H1306  H     0.68053   0.58729   0.94896   0.00000  Uiso   1.00
O1307  O     0.67196   0.43824   0.52497   0.00000  Uiso   1.00
H1308  H     0.97933   0.42468   0.54868   0.00000  Uiso   1.00
O1309  O     0.80490   0.58465   0.56128   0.00000  Uiso   1.00
H1310  H     0.77008   0.58210   0.56285   0.00000  Uiso   1.00
O1311  O     0.81810   0.48303   0.90030   0.00000  Uiso   1.00
H1312  H     0.83647   0.50756   0.88611   0.00000  Uiso   1.00
O1313  O     0.91035   0.62909   0.77672   0.00000  Uiso   1.00
H1314  H     0.90513   0.61594   0.74962   0.00000  Uiso   1.00
O1315  O     0.75657   0.37091   0.72254   0.00000  Uiso   1.00
H1316  H     0.76149   0.38400   0.74980   0.00000  Uiso   1.00
O1317  O     0.76809   0.44891   0.80806   0.00000  Uiso   1.00
H1318  H     0.78539   0.43276   0.82681   0.00000  Uiso   1.00
O1319  O     0.89245   0.55415   0.69201   0.00000  Uiso   1.00
H1320  H     0.92615   0.55144   0.69269   0.00000  Uiso   1.00
O1321  O     0.03958   0.77322   0.75000   0.00000  Uiso   1.00
O1322  O     0.29375   0.89345   0.75000   0.00000  Uiso   1.00
O1323  O     0.29372   0.77321   0.75001   0.00000  Uiso   1.00
O1324  O     0.03961   0.89346   0.75000   0.00000  Uiso   1.00
C1325  C     0.00052   0.75405   0.75024   0.00000  Uiso   1.00
C1326  C     0.33297   0.91261   0.74917   0.00000  Uiso   1.00
O1327  O     0.01852   0.83334   0.81492   0.00000  Uiso   1.00
O1328  O     0.31481   0.83332   0.68509   0.00000  Uiso   1.00
O1329  O     0.27267   0.83333   0.81492   0.00000  Uiso   1.00
O1330  O     0.06067   0.83333   0.68508   0.00000  Uiso   1.00
C1331  C     0.30588   0.83525   0.83618   0.00000  Uiso   1.00
C1332  C     0.02754   0.83212   0.66343   0.00000  Uiso   1.00
Cu1333 Cu    0.04689   0.83334   0.75000   0.00000  Uiso   1.00
Cu1334 Cu    0.28645   0.83333   0.75000   0.00000  Uiso   1.00
C1335  C     0.28979   0.84653   0.88427   0.00000  Uiso   1.00
C1336  C     0.04290   0.82769   0.61321   0.00000  Uiso   1.00
C1337  C     0.28799   0.89538   0.94377   0.00000  Uiso   1.00
C1338  C     0.03080   0.79759   0.54476   0.00000  Uiso   1.00
C1339  C     0.31048   0.87984   0.90011   0.00000  Uiso   1.00
C1340  C     0.01229   0.80892   0.59077   0.00000  Uiso   1.00
C1341  C     0.24757   0.82904   0.91175   0.00000  Uiso   1.00
C1342  C     0.08986   0.83918   0.58806   0.00000  Uiso   1.00
C1343  C     0.21800   0.85171   0.94861   0.00000  Uiso   1.00
C1344  C     0.10333   0.83776   0.53987   0.00000  Uiso   1.00
C1345  C     0.23958   0.88431   0.96590   0.00000  Uiso   1.00
C1346  C     0.07585   0.81325   0.51863   0.00000  Uiso   1.00
C1347  C     0.16816   0.84259   0.96905   0.00000  Uiso   1.00
C1348  C     0.14561   0.85756   0.51283   0.00000  Uiso   1.00
C1349  C     0.16505   0.89309   0.52711   0.00000  Uiso   1.00
C1350  C     0.13909   0.82069   0.94683   0.00000  Uiso   1.00
C1351  C     0.21158   0.90617   0.50383   0.00000  Uiso   1.00
C1352  C     0.09392   0.80557   0.97157   0.00000  Uiso   1.00
C1353  C     0.29024   0.68928   0.76437   0.00000  Uiso   1.00
C1354  C     0.04332   0.97737   0.73436   0.00000  Uiso   1.00
H1355  H     0.25638   0.70648   0.77612   0.00000  Uiso   1.00
H1356  H     0.07717   0.96013   0.72279   0.00000  Uiso   1.00
C1357  C     0.28842   0.98030   0.76253   0.00000  Uiso   1.00
C1358  C     0.04514   0.68636   0.73629   0.00000  Uiso   1.00
C1359  C     0.33217   0.95729   0.74803   0.00000  Uiso   1.00
C1360  C     0.00138   0.70938   0.75077   0.00000  Uiso   1.00
C1361  C     0.18393   0.80774   0.77855   0.00000  Uiso   1.00
C1362  C     0.14886   0.85893   0.72184   0.00000  Uiso   1.00
H1363  H     0.19692   0.78738   0.80123   0.00000  Uiso   1.00
H1364  H     0.13584   0.87948   0.69933   0.00000  Uiso   1.00
C1365  C     0.13393   0.80772   0.77888   0.00000  Uiso   1.00
C1366  C     0.19800   0.85943   0.72160   0.00000  Uiso   1.00
N1367  N     0.11736   0.83334   0.74999   0.00000  Uiso   1.00
N1368  N     0.21597   0.83332   0.75001   0.00000  Uiso   1.00
O1369  O     0.22925   0.94075   0.51892   0.00000  Uiso   1.00
C1370  C     0.21680   0.97551   0.99583   0.00000  Uiso   1.00
H1371  H     0.17673   0.97995   0.50374   0.00000  Uiso   1.00
H1372  H     0.23291   0.97346   0.95846   0.00000  Uiso   1.00
H1373  H     0.23164   0.66983   0.50736   0.00000  Uiso   1.00
O1374  O     0.06970   0.78030   0.94969   0.00000  Uiso   1.00
C1375  C     0.04006   0.80484   0.92940   0.00000  Uiso   1.00
H1376  H     0.01937   0.78434   0.91337   0.00000  Uiso   1.00
H1377  H     0.06203   0.82523   0.90224   0.00000  Uiso   1.00
H1378  H     0.01331   0.82334   0.95513   0.00000  Uiso   1.00
O1379  O     0.12275   0.84982   0.61132   0.00000  Uiso   1.00
H1380  H     0.15559   0.84057   0.59366   0.00000  Uiso   1.00
O1381  O     0.23717   0.78962   0.90201   0.00000  Uiso   1.00
H1382  H     0.21844   0.77626   0.93065   0.00000  Uiso   1.00
O1383  O     0.29937   0.79753   0.61509   0.00000  Uiso   1.00
C1384  C     0.26557   0.82510   0.60378   0.00000  Uiso   1.00
H1385  H     0.27363   0.85762   0.60907   0.00000  Uiso   1.00
H1386  H     0.22894   0.81847   0.62633   0.00000  Uiso   1.00
H1387  H     0.26425   0.82117   0.56817   0.00000  Uiso   1.00
O1388  O     0.01993   0.89620   0.87327   0.00000  Uiso   1.00
C1389  C     0.00982   0.93547   0.85722   0.00000  Uiso   1.00
H1390  H     0.31143   0.93526   0.84285   0.00000  Uiso   1.00
H1391  H     0.04186   0.94526   0.82973   0.00000  Uiso   1.00
H1392  H     0.00349   0.95862   0.88440   0.00000  Uiso   1.00
O1393  O     0.31194   0.92198   0.96441   0.00000  Uiso   1.00
H1394  H     0.01386   0.92063   0.94896   0.00000  Uiso   1.00
O1395  O     0.00529   0.77157   0.52497   0.00000  Uiso   1.00
H1396  H     0.31266   0.75801   0.54868   0.00000  Uiso   1.00
O1397  O     0.13824   0.91798   0.56128   0.00000  Uiso   1.00
H1398  H     0.10341   0.91544   0.56285   0.00000  Uiso   1.00
O1399  O     0.15143   0.81636   0.90030   0.00000  Uiso   1.00
H1400  H     0.16980   0.84090   0.88611   0.00000  Uiso   1.00
O1401  O     0.24369   0.96242   0.77672   0.00000  Uiso   1.00
H1402  H     0.23847   0.94928   0.74962   0.00000  Uiso   1.00
O1403  O     0.08991   0.70424   0.72254   0.00000  Uiso   1.00
H1404  H     0.09483   0.71733   0.74980   0.00000  Uiso   1.00
O1405  O     0.10143   0.78225   0.80806   0.00000  Uiso   1.00
H1406  H     0.11873   0.76610   0.82681   0.00000  Uiso   1.00
O1407  O     0.22578   0.88749   0.69201   0.00000  Uiso   1.00
H1408  H     0.25948   0.88477   0.69269   0.00000  Uiso   1.00
O1409  O     0.37291   0.77322   0.75000   0.00000  Uiso   1.00
O1410  O     0.62709   0.89345   0.75000   0.00000  Uiso   1.00
O1411  O     0.62706   0.77321   0.75001   0.00000  Uiso   1.00
O1412  O     0.37294   0.89346   0.75000   0.00000  Uiso   1.00
C1413  C     0.33386   0.75405   0.75024   0.00000  Uiso   1.00
C1414  C     0.66630   0.91261   0.74917   0.00000  Uiso   1.00
O1415  O     0.35186   0.83334   0.81492   0.00000  Uiso   1.00
O1416  O     0.64814   0.83332   0.68509   0.00000  Uiso   1.00
O1417  O     0.60600   0.83333   0.81492   0.00000  Uiso   1.00
O1418  O     0.39400   0.83333   0.68508   0.00000  Uiso   1.00
C1419  C     0.63922   0.83525   0.83618   0.00000  Uiso   1.00
C1420  C     0.36087   0.83212   0.66343   0.00000  Uiso   1.00
Cu1421 Cu    0.38022   0.83334   0.75000   0.00000  Uiso   1.00
Cu1422 Cu    0.61978   0.83333   0.75000   0.00000  Uiso   1.00
C1423  C     0.62313   0.84653   0.88427   0.00000  Uiso   1.00
C1424  C     0.37623   0.82769   0.61321   0.00000  Uiso   1.00
C1425  C     0.62132   0.89538   0.94377   0.00000  Uiso   1.00
C1426  C     0.36413   0.79759   0.54476   0.00000  Uiso   1.00
C1427  C     0.64381   0.87984   0.90011   0.00000  Uiso   1.00
C1428  C     0.34562   0.80892   0.59077   0.00000  Uiso   1.00
C1429  C     0.58090   0.82904   0.91175   0.00000  Uiso   1.00
C1430  C     0.42319   0.83918   0.58806   0.00000  Uiso   1.00
C1431  C     0.55133   0.85171   0.94861   0.00000  Uiso   1.00
C1432  C     0.43666   0.83776   0.53987   0.00000  Uiso   1.00
C1433  C     0.57292   0.88431   0.96590   0.00000  Uiso   1.00
C1434  C     0.40918   0.81325   0.51863   0.00000  Uiso   1.00
C1435  C     0.50149   0.84259   0.96905   0.00000  Uiso   1.00
C1436  C     0.47894   0.85756   0.51283   0.00000  Uiso   1.00
C1437  C     0.49839   0.89309   0.52711   0.00000  Uiso   1.00
C1438  C     0.47242   0.82069   0.94683   0.00000  Uiso   1.00
C1439  C     0.54491   0.90617   0.50383   0.00000  Uiso   1.00
C1440  C     0.42725   0.80557   0.97157   0.00000  Uiso   1.00
C1441  C     0.62357   0.68928   0.76437   0.00000  Uiso   1.00
C1442  C     0.37665   0.97737   0.73436   0.00000  Uiso   1.00
H1443  H     0.58971   0.70648   0.77612   0.00000  Uiso   1.00
H1444  H     0.41050   0.96013   0.72279   0.00000  Uiso   1.00
C1445  C     0.62175   0.98030   0.76253   0.00000  Uiso   1.00
C1446  C     0.37848   0.68636   0.73629   0.00000  Uiso   1.00
C1447  C     0.66550   0.95729   0.74803   0.00000  Uiso   1.00
C1448  C     0.33472   0.70938   0.75077   0.00000  Uiso   1.00
C1449  C     0.51726   0.80774   0.77855   0.00000  Uiso   1.00
C1450  C     0.48220   0.85893   0.72184   0.00000  Uiso   1.00
H1451  H     0.53026   0.78738   0.80123   0.00000  Uiso   1.00
H1452  H     0.46917   0.87948   0.69933   0.00000  Uiso   1.00
C1453  C     0.46726   0.80772   0.77888   0.00000  Uiso   1.00
C1454  C     0.53133   0.85943   0.72160   0.00000  Uiso   1.00
N1455  N     0.45069   0.83334   0.74999   0.00000  Uiso   1.00
N1456  N     0.54931   0.83332   0.75001   0.00000  Uiso   1.00
O1457  O     0.56259   0.94075   0.51892   0.00000  Uiso   1.00
C1458  C     0.55013   0.97551   0.99583   0.00000  Uiso   1.00
H1459  H     0.51006   0.97995   0.50374   0.00000  Uiso   1.00
H1460  H     0.56625   0.97346   0.95846   0.00000  Uiso   1.00
H1461  H     0.56497   0.66983   0.50736   0.00000  Uiso   1.00
O1462  O     0.40303   0.78030   0.94969   0.00000  Uiso   1.00
C1463  C     0.37340   0.80484   0.92940   0.00000  Uiso   1.00
H1464  H     0.35271   0.78434   0.91337   0.00000  Uiso   1.00
H1465  H     0.39536   0.82523   0.90224   0.00000  Uiso   1.00
H1466  H     0.34664   0.82334   0.95513   0.00000  Uiso   1.00
O1467  O     0.45608   0.84982   0.61132   0.00000  Uiso   1.00
H1468  H     0.48892   0.84057   0.59366   0.00000  Uiso   1.00
O1469  O     0.57050   0.78962   0.90201   0.00000  Uiso   1.00
H1470  H     0.55178   0.77626   0.93065   0.00000  Uiso   1.00
O1471  O     0.63271   0.79753   0.61509   0.00000  Uiso   1.00
C1472  C     0.59890   0.82510   0.60378   0.00000  Uiso   1.00
H1473  H     0.60697   0.85762   0.60907   0.00000  Uiso   1.00
H1474  H     0.56227   0.81847   0.62633   0.00000  Uiso   1.00
H1475  H     0.59759   0.82117   0.56817   0.00000  Uiso   1.00
O1476  O     0.35326   0.89620   0.87327   0.00000  Uiso   1.00
C1477  C     0.34315   0.93547   0.85722   0.00000  Uiso   1.00
H1478  H     0.64477   0.93526   0.84285   0.00000  Uiso   1.00
H1479  H     0.37519   0.94526   0.82973   0.00000  Uiso   1.00
H1480  H     0.33682   0.95862   0.88440   0.00000  Uiso   1.00
O1481  O     0.64528   0.92198   0.96441   0.00000  Uiso   1.00
H1482  H     0.34720   0.92063   0.94896   0.00000  Uiso   1.00
O1483  O     0.33863   0.77157   0.52497   0.00000  Uiso   1.00
H1484  H     0.64599   0.75801   0.54868   0.00000  Uiso   1.00
O1485  O     0.47157   0.91798   0.56128   0.00000  Uiso   1.00
H1486  H     0.43675   0.91544   0.56285   0.00000  Uiso   1.00
O1487  O     0.48477   0.81636   0.90030   0.00000  Uiso   1.00
H1488  H     0.50313   0.84090   0.88611   0.00000  Uiso   1.00
O1489  O     0.57702   0.96242   0.77672   0.00000  Uiso   1.00
H1490  H     0.57180   0.94928   0.74962   0.00000  Uiso   1.00
O1491  O     0.42324   0.70424   0.72254   0.00000  Uiso   1.00
H1492  H     0.42816   0.71733   0.74980   0.00000  Uiso   1.00
O1493  O     0.43476   0.78225   0.80806   0.00000  Uiso   1.00
H1494  H     0.45206   0.76610   0.82681   0.00000  Uiso   1.00
O1495  O     0.55912   0.88749   0.69201   0.00000  Uiso   1.00
H1496  H     0.59282   0.88477   0.69269   0.00000  Uiso   1.00
O1497  O     0.70625   0.77322   0.75000   0.00000  Uiso   1.00
O1498  O     0.96042   0.89345   0.75000   0.00000  Uiso   1.00
O1499  O     0.96039   0.77321   0.75001   0.00000  Uiso   1.00
O1500  O     0.70628   0.89346   0.75000   0.00000  Uiso   1.00
C1501  C     0.66719   0.75405   0.75024   0.00000  Uiso   1.00
C1502  C     0.99963   0.91261   0.74917   0.00000  Uiso   1.00
O1503  O     0.68519   0.83334   0.81492   0.00000  Uiso   1.00
O1504  O     0.98148   0.83332   0.68509   0.00000  Uiso   1.00
O1505  O     0.93933   0.83333   0.81492   0.00000  Uiso   1.00
O1506  O     0.72733   0.83333   0.68508   0.00000  Uiso   1.00
C1507  C     0.97255   0.83525   0.83618   0.00000  Uiso   1.00
C1508  C     0.69420   0.83212   0.66343   0.00000  Uiso   1.00
Cu1509 Cu    0.71355   0.83334   0.75000   0.00000  Uiso   1.00
Cu1510 Cu    0.95311   0.83333   0.75000   0.00000  Uiso   1.00
C1511  C     0.95646   0.84653   0.88427   0.00000  Uiso   1.00
C1512  C     0.70956   0.82769   0.61321   0.00000  Uiso   1.00
C1513  C     0.95465   0.89538   0.94377   0.00000  Uiso   1.00
C1514  C     0.69746   0.79759   0.54476   0.00000  Uiso   1.00
C1515  C     0.97715   0.87984   0.90011   0.00000  Uiso   1.00
C1516  C     0.67895   0.80892   0.59077   0.00000  Uiso   1.00
C1517  C     0.91423   0.82904   0.91175   0.00000  Uiso   1.00
C1518  C     0.75653   0.83918   0.58806   0.00000  Uiso   1.00
C1519  C     0.88466   0.85171   0.94861   0.00000  Uiso   1.00
C1520  C     0.77000   0.83776   0.53987   0.00000  Uiso   1.00
C1521  C     0.90625   0.88431   0.96590   0.00000  Uiso   1.00
C1522  C     0.74251   0.81325   0.51863   0.00000  Uiso   1.00
C1523  C     0.83482   0.84259   0.96905   0.00000  Uiso   1.00
C1524  C     0.81228   0.85756   0.51283   0.00000  Uiso   1.00
C1525  C     0.83172   0.89309   0.52711   0.00000  Uiso   1.00
C1526  C     0.80575   0.82069   0.94683   0.00000  Uiso   1.00
C1527  C     0.87825   0.90617   0.50383   0.00000  Uiso   1.00
C1528  C     0.76059   0.80557   0.97157   0.00000  Uiso   1.00
C1529  C     0.95691   0.68928   0.76437   0.00000  Uiso   1.00
C1530  C     0.70998   0.97737   0.73436   0.00000  Uiso   1.00
H1531  H     0.92304   0.70648   0.77612   0.00000  Uiso   1.00
H1532  H     0.74384   0.96013   0.72279   0.00000  Uiso   1.00
C1533  C     0.95509   0.98030   0.76253   0.00000  Uiso   1.00
C1534  C     0.71181   0.68636   0.73629   0.00000  Uiso   1.00
C1535  C     0.99884   0.95729   0.74803   0.00000  Uiso   1.00
C1536  C     0.66805   0.70938   0.75077   0.00000  Uiso   1.00
C1537  C     0.85059   0.80774   0.77855   0.00000  Uiso   1.00
C1538  C     0.81553   0.85893   0.72184   0.00000  Uiso   1.00
H1539  H     0.86359   0.78738   0.80123   0.00000  Uiso   1.00
H1540  H     0.80250   0.87948   0.69933   0.00000  Uiso   1.00
C1541  C     0.80059   0.80772   0.77888   0.00000  Uiso   1.00
C1542  C     0.86467   0.85943   0.72160   0.00000  Uiso   1.00
N1543  N     0.78403   0.83334   0.74999   0.00000  Uiso   1.00
N1544  N     0.88264   0.83332   0.75001   0.00000  Uiso   1.00
O1545  O     0.89592   0.94075   0.51892   0.00000  Uiso   1.00
C1546  C     0.88346   0.97551   0.99583   0.00000  Uiso   1.00
H1547  H     0.84339   0.97995   0.50374   0.00000  Uiso   1.00
H1548  H     0.89958   0.97346   0.95846   0.00000  Uiso   1.00
H1549  H     0.89831   0.66983   0.50736   0.00000  Uiso   1.00
O1550  O     0.73637   0.78030   0.94969   0.00000  Uiso   1.00
C1551  C     0.70673   0.80484   0.92940   0.00000  Uiso   1.00
H1552  H     0.68604   0.78434   0.91337   0.00000  Uiso   1.00
H1553  H     0.72870   0.82523   0.90224   0.00000  Uiso   1.00
H1554  H     0.67997   0.82334   0.95513   0.00000  Uiso   1.00
O1555  O     0.78941   0.84982   0.61132   0.00000  Uiso   1.00
H1556  H     0.82226   0.84057   0.59366   0.00000  Uiso   1.00
O1557  O     0.90383   0.78962   0.90201   0.00000  Uiso   1.00
H1558  H     0.88511   0.77626   0.93065   0.00000  Uiso   1.00
O1559  O     0.96604   0.79753   0.61509   0.00000  Uiso   1.00
C1560  C     0.93224   0.82510   0.60378   0.00000  Uiso   1.00
H1561  H     0.94030   0.85762   0.60907   0.00000  Uiso   1.00
H1562  H     0.89561   0.81847   0.62633   0.00000  Uiso   1.00
H1563  H     0.93092   0.82117   0.56817   0.00000  Uiso   1.00
O1564  O     0.68659   0.89620   0.87327   0.00000  Uiso   1.00
C1565  C     0.67649   0.93547   0.85722   0.00000  Uiso   1.00
H1566  H     0.97810   0.93526   0.84285   0.00000  Uiso   1.00
H1567  H     0.70853   0.94526   0.82973   0.00000  Uiso   1.00
H1568  H     0.67015   0.95862   0.88440   0.00000  Uiso   1.00
O1569  O     0.97861   0.92198   0.96441   0.00000  Uiso   1.00
H1570  H     0.68053   0.92063   0.94896   0.00000  Uiso   1.00
O1571  O     0.67196   0.77157   0.52497   0.00000  Uiso   1.00
H1572  H     0.97933   0.75801   0.54868   0.00000  Uiso   1.00
O1573  O     0.80490   0.91798   0.56128   0.00000  Uiso   1.00
H1574  H     0.77008   0.91544   0.56285   0.00000  Uiso   1.00
O1575  O     0.81810   0.81636   0.90030   0.00000  Uiso   1.00
H1576  H     0.83647   0.84090   0.88611   0.00000  Uiso   1.00
O1577  O     0.91035   0.96242   0.77672   0.00000  Uiso   1.00
H1578  H     0.90513   0.94928   0.74962   0.00000  Uiso   1.00
O1579  O     0.75657   0.70424   0.72254   0.00000  Uiso   1.00
H1580  H     0.76149   0.71733   0.74980   0.00000  Uiso   1.00
O1581  O     0.76809   0.78225   0.80806   0.00000  Uiso   1.00
H1582  H     0.78539   0.76610   0.82681   0.00000  Uiso   1.00
O1583  O     0.89245   0.88749   0.69201   0.00000  Uiso   1.00
H1584  H     0.92615   0.88477   0.69269   0.00000  Uiso   1.00
loop_
_geom_bond_atom_site_label_1
_geom_bond_atom_site_label_2
_geom_bond_distance
_geom_bond_site_symmetry_2
_ccdc_geom_bond_type
O1     C5      1.292   .     A
O1     Cu13    1.973   .     S
O2     C6      1.292   .     A
O2     Cu14    1.973   .     S
O3     Cu14    1.963   .     S
O3     C93     1.297   .     S
O4     Cu13    1.963   .     S
O4     C182    1.297   1_455 S
C5     C40     1.454   .     S
C5     O179    1.297   1_455 S
C6     C39     1.454   .     S
C6     O92     1.297   .     S
O7     Cu13    1.930   .     S
O7     C187    1.300   1_455 S
O8     Cu14    1.930   .     S
O8     C100    1.304   .     S
O9     Cu14    1.918   .     S
O9     C11     1.296   .     A
O10    C12     1.301   .     A
O10    Cu13    1.918   .     S
C11    C15     1.470   .     S
C11    O95     1.300   .     S
C12    C16     1.488   .     S
C12    O184    1.304   1_455 S
Cu13   N47     2.019   .     S
Cu13   Cu190   2.687   1_455 S
Cu14   N48     2.019   .     S
Cu14   Cu101   2.687   .     S
C15    C19     1.405   .     A
C15    C21     1.395   .     A
C16    C20     1.411   .     A
C16    C22     1.409   .     A
C17    O73     1.383   .     S
C17    C25     1.417   .     A
C17    C19     1.414   .     A
C18    O75     1.384   .     S
C18    C26     1.418   .     A
C18    C20     1.416   .     A
C19    O156    1.385   .     S
C20    O239    1.384   1_455 S
C21    O61     1.381   .     S
C21    C23     1.421   .     A
C22    O59     1.382   .     S
C22    C24     1.421   .     A
C23    C27     1.428   .     A
C23    C25     1.423   .     A
C24    C26     1.419   .     A
C24    C28     1.425   .     A
C25    C823    1.413   .     S
C26    C824    1.417   1_554 S
C27    C30     1.423   .     A
C27    C820    1.411   .     S
C28    C29     1.423   .     A
C28    C819    1.411   1_554 S
C29    O77     1.382   .     S
C29    C31     1.399   .     A
C30    O79     1.381   .     S
C30    C32     1.402   .     A
C31    O49     1.384   .     S
C31    C817    1.413   1_554 S
C32    O54     1.384   .     S
C32    C818    1.417   .     S
C33    H35     1.084   .     S
C33    C565    1.383   1_545 S
C33    C128    1.400   .     S
C34    H36     1.084   .     S
C34    C302    1.383   .     S
C34    C215    1.400   1_455 S
C37    O81     1.374   .     S
C37    C39     1.412   .     A
C37    C297    1.383   .     S
C38    C40     1.412   .     A
C38    O83     1.374   .     S
C38    C562    1.383   1_545 S
C39    C122    1.400   .     S
C40    C209    1.400   1_455 S
C41    H43     1.082   .     S
C41    N48     1.365   .     A
C41    C45     1.430   .     A
C42    C46     1.406   .     A
C42    H44     1.082   .     S
C42    N47     1.352   .     A
C45    N47     1.373   .     A
C45    O85     1.378   .     S
C46    N48     1.392   .     A
C46    O87     1.375   .     S
O49    C842    1.412   1_554 S
C50    H52     1.113   .     S
C50    O841    1.412   .     S
C50    H843    1.113   .     S
C50    H1109   1.109   .     S
H51    C842    1.113   1_554 S
H53    C1370   1.109   1_544 S
O54    C55     1.408   .     S
C55    H56     1.109   .     S
C55    H57     1.112   .     S
C55    H58     1.113   .     S
O59    H60     0.991   .     S
O61    H62     0.991   .     S
O63    C64     1.412   .     S
O63    C108    1.384   .     S
C64    H67     1.112   .     S
C64    H66     1.109   .     S
C64    H65     1.114   .     S
O68    C69     1.412   .     S
O68    C195    1.385   1_455 S
C69    H71     1.109   .     S
C69    H72     1.110   .     S
C69    H246    1.114   1_455 S
H70    C157    1.114   .     S
O73    H162    0.991   .     S
H74    O249    0.991   1_455 S
O75    H252    0.990   1_455 S
H76    O163    0.990   .     S
O77    H78     0.991   .     S
O79    H80     0.991   .     S
O81    H82     0.991   .     S
O83    H84     0.991   .     S
O85    H86     0.992   .     S
O87    H88     0.973   .     S
O89    C93     1.292   .     A
O89    Cu101   1.973   .     S
O90    C94     1.292   .     A
O90    Cu102   1.973   .     S
O91    Cu102   1.963   .     S
O91    C181    1.297   .     S
O92    Cu101   1.963   .     S
C93    C128    1.454   .     S
C94    C127    1.454   .     S
C94    O180    1.297   .     S
O95    Cu101   1.930   .     S
O96    Cu102   1.930   .     S
O96    C188    1.304   .     S
O97    Cu102   1.918   .     S
O97    C99     1.296   .     A
O98    C100    1.301   .     A
O98    Cu101   1.918   .     S
C99    C103    1.470   .     S
C99    O183    1.300   .     S
C100   C104    1.488   .     S
Cu101  N135    2.019   .     S
Cu102  N136    2.019   .     S
Cu102  Cu189   2.687   .     S
C103   C107    1.405   .     A
C103   C109    1.395   .     A
C104   C108    1.411   .     A
C104   C110    1.409   .     A
C105   O161    1.383   .     S
C105   C113    1.417   .     A
C105   C107    1.414   .     A
C106   O163    1.384   .     S
C106   C114    1.418   .     A
C106   C108    1.416   .     A
C107   O244    1.385   .     S
C109   O149    1.381   .     S
C109   C111    1.421   .     A
C110   O147    1.382   .     S
C110   C112    1.421   .     A
C111   C115    1.428   .     A
C111   C113    1.423   .     A
C112   C114    1.419   .     A
C112   C116    1.425   .     A
C113   C911    1.413   .     S
C114   C912    1.417   1_554 S
C115   C118    1.423   .     A
C115   C908    1.411   .     S
C116   C117    1.423   .     A
C116   C907    1.411   1_554 S
C117   O165    1.382   .     S
C117   C119    1.399   .     A
C118   O167    1.381   .     S
C118   C120    1.402   .     A
C119   O137    1.384   .     S
C119   C905    1.413   1_554 S
C120   O142    1.384   .     S
C120   C906    1.417   .     S
C121   H123    1.084   .     S
C121   C653    1.383   1_545 S
C121   C216    1.400   .     S
C122   H124    1.084   .     S
C122   C390    1.383   .     S
C125   O169    1.374   .     S
C125   C127    1.412   .     A
C125   C385    1.383   .     S
C126   C128    1.412   .     A
C126   O171    1.374   .     S
C126   C650    1.383   1_545 S
C127   C210    1.400   .     S
C129   H131    1.082   .     S
C129   N136    1.365   .     A
C129   C133    1.430   .     A
C130   C134    1.406   .     A
C130   H132    1.082   .     S
C130   N135    1.352   .     A
C133   N135    1.373   .     A
C133   O173    1.378   .     S
C134   N136    1.392   .     A
C134   O175    1.375   .     S
O137   C930    1.412   1_554 S
C138   H140    1.113   .     S
C138   O929    1.412   .     S
C138   H931    1.113   .     S
C138   H1197   1.109   .     S
H139   C930    1.113   1_554 S
H141   C1458   1.109   1_544 S
O142   C143    1.408   .     S
C143   H144    1.109   .     S
C143   H145    1.112   .     S
C143   H146    1.113   .     S
O147   H148    0.991   .     S
O149   H150    0.991   .     S
O151   C152    1.412   .     S
O151   C196    1.384   .     S
C152   H155    1.112   .     S
C152   H154    1.109   .     S
C152   H153    1.114   .     S
O156   C157    1.412   .     S
C157   H159    1.109   .     S
C157   H160    1.110   .     S
H158   C245    1.114   .     S
O161   H250    0.991   .     S
H164   O251    0.990   .     S
O165   H166    0.991   .     S
O167   H168    0.991   .     S
O169   H170    0.991   .     S
O171   H172    0.991   .     S
O173   H174    0.992   .     S
O175   H176    0.973   .     S
O177   C181    1.292   .     A
O177   Cu189   1.973   .     S
O178   C182    1.292   .     A
O178   Cu190   1.973   .     S
O179   Cu190   1.963   .     S
O179   C5      1.297   1_655 S
O180   Cu189   1.963   .     S
C181   C216    1.454   .     S
C182   C215    1.454   .     S
C182   O4      1.297   1_655 S
O183   Cu189   1.930   .     S
O184   Cu190   1.930   .     S
O184   C12     1.304   1_655 S
O185   Cu190   1.918   .     S
O185   C187    1.296   .     A
O186   C188    1.301   .     A
O186   Cu189   1.918   .     S
C187   C191    1.470   .     S
C187   O7      1.300   1_655 S
C188   C192    1.488   .     S
Cu189  N223    2.019   .     S
Cu190  N224    2.019   .     S
Cu190  Cu13    2.687   1_655 S
C191   C195    1.405   .     A
C191   C197    1.395   .     A
C192   C196    1.411   .     A
C192   C198    1.409   .     A
C193   O249    1.383   .     S
C193   C201    1.417   .     A
C193   C195    1.414   .     A
C194   O251    1.384   .     S
C194   C202    1.418   .     A
C194   C196    1.416   .     A
C195   O68     1.385   1_655 S
C197   O237    1.381   .     S
C197   C199    1.421   .     A
C198   O235    1.382   .     S
C198   C200    1.421   .     A
C199   C203    1.428   .     A
C199   C201    1.423   .     A
C200   C202    1.419   .     A
C200   C204    1.425   .     A
C201   C999    1.413   .     S
C202   C1000   1.417   1_554 S
C203   C206    1.423   .     A
C203   C996    1.411   .     S
C204   C205    1.423   .     A
C204   C995    1.411   1_554 S
C205   O253    1.382   .     S
C205   C207    1.399   .     A
C206   O255    1.381   .     S
C206   C208    1.402   .     A
C207   O225    1.384   .     S
C207   C993    1.413   1_554 S
C208   O230    1.384   .     S
C208   C994    1.417   .     S
C209   H211    1.084   .     S
C209   C741    1.383   1_545 S
C209   C40     1.400   1_655 S
C210   H212    1.084   .     S
C210   C478    1.383   .     S
C213   O257    1.374   .     S
C213   C215    1.412   .     A
C213   C473    1.383   .     S
C214   C216    1.412   .     A
C214   O259    1.374   .     S
C214   C738    1.383   1_545 S
C215   C34     1.400   1_655 S
C217   H219    1.082   .     S
C217   N224    1.365   .     A
C217   C221    1.430   .     A
C218   C222    1.406   .     A
C218   H220    1.082   .     S
C218   N223    1.352   .     A
C221   N223    1.373   .     A
C221   O261    1.378   .     S
C222   N224    1.392   .     A
C222   O263    1.375   .     S
O225   C1018   1.412   1_554 S
C226   H228    1.113   .     S
C226   O1017   1.412   .     S
C226   H1019   1.113   .     S
C226   H1285   1.109   .     S
H227   C1018   1.113   1_554 S
H229   C1546   1.109   1_544 S
O230   C231    1.408   .     S
C231   H232    1.109   .     S
C231   H233    1.112   .     S
C231   H234    1.113   .     S
O235   H236    0.991   .     S
O237   H238    0.991   .     S
O239   C240    1.412   .     S
O239   C20     1.384   1_655 S
C240   H243    1.112   .     S
C240   H242    1.109   .     S
C240   H241    1.114   .     S
O244   C245    1.412   .     S
C245   H247    1.109   .     S
C245   H248    1.110   .     S
H246   C69     1.114   1_655 S
O249   H74     0.991   1_655 S
H252   O75     0.990   1_655 S
O253   H254    0.991   .     S
O255   H256    0.991   .     S
O257   H258    0.991   .     S
O259   H260    0.991   .     S
O261   H262    0.992   .     S
O263   H264    0.973   .     S
O265   C269    1.292   .     A
O265   Cu277   1.973   .     S
O266   C270    1.292   .     A
O266   Cu278   1.973   .     S
O267   Cu278   1.963   .     S
O267   C357    1.297   .     S
O268   Cu277   1.963   .     S
O268   C446    1.297   1_455 S
C269   C304    1.454   .     S
C269   O443    1.297   1_455 S
C270   C303    1.454   .     S
C270   O356    1.297   .     S
O271   Cu277   1.930   .     S
O271   C451    1.300   1_455 S
O272   Cu278   1.930   .     S
O272   C364    1.304   .     S
O273   Cu278   1.918   .     S
O273   C275    1.296   .     A
O274   C276    1.301   .     A
O274   Cu277   1.918   .     S
C275   C279    1.470   .     S
C275   O359    1.300   .     S
C276   C280    1.488   .     S
C276   O448    1.304   1_455 S
Cu277  N311    2.019   .     S
Cu277  Cu454   2.687   1_455 S
Cu278  N312    2.019   .     S
Cu278  Cu365   2.687   .     S
C279   C283    1.405   .     A
C279   C285    1.395   .     A
C280   C284    1.411   .     A
C280   C286    1.409   .     A
C281   O337    1.383   .     S
C281   C289    1.417   .     A
C281   C283    1.414   .     A
C282   O339    1.384   .     S
C282   C290    1.418   .     A
C282   C284    1.416   .     A
C283   O420    1.385   .     S
C284   O503    1.384   1_455 S
C285   O325    1.381   .     S
C285   C287    1.421   .     A
C286   O323    1.382   .     S
C286   C288    1.421   .     A
C287   C291    1.428   .     A
C287   C289    1.423   .     A
C288   C290    1.419   .     A
C288   C292    1.425   .     A
C289   C1087   1.413   .     S
C290   C1088   1.417   1_554 S
C291   C294    1.423   .     A
C291   C1084   1.411   .     S
C292   C293    1.423   .     A
C292   C1083   1.411   1_554 S
C293   O341    1.382   .     S
C293   C295    1.399   .     A
C294   O343    1.381   .     S
C294   C296    1.402   .     A
C295   O313    1.384   .     S
C295   C1081   1.413   1_554 S
C296   O318    1.384   .     S
C296   C1082   1.417   .     S
C297   H299    1.084   .     S
C297   C392    1.400   .     S
C298   H300    1.084   .     S
C298   C566    1.383   .     S
C298   C479    1.400   1_455 S
C301   O345    1.374   .     S
C301   C303    1.412   .     A
C301   C561    1.383   .     S
C302   C304    1.412   .     A
C302   O347    1.374   .     S
C303   C386    1.400   .     S
C304   C473    1.400   1_455 S
C305   H307    1.082   .     S
C305   N312    1.365   .     A
C305   C309    1.430   .     A
C306   C310    1.406   .     A
C306   H308    1.082   .     S
C306   N311    1.352   .     A
C309   N311    1.373   .     A
C309   O349    1.378   .     S
C310   N312    1.392   .     A
C310   O351    1.375   .     S
O313   C1106   1.412   1_554 S
C314   H316    1.113   .     S
C314   O1105   1.412   .     S
C314   H1107   1.113   .     S
C314   H1373   1.109   .     S
H315   C1106   1.113   1_554 S
H317   C842    1.109   1_554 S
O318   C319    1.408   .     S
C319   H320    1.109   .     S
C319   H321    1.112   .     S
C319   H322    1.113   .     S
O323   H324    0.991   .     S
O325   H326    0.991   .     S
O327   C328    1.412   .     S
O327   C372    1.384   .     S
C328   H331    1.112   .     S
C328   H330    1.109   .     S
C328   H329    1.114   .     S
O332   C333    1.412   .     S
O332   C459    1.385   1_455 S
C333   H335    1.109   .     S
C333   H336    1.110   .     S
C333   H510    1.114   1_455 S
H334   C421    1.114   .     S
O337   H426    0.991   .     S
H338   O513    0.991   1_455 S
O339   H516    0.990   1_455 S
H340   O427    0.990   .     S
O341   H342    0.991   .     S
O343   H344    0.991   .     S
O345   H346    0.991   .     S
O347   H348    0.991   .     S
O349   H350    0.992   .     S
O351   H352    0.973   .     S
O353   C357    1.292   .     A
O353   Cu365   1.973   .     S
O354   C358    1.292   .     A
O354   Cu366   1.973   .     S
O355   Cu366   1.963   .     S
O355   C445    1.297   .     S
O356   Cu365   1.963   .     S
C357   C392    1.454   .     S
C358   C391    1.454   .     S
C358   O444    1.297   .     S
O359   Cu365   1.930   .     S
O360   Cu366   1.930   .     S
O360   C452    1.304   .     S
O361   Cu366   1.918   .     S
O361   C363    1.296   .     A
O362   C364    1.301   .     A
O362   Cu365   1.918   .     S
C363   C367    1.470   .     S
C363   O447    1.300   .     S
C364   C368    1.488   .     S
Cu365  N399    2.019   .     S
Cu366  N400    2.019   .     S
Cu366  Cu453   2.687   .     S
C367   C371    1.405   .     A
C367   C373    1.395   .     A
C368   C372    1.411   .     A
C368   C374    1.409   .     A
C369   O425    1.383   .     S
C369   C377    1.417   .     A
C369   C371    1.414   .     A
C370   O427    1.384   .     S
C370   C378    1.418   .     A
C370   C372    1.416   .     A
C371   O508    1.385   .     S
C373   O413    1.381   .     S
C373   C375    1.421   .     A
C374   O411    1.382   .     S
C374   C376    1.421   .     A
C375   C379    1.428   .     A
C375   C377    1.423   .     A
C376   C378    1.419   .     A
C376   C380    1.425   .     A
C377   C1175   1.413   .     S
C378   C1176   1.417   1_554 S
C379   C382    1.423   .     A
C379   C1172   1.411   .     S
C380   C381    1.423   .     A
C380   C1171   1.411   1_554 S
C381   O429    1.382   .     S
C381   C383    1.399   .     A
C382   O431    1.381   .     S
C382   C384    1.402   .     A
C383   O401    1.384   .     S
C383   C1169   1.413   1_554 S
C384   O406    1.384   .     S
C384   C1170   1.417   .     S
C385   H387    1.084   .     S
C385   C480    1.400   .     S
C386   H388    1.084   .     S
C386   C654    1.383   .     S
C389   O433    1.374   .     S
C389   C391    1.412   .     A
C389   C649    1.383   .     S
C390   C392    1.412   .     A
C390   O435    1.374   .     S
C391   C474    1.400   .     S
C393   H395    1.082   .     S
C393   N400    1.365   .     A
C393   C397    1.430   .     A
C394   C398    1.406   .     A
C394   H396    1.082   .     S
C394   N399    1.352   .     A
C397   N399    1.373   .     A
C397   O437    1.378   .     S
C398   N400    1.392   .     A
C398   O439    1.375   .     S
O401   C1194   1.412   1_554 S
C402   H404    1.113   .     S
C402   O1193   1.412   .     S
C402   H1195   1.113   .     S
C402   H1461   1.109   .     S
H403   C1194   1.113   1_554 S
H405   C930    1.109   1_554 S
O406   C407    1.408   .     S
C407   H408    1.109   .     S
C407   H409    1.112   .     S
C407   H410    1.113   .     S
O411   H412    0.991   .     S
O413   H414    0.991   .     S
O415   C416    1.412   .     S
O415   C460    1.384   .     S
C416   H419    1.112   .     S
C416   H418    1.109   .     S
C416   H417    1.114   .     S
O420   C421    1.412   .     S
C421   H423    1.109   .     S
C421   H424    1.110   .     S
H422   C509    1.114   .     S
O425   H514    0.991   .     S
H428   O515    0.990   .     S
O429   H430    0.991   .     S
O431   H432    0.991   .     S
O433   H434    0.991   .     S
O435   H436    0.991   .     S
O437   H438    0.992   .     S
O439   H440    0.973   .     S
O441   C445    1.292   .     A
O441   Cu453   1.973   .     S
O442   C446    1.292   .     A
O442   Cu454   1.973   .     S
O443   Cu454   1.963   .     S
O443   C269    1.297   1_655 S
O444   Cu453   1.963   .     S
C445   C480    1.454   .     S
C446   C479    1.454   .     S
C446   O268    1.297   1_655 S
O447   Cu453   1.930   .     S
O448   Cu454   1.930   .     S
O448   C276    1.304   1_655 S
O449   Cu454   1.918   .     S
O449   C451    1.296   .     A
O450   C452    1.301   .     A
O450   Cu453   1.918   .     S
C451   C455    1.470   .     S
C451   O271    1.300   1_655 S
C452   C456    1.488   .     S
Cu453  N487    2.019   .     S
Cu454  N488    2.019   .     S
Cu454  Cu277   2.687   1_655 S
C455   C459    1.405   .     A
C455   C461    1.395   .     A
C456   C460    1.411   .     A
C456   C462    1.409   .     A
C457   O513    1.383   .     S
C457   C465    1.417   .     A
C457   C459    1.414   .     A
C458   O515    1.384   .     S
C458   C466    1.418   .     A
C458   C460    1.416   .     A
C459   O332    1.385   1_655 S
C461   O501    1.381   .     S
C461   C463    1.421   .     A
C462   O499    1.382   .     S
C462   C464    1.421   .     A
C463   C467    1.428   .     A
C463   C465    1.423   .     A
C464   C466    1.419   .     A
C464   C468    1.425   .     A
C465   C1263   1.413   .     S
C466   C1264   1.417   1_554 S
C467   C470    1.423   .     A
C467   C1260   1.411   .     S
C468   C469    1.423   .     A
C468   C1259   1.411   1_554 S
C469   O517    1.382   .     S
C469   C471    1.399   .     A
C470   O519    1.381   .     S
C470   C472    1.402   .     A
C471   O489    1.384   .     S
C471   C1257   1.413   1_554 S
C472   O494    1.384   .     S
C472   C1258   1.417   .     S
C473   H475    1.084   .     S
C473   C304    1.400   1_655 S
C474   H476    1.084   .     S
C474   C742    1.383   .     S
C477   O521    1.374   .     S
C477   C479    1.412   .     A
C477   C737    1.383   .     S
C478   C480    1.412   .     A
C478   O523    1.374   .     S
C479   C298    1.400   1_655 S
C481   H483    1.082   .     S
C481   N488    1.365   .     A
C481   C485    1.430   .     A
C482   C486    1.406   .     A
C482   H484    1.082   .     S
C482   N487    1.352   .     A
C485   N487    1.373   .     A
C485   O525    1.378   .     S
C486   N488    1.392   .     A
C486   O527    1.375   .     S
O489   C1282   1.412   1_554 S
C490   H492    1.113   .     S
C490   O1281   1.412   .     S
C490   H1283   1.113   .     S
C490   H1549   1.109   .     S
H491   C1282   1.113   1_554 S
H493   C1018   1.109   1_554 S
O494   C495    1.408   .     S
C495   H496    1.109   .     S
C495   H497    1.112   .     S
C495   H498    1.113   .     S
O499   H500    0.991   .     S
O501   H502    0.991   .     S
O503   C504    1.412   .     S
O503   C284    1.384   1_655 S
C504   H507    1.112   .     S
C504   H506    1.109   .     S
C504   H505    1.114   .     S
O508   C509    1.412   .     S
C509   H511    1.109   .     S
C509   H512    1.110   .     S
H510   C333    1.114   1_655 S
O513   H338    0.991   1_655 S
H516   O339    0.990   1_655 S
O517   H518    0.991   .     S
O519   H520    0.991   .     S
O521   H522    0.991   .     S
O523   H524    0.991   .     S
O525   H526    0.992   .     S
O527   H528    0.973   .     S
O529   C533    1.292   .     A
O529   Cu541   1.973   .     S
O530   C534    1.292   .     A
O530   Cu542   1.973   .     S
O531   Cu542   1.963   .     S
O531   C621    1.297   .     S
O532   Cu541   1.963   .     S
O532   C710    1.297   1_455 S
C533   C568    1.454   .     S
C533   O707    1.297   1_455 S
C534   C567    1.454   .     S
C534   O620    1.297   .     S
O535   Cu541   1.930   .     S
O535   C715    1.300   1_455 S
O536   Cu542   1.930   .     S
O536   C628    1.304   .     S
O537   Cu542   1.918   .     S
O537   C539    1.296   .     A
O538   C540    1.301   .     A
O538   Cu541   1.918   .     S
C539   C543    1.470   .     S
C539   O623    1.300   .     S
C540   C544    1.488   .     S
C540   O712    1.304   1_455 S
Cu541  N575    2.019   .     S
Cu541  Cu718   2.687   1_455 S
Cu542  N576    2.019   .     S
Cu542  Cu629   2.687   .     S
C543   C547    1.405   .     A
C543   C549    1.395   .     A
C544   C548    1.411   .     A
C544   C550    1.409   .     A
C545   O601    1.383   .     S
C545   C553    1.417   .     A
C545   C547    1.414   .     A
C546   O603    1.384   .     S
C546   C554    1.418   .     A
C546   C548    1.416   .     A
C547   O684    1.385   .     S
C548   O767    1.384   1_455 S
C549   O589    1.381   .     S
C549   C551    1.421   .     A
C550   O587    1.382   .     S
C550   C552    1.421   .     A
C551   C555    1.428   .     A
C551   C553    1.423   .     A
C552   C554    1.419   .     A
C552   C556    1.425   .     A
C553   C1351   1.413   .     S
C554   C1352   1.417   1_554 S
C555   C558    1.423   .     A
C555   C1348   1.411   .     S
C556   C557    1.423   .     A
C556   C1347   1.411   1_554 S
C557   O605    1.382   .     S
C557   C559    1.399   .     A
C558   O607    1.381   .     S
C558   C560    1.402   .     A
C559   O577    1.384   .     S
C559   C1345   1.413   1_554 S
C560   O582    1.384   .     S
C560   C1346   1.417   .     S
C561   H563    1.084   .     S
C561   C656    1.400   .     S
C562   H564    1.084   .     S
C562   C38     1.383   1_565 S
C562   C743    1.400   1_455 S
C565   O609    1.374   .     S
C565   C567    1.412   .     A
C565   C33     1.383   1_565 S
C566   C568    1.412   .     A
C566   O611    1.374   .     S
C567   C650    1.400   .     S
C568   C737    1.400   1_455 S
C569   H571    1.082   .     S
C569   N576    1.365   .     A
C569   C573    1.430   .     A
C570   C574    1.406   .     A
C570   H572    1.082   .     S
C570   N575    1.352   .     A
C573   N575    1.373   .     A
C573   O613    1.378   .     S
C574   N576    1.392   .     A
C574   O615    1.375   .     S
O577   C1370   1.412   1_554 S
C578   H580    1.113   .     S
C578   O1369   1.412   .     S
C578   H1371   1.113   .     S
C578   H845    1.109   1_565 S
H579   C1370   1.113   1_554 S
H581   C1106   1.109   1_554 S
O582   C583    1.408   .     S
C583   H584    1.109   .     S
C583   H585    1.112   .     S
C583   H586    1.113   .     S
O587   H588    0.991   .     S
O589   H590    0.991   .     S
O591   C592    1.412   .     S
O591   C636    1.384   .     S
C592   H595    1.112   .     S
C592   H594    1.109   .     S
C592   H593    1.114   .     S
O596   C597    1.412   .     S
O596   C723    1.385   1_455 S
C597   H599    1.109   .     S
C597   H600    1.110   .     S
C597   H774    1.114   1_455 S
H598   C685    1.114   .     S
O601   H690    0.991   .     S
H602   O777    0.991   1_455 S
O603   H780    0.990   1_455 S
H604   O691    0.990   .     S
O605   H606    0.991   .     S
O607   H608    0.991   .     S
O609   H610    0.991   .     S
O611   H612    0.991   .     S
O613   H614    0.992   .     S
O615   H616    0.973   .     S
O617   C621    1.292   .     A
O617   Cu629   1.973   .     S
O618   C622    1.292   .     A
O618   Cu630   1.973   .     S
O619   Cu630   1.963   .     S
O619   C709    1.297   .     S
O620   Cu629   1.963   .     S
C621   C656    1.454   .     S
C622   C655    1.454   .     S
C622   O708    1.297   .     S
O623   Cu629   1.930   .     S
O624   Cu630   1.930   .     S
O624   C716    1.304   .     S
O625   Cu630   1.918   .     S
O625   C627    1.296   .     A
O626   C628    1.301   .     A
O626   Cu629   1.918   .     S
C627   C631    1.470   .     S
C627   O711    1.300   .     S
C628   C632    1.488   .     S
Cu629  N663    2.019   .     S
Cu630  N664    2.019   .     S
Cu630  Cu717   2.687   .     S
C631   C635    1.405   .     A
C631   C637    1.395   .     A
C632   C636    1.411   .     A
C632   C638    1.409   .     A
C633   O689    1.383   .     S
C633   C641    1.417   .     A
C633   C635    1.414   .     A
C634   O691    1.384   .     S
C634   C642    1.418   .     A
C634   C636    1.416   .     A
C635   O772    1.385   .     S
C637   O677    1.381   .     S
C637   C639    1.421   .     A
C638   O675    1.382   .     S
C638   C640    1.421   .     A
C639   C643    1.428   .     A
C639   C641    1.423   .     A
C640   C642    1.419   .     A
C640   C644    1.425   .     A
C641   C1439   1.413   .     S
C642   C1440   1.417   1_554 S
C643   C646    1.423   .     A
C643   C1436   1.411   .     S
C644   C645    1.423   .     A
C644   C1435   1.411   1_554 S
C645   O693    1.382   .     S
C645   C647    1.399   .     A
C646   O695    1.381   .     S
C646   C648    1.402   .     A
C647   O665    1.384   .     S
C647   C1433   1.413   1_554 S
C648   O670    1.384   .     S
C648   C1434   1.417   .     S
C649   H651    1.084   .     S
C649   C744    1.400   .     S
C650   H652    1.084   .     S
C650   C126    1.383   1_565 S
C653   O697    1.374   .     S
C653   C655    1.412   .     A
C653   C121    1.383   1_565 S
C654   C656    1.412   .     A
C654   O699    1.374   .     S
C655   C738    1.400   .     S
C657   H659    1.082   .     S
C657   N664    1.365   .     A
C657   C661    1.430   .     A
C658   C662    1.406   .     A
C658   H660    1.082   .     S
C658   N663    1.352   .     A
C661   N663    1.373   .     A
C661   O701    1.378   .     S
C662   N664    1.392   .     A
C662   O703    1.375   .     S
O665   C1458   1.412   1_554 S
C666   H668    1.113   .     S
C666   O1457   1.412   .     S
C666   H1459   1.113   .     S
C666   H933    1.109   1_565 S
H667   C1458   1.113   1_554 S
H669   C1194   1.109   1_554 S
O670   C671    1.408   .     S
C671   H672    1.109   .     S
C671   H673    1.112   .     S
C671   H674    1.113   .     S
O675   H676    0.991   .     S
O677   H678    0.991   .     S
O679   C680    1.412   .     S
O679   C724    1.384   .     S
C680   H683    1.112   .     S
C680   H682    1.109   .     S
C680   H681    1.114   .     S
O684   C685    1.412   .     S
C685   H687    1.109   .     S
C685   H688    1.110   .     S
H686   C773    1.114   .     S
O689   H778    0.991   .     S
H692   O779    0.990   .     S
O693   H694    0.991   .     S
O695   H696    0.991   .     S
O697   H698    0.991   .     S
O699   H700    0.991   .     S
O701   H702    0.992   .     S
O703   H704    0.973   .     S
O705   C709    1.292   .     A
O705   Cu717   1.973   .     S
O706   C710    1.292   .     A
O706   Cu718   1.973   .     S
O707   Cu718   1.963   .     S
O707   C533    1.297   1_655 S
O708   Cu717   1.963   .     S
C709   C744    1.454   .     S
C710   C743    1.454   .     S
C710   O532    1.297   1_655 S
O711   Cu717   1.930   .     S
O712   Cu718   1.930   .     S
O712   C540    1.304   1_655 S
O713   Cu718   1.918   .     S
O713   C715    1.296   .     A
O714   C716    1.301   .     A
O714   Cu717   1.918   .     S
C715   C719    1.470   .     S
C715   O535    1.300   1_655 S
C716   C720    1.488   .     S
Cu717  N751    2.019   .     S
Cu718  N752    2.019   .     S
Cu718  Cu541   2.687   1_655 S
C719   C723    1.405   .     A
C719   C725    1.395   .     A
C720   C724    1.411   .     A
C720   C726    1.409   .     A
C721   O777    1.383   .     S
C721   C729    1.417   .     A
C721   C723    1.414   .     A
C722   O779    1.384   .     S
C722   C730    1.418   .     A
C722   C724    1.416   .     A
C723   O596    1.385   1_655 S
C725   O765    1.381   .     S
C725   C727    1.421   .     A
C726   O763    1.382   .     S
C726   C728    1.421   .     A
C727   C731    1.428   .     A
C727   C729    1.423   .     A
C728   C730    1.419   .     A
C728   C732    1.425   .     A
C729   C1527   1.413   .     S
C730   C1528   1.417   1_554 S
C731   C734    1.423   .     A
C731   C1524   1.411   .     S
C732   C733    1.423   .     A
C732   C1523   1.411   1_554 S
C733   O781    1.382   .     S
C733   C735    1.399   .     A
C734   O783    1.381   .     S
C734   C736    1.402   .     A
C735   O753    1.384   .     S
C735   C1521   1.413   1_554 S
C736   O758    1.384   .     S
C736   C1522   1.417   .     S
C737   H739    1.084   .     S
C737   C568    1.400   1_655 S
C738   H740    1.084   .     S
C738   C214    1.383   1_565 S
C741   O785    1.374   .     S
C741   C743    1.412   .     A
C741   C209    1.383   1_565 S
C742   C744    1.412   .     A
C742   O787    1.374   .     S
C743   C562    1.400   1_655 S
C745   H747    1.082   .     S
C745   N752    1.365   .     A
C745   C749    1.430   .     A
C746   C750    1.406   .     A
C746   H748    1.082   .     S
C746   N751    1.352   .     A
C749   N751    1.373   .     A
C749   O789    1.378   .     S
C750   N752    1.392   .     A
C750   O791    1.375   .     S
O753   C1546   1.412   1_554 S
C754   H756    1.113   .     S
C754   O1545   1.412   .     S
C754   H1547   1.113   .     S
C754   H1021   1.109   1_565 S
H755   C1546   1.113   1_554 S
H757   C1282   1.109   1_554 S
O758   C759    1.408   .     S
C759   H760    1.109   .     S
C759   H761    1.112   .     S
C759   H762    1.113   .     S
O763   H764    0.991   .     S
O765   H766    0.991   .     S
O767   C768    1.412   .     S
O767   C548    1.384   1_655 S
C768   H771    1.112   .     S
C768   H770    1.109   .     S
C768   H769    1.114   .     S
O772   C773    1.412   .     S
C773   H775    1.109   .     S
C773   H776    1.110   .     S
H774   C597    1.114   1_655 S
O777   H602    0.991   1_655 S
H780   O603    0.990   1_655 S
O781   H782    0.991   .     S
O783   H784    0.991   .     S
O785   H786    0.991   .     S
O787   H788    0.991   .     S
O789   H790    0.992   .     S
O791   H792    0.973   .     S
O793   C797    1.292   .     A
O793   Cu805   1.973   .     S
O794   C798    1.292   .     A
O794   Cu806   1.973   .     S
O795   Cu806   1.963   .     S
O795   C885    1.297   .     S
O796   Cu805   1.963   .     S
O796   C974    1.297   1_455 S
C797   C832    1.454   .     S
C797   O971    1.297   1_455 S
C798   C831    1.454   .     S
C798   O884    1.297   .     S
O799   Cu805   1.930   .     S
O799   C979    1.300   1_455 S
O800   Cu806   1.930   .     S
O800   C892    1.304   .     S
O801   Cu806   1.918   .     S
O801   C803    1.296   .     A
O802   C804    1.301   .     A
O802   Cu805   1.918   .     S
C803   C807    1.470   .     S
C803   O887    1.300   .     S
C804   C808    1.488   .     S
C804   O976    1.304   1_455 S
Cu805  N839    2.019   .     S
Cu805  Cu982   2.687   1_455 S
Cu806  N840    2.019   .     S
Cu806  Cu893   2.687   .     S
C807   C811    1.405   .     A
C807   C813    1.395   .     A
C808   C812    1.411   .     A
C808   C814    1.409   .     A
C809   O865    1.383   .     S
C809   C817    1.417   .     A
C809   C811    1.414   .     A
C810   O867    1.384   .     S
C810   C818    1.418   .     A
C810   C812    1.416   .     A
C811   O948    1.385   .     S
C812   O1031   1.384   1_455 S
C813   O853    1.381   .     S
C813   C815    1.421   .     A
C814   O851    1.382   .     S
C814   C816    1.421   .     A
C815   C819    1.428   .     A
C815   C817    1.423   .     A
C816   C818    1.419   .     A
C816   C820    1.425   .     A
C817   C31     1.413   1_556 S
C819   C822    1.423   .     A
C819   C28     1.411   1_556 S
C820   C821    1.423   .     A
C821   O869    1.382   .     S
C821   C823    1.399   .     A
C822   O871    1.381   .     S
C822   C824    1.402   .     A
C823   O841    1.384   .     S
C824   O846    1.384   .     S
C824   C26     1.417   1_556 S
C825   H827    1.084   .     S
C825   C1357   1.383   1_545 S
C825   C920    1.400   .     S
C826   H828    1.084   .     S
C826   C1094   1.383   .     S
C826   C1007   1.400   1_455 S
C829   O873    1.374   .     S
C829   C831    1.412   .     A
C829   C1089   1.383   .     S
C830   C832    1.412   .     A
C830   O875    1.374   .     S
C830   C1354   1.383   1_545 S
C831   C914    1.400   .     S
C832   C1001   1.400   1_455 S
C833   H835    1.082   .     S
C833   N840    1.365   .     A
C833   C837    1.430   .     A
C834   C838    1.406   .     A
C834   H836    1.082   .     S
C834   N839    1.352   .     A
C837   N839    1.373   .     A
C837   O877    1.378   .     S
C838   N840    1.392   .     A
C838   O879    1.375   .     S
C842   H844    1.113   .     S
C842   O49     1.412   1_556 S
C842   H51     1.113   1_556 S
C842   H317    1.109   1_556 S
H845   C578    1.109   1_545 S
O846   C847    1.408   .     S
C847   H848    1.109   .     S
C847   H849    1.112   .     S
C847   H850    1.113   .     S
O851   H852    0.991   .     S
O853   H854    0.991   .     S
O855   C856    1.412   .     S
O855   C900    1.384   .     S
C856   H859    1.112   .     S
C856   H858    1.109   .     S
C856   H857    1.114   .     S
O860   C861    1.412   .     S
O860   C987    1.385   1_455 S
C861   H863    1.109   .     S
C861   H864    1.110   .     S
C861   H1038   1.114   1_455 S
H862   C949    1.114   .     S
O865   H954    0.991   .     S
H866   O1041   0.991   1_455 S
O867   H1044   0.990   1_455 S
H868   O955    0.990   .     S
O869   H870    0.991   .     S
O871   H872    0.991   .     S
O873   H874    0.991   .     S
O875   H876    0.991   .     S
O877   H878    0.992   .     S
O879   H880    0.973   .     S
O881   C885    1.292   .     A
O881   Cu893   1.973   .     S
O882   C886    1.292   .     A
O882   Cu894   1.973   .     S
O883   Cu894   1.963   .     S
O883   C973    1.297   .     S
O884   Cu893   1.963   .     S
C885   C920    1.454   .     S
C886   C919    1.454   .     S
C886   O972    1.297   .     S
O887   Cu893   1.930   .     S
O888   Cu894   1.930   .     S
O888   C980    1.304   .     S
O889   Cu894   1.918   .     S
O889   C891    1.296   .     A
O890   C892    1.301   .     A
O890   Cu893   1.918   .     S
C891   C895    1.470   .     S
C891   O975    1.300   .     S
C892   C896    1.488   .     S
Cu893  N927    2.019   .     S
Cu894  N928    2.019   .     S
Cu894  Cu981   2.687   .     S
C895   C899    1.405   .     A
C895   C901    1.395   .     A
C896   C900    1.411   .     A
C896   C902    1.409   .     A
C897   O953    1.383   .     S
C897   C905    1.417   .     A
C897   C899    1.414   .     A
C898   O955    1.384   .     S
C898   C906    1.418   .     A
C898   C900    1.416   .     A
C899   O1036   1.385   .     S
C901   O941    1.381   .     S
C901   C903    1.421   .     A
C902   O939    1.382   .     S
C902   C904    1.421   .     A
C903   C907    1.428   .     A
C903   C905    1.423   .     A
C904   C906    1.419   .     A
C904   C908    1.425   .     A
C905   C119    1.413   1_556 S
C907   C910    1.423   .     A
C907   C116    1.411   1_556 S
C908   C909    1.423   .     A
C909   O957    1.382   .     S
C909   C911    1.399   .     A
C910   O959    1.381   .     S
C910   C912    1.402   .     A
C911   O929    1.384   .     S
C912   O934    1.384   .     S
C912   C114    1.417   1_556 S
C913   H915    1.084   .     S
C913   C1445   1.383   1_545 S
C913   C1008   1.400   .     S
C914   H916    1.084   .     S
C914   C1182   1.383   .     S
C917   O961    1.374   .     S
C917   C919    1.412   .     A
C917   C1177   1.383   .     S
C918   C920    1.412   .     A
C918   O963    1.374   .     S
C918   C1442   1.383   1_545 S
C919   C1002   1.400   .     S
C921   H923    1.082   .     S
C921   N928    1.365   .     A
C921   C925    1.430   .     A
C922   C926    1.406   .     A
C922   H924    1.082   .     S
C922   N927    1.352   .     A
C925   N927    1.373   .     A
C925   O965    1.378   .     S
C926   N928    1.392   .     A
C926   O967    1.375   .     S
C930   H932    1.113   .     S
C930   O137    1.412   1_556 S
C930   H139    1.113   1_556 S
C930   H405    1.109   1_556 S
H933   C666    1.109   1_545 S
O934   C935    1.408   .     S
C935   H936    1.109   .     S
C935   H937    1.112   .     S
C935   H938    1.113   .     S
O939   H940    0.991   .     S
O941   H942    0.991   .     S
O943   C944    1.412   .     S
O943   C988    1.384   .     S
C944   H947    1.112   .     S
C944   H946    1.109   .     S
C944   H945    1.114   .     S
O948   C949    1.412   .     S
C949   H951    1.109   .     S
C949   H952    1.110   .     S
H950   C1037   1.114   .     S
O953   H1042   0.991   .     S
H956   O1043   0.990   .     S
O957   H958    0.991   .     S
O959   H960    0.991   .     S
O961   H962    0.991   .     S
O963   H964    0.991   .     S
O965   H966    0.992   .     S
O967   H968    0.973   .     S
O969   C973    1.292   .     A
O969   Cu981   1.973   .     S
O970   C974    1.292   .     A
O970   Cu982   1.973   .     S
O971   Cu982   1.963   .     S
O971   C797    1.297   1_655 S
O972   Cu981   1.963   .     S
C973   C1008   1.454   .     S
C974   C1007   1.454   .     S
C974   O796    1.297   1_655 S
O975   Cu981   1.930   .     S
O976   Cu982   1.930   .     S
O976   C804    1.304   1_655 S
O977   Cu982   1.918   .     S
O977   C979    1.296   .     A
O978   C980    1.301   .     A
O978   Cu981   1.918   .     S
C979   C983    1.470   .     S
C979   O799    1.300   1_655 S
C980   C984    1.488   .     S
Cu981  N1015   2.019   .     S
Cu982  N1016   2.019   .     S
Cu982  Cu805   2.687   1_655 S
C983   C987    1.405   .     A
C983   C989    1.395   .     A
C984   C988    1.411   .     A
C984   C990    1.409   .     A
C985   O1041   1.383   .     S
C985   C993    1.417   .     A
C985   C987    1.414   .     A
C986   O1043   1.384   .     S
C986   C994    1.418   .     A
C986   C988    1.416   .     A
C987   O860    1.385   1_655 S
C989   O1029   1.381   .     S
C989   C991    1.421   .     A
C990   O1027   1.382   .     S
C990   C992    1.421   .     A
C991   C995    1.428   .     A
C991   C993    1.423   .     A
C992   C994    1.419   .     A
C992   C996    1.425   .     A
C993   C207    1.413   1_556 S
C995   C998    1.423   .     A
C995   C204    1.411   1_556 S
C996   C997    1.423   .     A
C997   O1045   1.382   .     S
C997   C999    1.399   .     A
C998   O1047   1.381   .     S
C998   C1000   1.402   .     A
C999   O1017   1.384   .     S
C1000  O1022   1.384   .     S
C1000  C202    1.417   1_556 S
C1001  H1003   1.084   .     S
C1001  C1533   1.383   1_545 S
C1001  C832    1.400   1_655 S
C1002  H1004   1.084   .     S
C1002  C1270   1.383   .     S
C1005  O1049   1.374   .     S
C1005  C1007   1.412   .     A
C1005  C1265   1.383   .     S
C1006  C1008   1.412   .     A
C1006  O1051   1.374   .     S
C1006  C1530   1.383   1_545 S
C1007  C826    1.400   1_655 S
C1009  H1011   1.082   .     S
C1009  N1016   1.365   .     A
C1009  C1013   1.430   .     A
C1010  C1014   1.406   .     A
C1010  H1012   1.082   .     S
C1010  N1015   1.352   .     A
C1013  N1015   1.373   .     A
C1013  O1053   1.378   .     S
C1014  N1016   1.392   .     A
C1014  O1055   1.375   .     S
C1018  H1020   1.113   .     S
C1018  O225    1.412   1_556 S
C1018  H227    1.113   1_556 S
C1018  H493    1.109   1_556 S
H1021  C754    1.109   1_545 S
O1022  C1023   1.408   .     S
C1023  H1024   1.109   .     S
C1023  H1025   1.112   .     S
C1023  H1026   1.113   .     S
O1027  H1028   0.991   .     S
O1029  H1030   0.991   .     S
O1031  C1032   1.412   .     S
O1031  C812    1.384   1_655 S
C1032  H1035   1.112   .     S
C1032  H1034   1.109   .     S
C1032  H1033   1.114   .     S
O1036  C1037   1.412   .     S
C1037  H1039   1.109   .     S
C1037  H1040   1.110   .     S
H1038  C861    1.114   1_655 S
O1041  H866    0.991   1_655 S
H1044  O867    0.990   1_655 S
O1045  H1046   0.991   .     S
O1047  H1048   0.991   .     S
O1049  H1050   0.991   .     S
O1051  H1052   0.991   .     S
O1053  H1054   0.992   .     S
O1055  H1056   0.973   .     S
O1057  C1061   1.292   .     A
O1057  Cu1069  1.973   .     S
O1058  C1062   1.292   .     A
O1058  Cu1070  1.973   .     S
O1059  Cu1070  1.963   .     S
O1059  C1149   1.297   .     S
O1060  Cu1069  1.963   .     S
O1060  C1238   1.297   1_455 S
C1061  C1096   1.454   .     S
C1061  O1235   1.297   1_455 S
C1062  C1095   1.454   .     S
C1062  O1148   1.297   .     S
O1063  Cu1069  1.930   .     S
O1063  C1243   1.300   1_455 S
O1064  Cu1070  1.930   .     S
O1064  C1156   1.304   .     S
O1065  Cu1070  1.918   .     S
O1065  C1067   1.296   .     A
O1066  C1068   1.301   .     A
O1066  Cu1069  1.918   .     S
C1067  C1071   1.470   .     S
C1067  O1151   1.300   .     S
C1068  C1072   1.488   .     S
C1068  O1240   1.304   1_455 S
Cu1069 N1103   2.019   .     S
Cu1069 Cu1246  2.687   1_455 S
Cu1070 N1104   2.019   .     S
Cu1070 Cu1157  2.687   .     S
C1071  C1075   1.405   .     A
C1071  C1077   1.395   .     A
C1072  C1076   1.411   .     A
C1072  C1078   1.409   .     A
C1073  O1129   1.383   .     S
C1073  C1081   1.417   .     A
C1073  C1075   1.414   .     A
C1074  O1131   1.384   .     S
C1074  C1082   1.418   .     A
C1074  C1076   1.416   .     A
C1075  O1212   1.385   .     S
C1076  O1295   1.384   1_455 S
C1077  O1117   1.381   .     S
C1077  C1079   1.421   .     A
C1078  O1115   1.382   .     S
C1078  C1080   1.421   .     A
C1079  C1083   1.428   .     A
C1079  C1081   1.423   .     A
C1080  C1082   1.419   .     A
C1080  C1084   1.425   .     A
C1081  C295    1.413   1_556 S
C1083  C1086   1.423   .     A
C1083  C292    1.411   1_556 S
C1084  C1085   1.423   .     A
C1085  O1133   1.382   .     S
C1085  C1087   1.399   .     A
C1086  O1135   1.381   .     S
C1086  C1088   1.402   .     A
C1087  O1105   1.384   .     S
C1088  O1110   1.384   .     S
C1088  C290    1.417   1_556 S
C1089  H1091   1.084   .     S
C1089  C1184   1.400   .     S
C1090  H1092   1.084   .     S
C1090  C1358   1.383   .     S
C1090  C1271   1.400   1_455 S
C1093  O1137   1.374   .     S
C1093  C1095   1.412   .     A
C1093  C1353   1.383   .     S
C1094  C1096   1.412   .     A
C1094  O1139   1.374   .     S
C1095  C1178   1.400   .     S
C1096  C1265   1.400   1_455 S
C1097  H1099   1.082   .     S
C1097  N1104   1.365   .     A
C1097  C1101   1.430   .     A
C1098  C1102   1.406   .     A
C1098  H1100   1.082   .     S
C1098  N1103   1.352   .     A
C1101  N1103   1.373   .     A
C1101  O1141   1.378   .     S
C1102  N1104   1.392   .     A
C1102  O1143   1.375   .     S
C1106  H1108   1.113   .     S
C1106  O313    1.412   1_556 S
C1106  H315    1.113   1_556 S
C1106  H581    1.109   1_556 S
O1110  C1111   1.408   .     S
C1111  H1112   1.109   .     S
C1111  H1113   1.112   .     S
C1111  H1114   1.113   .     S
O1115  H1116   0.991   .     S
O1117  H1118   0.991   .     S
O1119  C1120   1.412   .     S
O1119  C1164   1.384   .     S
C1120  H1123   1.112   .     S
C1120  H1122   1.109   .     S
C1120  H1121   1.114   .     S
O1124  C1125   1.412   .     S
O1124  C1251   1.385   1_455 S
C1125  H1127   1.109   .     S
C1125  H1128   1.110   .     S
C1125  H1302   1.114   1_455 S
H1126  C1213   1.114   .     S
O1129  H1218   0.991   .     S
H1130  O1305   0.991   1_455 S
O1131  H1308   0.990   1_455 S
H1132  O1219   0.990   .     S
O1133  H1134   0.991   .     S
O1135  H1136   0.991   .     S
O1137  H1138   0.991   .     S
O1139  H1140   0.991   .     S
O1141  H1142   0.992   .     S
O1143  H1144   0.973   .     S
O1145  C1149   1.292   .     A
O1145  Cu1157  1.973   .     S
O1146  C1150   1.292   .     A
O1146  Cu1158  1.973   .     S
O1147  Cu1158  1.963   .     S
O1147  C1237   1.297   .     S
O1148  Cu1157  1.963   .     S
C1149  C1184   1.454   .     S
C1150  C1183   1.454   .     S
C1150  O1236   1.297   .     S
O1151  Cu1157  1.930   .     S
O1152  Cu1158  1.930   .     S
O1152  C1244   1.304   .     S
O1153  Cu1158  1.918   .     S
O1153  C1155   1.296   .     A
O1154  C1156   1.301   .     A
O1154  Cu1157  1.918   .     S
C1155  C1159   1.470   .     S
C1155  O1239   1.300   .     S
C1156  C1160   1.488   .     S
Cu1157 N1191   2.019   .     S
Cu1158 N1192   2.019   .     S
Cu1158 Cu1245  2.687   .     S
C1159  C1163   1.405   .     A
C1159  C1165   1.395   .     A
C1160  C1164   1.411   .     A
C1160  C1166   1.409   .     A
C1161  O1217   1.383   .     S
C1161  C1169   1.417   .     A
C1161  C1163   1.414   .     A
C1162  O1219   1.384   .     S
C1162  C1170   1.418   .     A
C1162  C1164   1.416   .     A
C1163  O1300   1.385   .     S
C1165  O1205   1.381   .     S
C1165  C1167   1.421   .     A
C1166  O1203   1.382   .     S
C1166  C1168   1.421   .     A
C1167  C1171   1.428   .     A
C1167  C1169   1.423   .     A
C1168  C1170   1.419   .     A
C1168  C1172   1.425   .     A
C1169  C383    1.413   1_556 S
C1171  C1174   1.423   .     A
C1171  C380    1.411   1_556 S
C1172  C1173   1.423   .     A
C1173  O1221   1.382   .     S
C1173  C1175   1.399   .     A
C1174  O1223   1.381   .     S
C1174  C1176   1.402   .     A
C1175  O1193   1.384   .     S
C1176  O1198   1.384   .     S
C1176  C378    1.417   1_556 S
C1177  H1179   1.084   .     S
C1177  C1272   1.400   .     S
C1178  H1180   1.084   .     S
C1178  C1446   1.383   .     S
C1181  O1225   1.374   .     S
C1181  C1183   1.412   .     A
C1181  C1441   1.383   .     S
C1182  C1184   1.412   .     A
C1182  O1227   1.374   .     S
C1183  C1266   1.400   .     S
C1185  H1187   1.082   .     S
C1185  N1192   1.365   .     A
C1185  C1189   1.430   .     A
C1186  C1190   1.406   .     A
C1186  H1188   1.082   .     S
C1186  N1191   1.352   .     A
C1189  N1191   1.373   .     A
C1189  O1229   1.378   .     S
C1190  N1192   1.392   .     A
C1190  O1231   1.375   .     S
C1194  H1196   1.113   .     S
C1194  O401    1.412   1_556 S
C1194  H403    1.113   1_556 S
C1194  H669    1.109   1_556 S
O1198  C1199   1.408   .     S
C1199  H1200   1.109   .     S
C1199  H1201   1.112   .     S
C1199  H1202   1.113   .     S
O1203  H1204   0.991   .     S
O1205  H1206   0.991   .     S
O1207  C1208   1.412   .     S
O1207  C1252   1.384   .     S
C1208  H1211   1.112   .     S
C1208  H1210   1.109   .     S
C1208  H1209   1.114   .     S
O1212  C1213   1.412   .     S
C1213  H1215   1.109   .     S
C1213  H1216   1.110   .     S
H1214  C1301   1.114   .     S
O1217  H1306   0.991   .     S
H1220  O1307   0.990   .     S
O1221  H1222   0.991   .     S
O1223  H1224   0.991   .     S
O1225  H1226   0.991   .     S
O1227  H1228   0.991   .     S
O1229  H1230   0.992   .     S
O1231  H1232   0.973   .     S
O1233  C1237   1.292   .     A
O1233  Cu1245  1.973   .     S
O1234  C1238   1.292   .     A
O1234  Cu1246  1.973   .     S
O1235  Cu1246  1.963   .     S
O1235  C1061   1.297   1_655 S
O1236  Cu1245  1.963   .     S
C1237  C1272   1.454   .     S
C1238  C1271   1.454   .     S
C1238  O1060   1.297   1_655 S
O1239  Cu1245  1.930   .     S
O1240  Cu1246  1.930   .     S
O1240  C1068   1.304   1_655 S
O1241  Cu1246  1.918   .     S
O1241  C1243   1.296   .     A
O1242  C1244   1.301   .     A
O1242  Cu1245  1.918   .     S
C1243  C1247   1.470   .     S
C1243  O1063   1.300   1_655 S
C1244  C1248   1.488   .     S
Cu1245 N1279   2.019   .     S
Cu1246 N1280   2.019   .     S
Cu1246 Cu1069  2.687   1_655 S
C1247  C1251   1.405   .     A
C1247  C1253   1.395   .     A
C1248  C1252   1.411   .     A
C1248  C1254   1.409   .     A
C1249  O1305   1.383   .     S
C1249  C1257   1.417   .     A
C1249  C1251   1.414   .     A
C1250  O1307   1.384   .     S
C1250  C1258   1.418   .     A
C1250  C1252   1.416   .     A
C1251  O1124   1.385   1_655 S
C1253  O1293   1.381   .     S
C1253  C1255   1.421   .     A
C1254  O1291   1.382   .     S
C1254  C1256   1.421   .     A
C1255  C1259   1.428   .     A
C1255  C1257   1.423   .     A
C1256  C1258   1.419   .     A
C1256  C1260   1.425   .     A
C1257  C471    1.413   1_556 S
C1259  C1262   1.423   .     A
C1259  C468    1.411   1_556 S
C1260  C1261   1.423   .     A
C1261  O1309   1.382   .     S
C1261  C1263   1.399   .     A
C1262  O1311   1.381   .     S
C1262  C1264   1.402   .     A
C1263  O1281   1.384   .     S
C1264  O1286   1.384   .     S
C1264  C466    1.417   1_556 S
C1265  H1267   1.084   .     S
C1265  C1096   1.400   1_655 S
C1266  H1268   1.084   .     S
C1266  C1534   1.383   .     S
C1269  O1313   1.374   .     S
C1269  C1271   1.412   .     A
C1269  C1529   1.383   .     S
C1270  C1272   1.412   .     A
C1270  O1315   1.374   .     S
C1271  C1090   1.400   1_655 S
C1273  H1275   1.082   .     S
C1273  N1280   1.365   .     A
C1273  C1277   1.430   .     A
C1274  C1278   1.406   .     A
C1274  H1276   1.082   .     S
C1274  N1279   1.352   .     A
C1277  N1279   1.373   .     A
C1277  O1317   1.378   .     S
C1278  N1280   1.392   .     A
C1278  O1319   1.375   .     S
C1282  H1284   1.113   .     S
C1282  O489    1.412   1_556 S
C1282  H491    1.113   1_556 S
C1282  H757    1.109   1_556 S
O1286  C1287   1.408   .     S
C1287  H1288   1.109   .     S
C1287  H1289   1.112   .     S
C1287  H1290   1.113   .     S
O1291  H1292   0.991   .     S
O1293  H1294   0.991   .     S
O1295  C1296   1.412   .     S
O1295  C1076   1.384   1_655 S
C1296  H1299   1.112   .     S
C1296  H1298   1.109   .     S
C1296  H1297   1.114   .     S
O1300  C1301   1.412   .     S
C1301  H1303   1.109   .     S
C1301  H1304   1.110   .     S
H1302  C1125   1.114   1_655 S
O1305  H1130   0.991   1_655 S
H1308  O1131   0.990   1_655 S
O1309  H1310   0.991   .     S
O1311  H1312   0.991   .     S
O1313  H1314   0.991   .     S
O1315  H1316   0.991   .     S
O1317  H1318   0.992   .     S
O1319  H1320   0.973   .     S
O1321  C1325   1.292   .     A
O1321  Cu1333  1.973   .     S
O1322  C1326   1.292   .     A
O1322  Cu1334  1.973   .     S
O1323  Cu1334  1.963   .     S
O1323  C1413   1.297   .     S
O1324  Cu1333  1.963   .     S
O1324  C1502   1.297   1_455 S
C1325  C1360   1.454   .     S
C1325  O1499   1.297   1_455 S
C1326  C1359   1.454   .     S
C1326  O1412   1.297   .     S
O1327  Cu1333  1.930   .     S
O1327  C1507   1.300   1_455 S
O1328  Cu1334  1.930   .     S
O1328  C1420   1.304   .     S
O1329  Cu1334  1.918   .     S
O1329  C1331   1.296   .     A
O1330  C1332   1.301   .     A
O1330  Cu1333  1.918   .     S
C1331  C1335   1.470   .     S
C1331  O1415   1.300   .     S
C1332  C1336   1.488   .     S
C1332  O1504   1.304   1_455 S
Cu1333 N1367   2.019   .     S
Cu1333 Cu1510  2.687   1_455 S
Cu1334 N1368   2.019   .     S
Cu1334 Cu1421  2.687   .     S
C1335  C1339   1.405   .     A
C1335  C1341   1.395   .     A
C1336  C1340   1.411   .     A
C1336  C1342   1.409   .     A
C1337  O1393   1.383   .     S
C1337  C1345   1.417   .     A
C1337  C1339   1.414   .     A
C1338  O1395   1.384   .     S
C1338  C1346   1.418   .     A
C1338  C1340   1.416   .     A
C1339  O1476   1.385   .     S
C1340  O1559   1.384   1_455 S
C1341  O1381   1.381   .     S
C1341  C1343   1.421   .     A
C1342  O1379   1.382   .     S
C1342  C1344   1.421   .     A
C1343  C1347   1.428   .     A
C1343  C1345   1.423   .     A
C1344  C1346   1.419   .     A
C1344  C1348   1.425   .     A
C1345  C559    1.413   1_556 S
C1347  C1350   1.423   .     A
C1347  C556    1.411   1_556 S
C1348  C1349   1.423   .     A
C1349  O1397   1.382   .     S
C1349  C1351   1.399   .     A
C1350  O1399   1.381   .     S
C1350  C1352   1.402   .     A
C1351  O1369   1.384   .     S
C1352  O1374   1.384   .     S
C1352  C554    1.417   1_556 S
C1353  H1355   1.084   .     S
C1353  C1448   1.400   .     S
C1354  H1356   1.084   .     S
C1354  C830    1.383   1_565 S
C1354  C1535   1.400   1_455 S
C1357  O1401   1.374   .     S
C1357  C1359   1.412   .     A
C1357  C825    1.383   1_565 S
C1358  C1360   1.412   .     A
C1358  O1403   1.374   .     S
C1359  C1442   1.400   .     S
C1360  C1529   1.400   1_455 S
C1361  H1363   1.082   .     S
C1361  N1368   1.365   .     A
C1361  C1365   1.430   .     A
C1362  C1366   1.406   .     A
C1362  H1364   1.082   .     S
C1362  N1367   1.352   .     A
C1365  N1367   1.373   .     A
C1365  O1405   1.378   .     S
C1366  N1368   1.392   .     A
C1366  O1407   1.375   .     S
C1370  H1372   1.113   .     S
C1370  O577    1.412   1_556 S
C1370  H579    1.113   1_556 S
C1370  H53     1.109   1_566 S
O1374  C1375   1.408   .     S
C1375  H1376   1.109   .     S
C1375  H1377   1.112   .     S
C1375  H1378   1.113   .     S
O1379  H1380   0.991   .     S
O1381  H1382   0.991   .     S
O1383  C1384   1.412   .     S
O1383  C1428   1.384   .     S
C1384  H1387   1.112   .     S
C1384  H1386   1.109   .     S
C1384  H1385   1.114   .     S
O1388  C1389   1.412   .     S
O1388  C1515   1.385   1_455 S
C1389  H1391   1.109   .     S
C1389  H1392   1.110   .     S
C1389  H1566   1.114   1_455 S
H1390  C1477   1.114   .     S
O1393  H1482   0.991   .     S
H1394  O1569   0.991   1_455 S
O1395  H1572   0.990   1_455 S
H1396  O1483   0.990   .     S
O1397  H1398   0.991   .     S
O1399  H1400   0.991   .     S
O1401  H1402   0.991   .     S
O1403  H1404   0.991   .     S
O1405  H1406   0.992   .     S
O1407  H1408   0.973   .     S
O1409  C1413   1.292   .     A
O1409  Cu1421  1.973   .     S
O1410  C1414   1.292   .     A
O1410  Cu1422  1.973   .     S
O1411  Cu1422  1.963   .     S
O1411  C1501   1.297   .     S
O1412  Cu1421  1.963   .     S
C1413  C1448   1.454   .     S
C1414  C1447   1.454   .     S
C1414  O1500   1.297   .     S
O1415  Cu1421  1.930   .     S
O1416  Cu1422  1.930   .     S
O1416  C1508   1.304   .     S
O1417  Cu1422  1.918   .     S
O1417  C1419   1.296   .     A
O1418  C1420   1.301   .     A
O1418  Cu1421  1.918   .     S
C1419  C1423   1.470   .     S
C1419  O1503   1.300   .     S
C1420  C1424   1.488   .     S
Cu1421 N1455   2.019   .     S
Cu1422 N1456   2.019   .     S
Cu1422 Cu1509  2.687   .     S
C1423  C1427   1.405   .     A
C1423  C1429   1.395   .     A
C1424  C1428   1.411   .     A
C1424  C1430   1.409   .     A
C1425  O1481   1.383   .     S
C1425  C1433   1.417   .     A
C1425  C1427   1.414   .     A
C1426  O1483   1.384   .     S
C1426  C1434   1.418   .     A
C1426  C1428   1.416   .     A
C1427  O1564   1.385   .     S
C1429  O1469   1.381   .     S
C1429  C1431   1.421   .     A
C1430  O1467   1.382   .     S
C1430  C1432   1.421   .     A
C1431  C1435   1.428   .     A
C1431  C1433   1.423   .     A
C1432  C1434   1.419   .     A
C1432  C1436   1.425   .     A
C1433  C647    1.413   1_556 S
C1435  C1438   1.423   .     A
C1435  C644    1.411   1_556 S
C1436  C1437   1.423   .     A
C1437  O1485   1.382   .     S
C1437  C1439   1.399   .     A
C1438  O1487   1.381   .     S
C1438  C1440   1.402   .     A
C1439  O1457   1.384   .     S
C1440  O1462   1.384   .     S
C1440  C642    1.417   1_556 S
C1441  H1443   1.084   .     S
C1441  C1536   1.400   .     S
C1442  H1444   1.084   .     S
C1442  C918    1.383   1_565 S
C1445  O1489   1.374   .     S
C1445  C1447   1.412   .     A
C1445  C913    1.383   1_565 S
C1446  C1448   1.412   .     A
C1446  O1491   1.374   .     S
C1447  C1530   1.400   .     S
C1449  H1451   1.082   .     S
C1449  N1456   1.365   .     A
C1449  C1453   1.430   .     A
C1450  C1454   1.406   .     A
C1450  H1452   1.082   .     S
C1450  N1455   1.352   .     A
C1453  N1455   1.373   .     A
C1453  O1493   1.378   .     S
C1454  N1456   1.392   .     A
C1454  O1495   1.375   .     S
C1458  H1460   1.113   .     S
C1458  O665    1.412   1_556 S
C1458  H667    1.113   1_556 S
C1458  H141    1.109   1_566 S
O1462  C1463   1.408   .     S
C1463  H1464   1.109   .     S
C1463  H1465   1.112   .     S
C1463  H1466   1.113   .     S
O1467  H1468   0.991   .     S
O1469  H1470   0.991   .     S
O1471  C1472   1.412   .     S
O1471  C1516   1.384   .     S
C1472  H1475   1.112   .     S
C1472  H1474   1.109   .     S
C1472  H1473   1.114   .     S
O1476  C1477   1.412   .     S
C1477  H1479   1.109   .     S
C1477  H1480   1.110   .     S
H1478  C1565   1.114   .     S
O1481  H1570   0.991   .     S
H1484  O1571   0.990   .     S
O1485  H1486   0.991   .     S
O1487  H1488   0.991   .     S
O1489  H1490   0.991   .     S
O1491  H1492   0.991   .     S
O1493  H1494   0.992   .     S
O1495  H1496   0.973   .     S
O1497  C1501   1.292   .     A
O1497  Cu1509  1.973   .     S
O1498  C1502   1.292   .     A
O1498  Cu1510  1.973   .     S
O1499  Cu1510  1.963   .     S
O1499  C1325   1.297   1_655 S
O1500  Cu1509  1.963   .     S
C1501  C1536   1.454   .     S
C1502  C1535   1.454   .     S
C1502  O1324   1.297   1_655 S
O1503  Cu1509  1.930   .     S
O1504  Cu1510  1.930   .     S
O1504  C1332   1.304   1_655 S
O1505  Cu1510  1.918   .     S
O1505  C1507   1.296   .     A
O1506  C1508   1.301   .     A
O1506  Cu1509  1.918   .     S
C1507  C1511   1.470   .     S
C1507  O1327   1.300   1_655 S
C1508  C1512   1.488   .     S
Cu1509 N1543   2.019   .     S
Cu1510 N1544   2.019   .     S
Cu1510 Cu1333  2.687   1_655 S
C1511  C1515   1.405   .     A
C1511  C1517   1.395   .     A
C1512  C1516   1.411   .     A
C1512  C1518   1.409   .     A
C1513  O1569   1.383   .     S
C1513  C1521   1.417   .     A
C1513  C1515   1.414   .     A
C1514  O1571   1.384   .     S
C1514  C1522   1.418   .     A
C1514  C1516   1.416   .     A
C1515  O1388   1.385   1_655 S
C1517  O1557   1.381   .     S
C1517  C1519   1.421   .     A
C1518  O1555   1.382   .     S
C1518  C1520   1.421   .     A
C1519  C1523   1.428   .     A
C1519  C1521   1.423   .     A
C1520  C1522   1.419   .     A
C1520  C1524   1.425   .     A
C1521  C735    1.413   1_556 S
C1523  C1526   1.423   .     A
C1523  C732    1.411   1_556 S
C1524  C1525   1.423   .     A
C1525  O1573   1.382   .     S
C1525  C1527   1.399   .     A
C1526  O1575   1.381   .     S
C1526  C1528   1.402   .     A
C1527  O1545   1.384   .     S
C1528  O1550   1.384   .     S
C1528  C730    1.417   1_556 S
C1529  H1531   1.084   .     S
C1529  C1360   1.400   1_655 S
C1530  H1532   1.084   .     S
C1530  C1006   1.383   1_565 S
C1533  O1577   1.374   .     S
C1533  C1535   1.412   .     A
C1533  C1001   1.383   1_565 S
C1534  C1536   1.412   .     A
C1534  O1579   1.374   .     S
C1535  C1354   1.400   1_655 S
C1537  H1539   1.082   .     S
C1537  N1544   1.365   .     A
C1537  C1541   1.430   .     A
C1538  C1542   1.406   .     A
C1538  H1540   1.082   .     S
C1538  N1543   1.352   .     A
C1541  N1543   1.373   .     A
C1541  O1581   1.378   .     S
C1542  N1544   1.392   .     A
C1542  O1583   1.375   .     S
C1546  H1548   1.113   .     S
C1546  O753    1.412   1_556 S
C1546  H755    1.113   1_556 S
C1546  H229    1.109   1_566 S
O1550  C1551   1.408   .     S
C1551  H1552   1.109   .     S
C1551  H1553   1.112   .     S
C1551  H1554   1.113   .     S
O1555  H1556   0.991   .     S
O1557  H1558   0.991   .     S
O1559  C1560   1.412   .     S
O1559  C1340   1.384   1_655 S
C1560  H1563   1.112   .     S
C1560  H1562   1.109   .     S
C1560  H1561   1.114   .     S
O1564  C1565   1.412   .     S
C1565  H1567   1.109   .     S
C1565  H1568   1.110   .     S
H1566  C1389   1.114   1_655 S
O1569  H1394   0.991   1_655 S
H1572  O1395   0.990   1_655 S
O1573  H1574   0.991   .     S
O1575  H1576   0.991   .     S
O1577  H1578   0.991   .     S
O1579  H1580   0.991   .     S
O1581  H1582   0.992   .     S
O1583  H1584   0.973   .     S
