data_str_m1_o1_o17_pcu_sym.66
_audit_creation_date              2020-01-03
_audit_creation_method            'Materials Studio'
_symmetry_space_group_name_H-M    'P1'
_symmetry_Int_Tables_number       1
_symmetry_cell_setting            triclinic
loop_
_symmetry_equiv_pos_as_xyz
  x,y,z
_cell_length_a                    36.5959
_cell_length_b                    36.6153
_cell_length_c                    34.5227
_cell_angle_alpha                 90.0526
_cell_angle_beta                  90.0351
_cell_angle_gamma                 89.9231
loop_
_atom_site_label
_atom_site_type_symbol
_atom_site_fract_x
_atom_site_fract_y
_atom_site_fract_z
_atom_site_U_iso_or_equiv
_atom_site_adp_type
_atom_site_occupancy
C1     C     0.48217   0.27833   0.41759   0.00000  Uiso   1.00
C2     C     0.27172   0.47467   0.08184   0.00000  Uiso   1.00
C3     C     0.22080   0.01703   0.54135   0.00000  Uiso   1.00
C4     C     0.48301   0.27922   0.45867   0.00000  Uiso   1.00
C5     C     0.01932   0.22227   0.54088   0.00000  Uiso   1.00
C6     C     0.22229   0.01940   0.45911   0.00000  Uiso   1.00
C7     C     0.27917   0.48294   0.54135   0.00000  Uiso   1.00
C8     C     0.26712   0.47087   0.95863   0.00000  Uiso   1.00
C9     C     0.23056   0.02767   0.04091   0.00000  Uiso   1.00
C10    C     0.02789   0.23066   0.95904   0.00000  Uiso   1.00
C11    C     0.47024   0.26594   0.04131   0.00000  Uiso   1.00
C12    C     0.23291   0.02916   0.95867   0.00000  Uiso   1.00
C13    C     0.47370   0.27036   0.91806   0.00000  Uiso   1.00
C14    C     0.26939   0.47231   0.04088   0.00000  Uiso   1.00
C15    C     0.47147   0.26799   0.95904   0.00000  Uiso   1.00
C16    C     0.02900   0.23254   0.04136   0.00000  Uiso   1.00
C17    C     0.09783   0.34836   0.25098   0.00000  Uiso   1.00
C18    C     0.40195   0.15180   0.74971   0.00000  Uiso   1.00
C19    C     0.15196   0.09819   0.24976   0.00000  Uiso   1.00
C20    C     0.34820   0.40197   0.74977   0.00000  Uiso   1.00
C21    C     0.40180   0.15196   0.24974   0.00000  Uiso   1.00
C22    C     0.09804   0.34821   0.74978   0.00000  Uiso   1.00
C23    C     0.34802   0.40200   0.24998   0.00000  Uiso   1.00
C24    C     0.02824   0.23204   0.08245   0.00000  Uiso   1.00
C25    C     0.15200   0.09799   0.75003   0.00000  Uiso   1.00
C26    C     0.09802   0.15200   0.74999   0.00000  Uiso   1.00
C27    C     0.40199   0.34799   0.25003   0.00000  Uiso   1.00
C28    C     0.15196   0.40180   0.75022   0.00000  Uiso   1.00
C29    C     0.34821   0.09805   0.25026   0.00000  Uiso   1.00
C30    C     0.40180   0.34804   0.75023   0.00000  Uiso   1.00
C31    C     0.09803   0.15181   0.25025   0.00000  Uiso   1.00
C32    C     0.34804   0.09820   0.75028   0.00000  Uiso   1.00
C33    C     0.15216   0.40163   0.24902   0.00000  Uiso   1.00
C34    C     0.00001   0.25002   0.47919   0.00000  Uiso   1.00
C35    C     0.26798   0.47179   0.91757   0.00000  Uiso   1.00
C36    C     0.49999   0.25001   0.52033   0.00000  Uiso   1.00
C37    C     0.25001   0.00003   0.47967   0.00000  Uiso   1.00
C38    C     0.24999  -0.00000   0.52081   0.00000  Uiso   1.00
C39    C     0.25001   0.00001   0.97919   0.00000  Uiso   1.00
C40    C     0.24999  -0.00000   0.02033   0.00000  Uiso   1.00
C41    C     0.49965   0.24927   0.97961   0.00000  Uiso   1.00
C42    C     0.49962   0.24922   0.02077   0.00000  Uiso   1.00
C43    C     0.48251   0.33369   0.37793   0.00000  Uiso   1.00
C44    C     0.08284   0.21047   0.60549   0.00000  Uiso   1.00
C45    C     0.21062   0.08292   0.39456   0.00000  Uiso   1.00
C46    C     0.22821   0.02530   0.08186   0.00000  Uiso   1.00
C47    C     0.33369   0.48247   0.62206   0.00000  Uiso   1.00
C48    C     0.01740   0.16632   0.37792   0.00000  Uiso   1.00
C49    C     0.41709   0.28946   0.60547   0.00000  Uiso   1.00
C50    C     0.28949   0.41718   0.39449   0.00000  Uiso   1.00
C51    C     0.16630   0.01764   0.62210   0.00000  Uiso   1.00
C52    C     0.23216   0.08361   0.87793   0.00000  Uiso   1.00
C53    C     0.33295   0.46068   0.10548   0.00000  Uiso   1.00
C54    C     0.45730   0.33078   0.89396   0.00000  Uiso   1.00
C55    C     0.08398   0.23339   0.12154   0.00000  Uiso   1.00
C56    C     0.26772   0.41639   0.87790   0.00000  Uiso   1.00
C57    C     0.02651   0.22948   0.91799   0.00000  Uiso   1.00
C58    C     0.16697   0.03923   0.10543   0.00000  Uiso   1.00
C59    C     0.04576   0.17167   0.88785   0.00000  Uiso   1.00
C60    C     0.41618   0.26678   0.12250   0.00000  Uiso   1.00
C61    C     0.47131   0.26718   0.08238   0.00000  Uiso   1.00
C62    C     0.00003   0.25003   0.39788   0.00000  Uiso   1.00
C63    C     0.49997   0.24999   0.60171   0.00000  Uiso   1.00
C64    C     0.25002   0.00005   0.39829   0.00000  Uiso   1.00
C65    C     0.02166   0.22462   0.58185   0.00000  Uiso   1.00
C66    C     0.24997   0.49996   0.60212   0.00000  Uiso   1.00
C67    C     0.25003   0.00002   0.89789   0.00000  Uiso   1.00
C68    C     0.24997   0.49998   0.10171   0.00000  Uiso   1.00
C69    C     0.00012   0.24997   0.89822   0.00000  Uiso   1.00
C70    C     0.49990   0.24984   0.10211   0.00000  Uiso   1.00
C71    C     0.03163   0.19102   0.47957   0.00000  Uiso   1.00
C72    C     0.46447   0.30690   0.52011   0.00000  Uiso   1.00
C73    C     0.30691   0.46448   0.47992   0.00000  Uiso   1.00
C74    C     0.19100   0.03167   0.52039   0.00000  Uiso   1.00
C75    C     0.46840   0.30903   0.47964   0.00000  Uiso   1.00
C76    C     0.22466   0.02176   0.41815   0.00000  Uiso   1.00
C77    C     0.03550   0.19311   0.52005   0.00000  Uiso   1.00
C78    C     0.19313   0.03560   0.47992   0.00000  Uiso   1.00
C79    C     0.30899   0.46833   0.52040   0.00000  Uiso   1.00
C80    C     0.28180   0.44110   0.97957   0.00000  Uiso   1.00
C81    C     0.21431   0.05679   0.02011   0.00000  Uiso   1.00
C82    C     0.05655   0.21375   0.97996   0.00000  Uiso   1.00
C83    C     0.44006   0.27980   0.02039   0.00000  Uiso   1.00
C84    C     0.21822   0.05892   0.97964   0.00000  Uiso   1.00
C85    C     0.28565   0.44319   0.02005   0.00000  Uiso   1.00
C86    C     0.44193   0.28350   0.97988   0.00000  Uiso   1.00
C87    C     0.27825   0.48208   0.58242   0.00000  Uiso   1.00
C88    C     0.05870   0.21767   0.02042   0.00000  Uiso   1.00
C89    C     0.25000   0.00002   0.35584   0.00000  Uiso   1.00
C90    C     0.24999   0.49999   0.64431   0.00000  Uiso   1.00
C91    C     0.00001   0.25001   0.35570   0.00000  Uiso   1.00
C92    C     0.49999   0.25000   0.64415   0.00000  Uiso   1.00
C93    C     0.00011   0.25001   0.85582   0.00000  Uiso   1.00
C94    C     0.00000   0.24998   0.14430   0.00000  Uiso   1.00
C95    C     0.25001   0.00001   0.85570   0.00000  Uiso   1.00
C96    C     0.24999  -0.00000   0.14415   0.00000  Uiso   1.00
C97    C     0.18003   0.07006   0.24993   0.00000  Uiso   1.00
C98    C     0.01788   0.22174   0.41757   0.00000  Uiso   1.00
C99    C     0.32006   0.43003   0.74994   0.00000  Uiso   1.00
C100   C     0.42993   0.18003   0.24993   0.00000  Uiso   1.00
C101   C     0.06997   0.32007   0.74994   0.00000  Uiso   1.00
C102   C     0.31996   0.43005   0.25000   0.00000  Uiso   1.00
C103   C     0.18005   0.06995   0.75001   0.00000  Uiso   1.00
C104   C     0.06990   0.32010   0.25025   0.00000  Uiso   1.00
C105   C     0.43002   0.17994   0.74992   0.00000  Uiso   1.00
C106   C     0.18003   0.42993   0.75006   0.00000  Uiso   1.00
C107   C     0.32007   0.06998   0.25007   0.00000  Uiso   1.00
C108   C     0.42994   0.31997   0.75006   0.00000  Uiso   1.00
C109   C     0.47828   0.27536   0.58187   0.00000  Uiso   1.00
C110   C     0.06997   0.17994   0.25007   0.00000  Uiso   1.00
C111   C     0.31997   0.07006   0.75009   0.00000  Uiso   1.00
C112   C     0.18010   0.42990   0.24975   0.00000  Uiso   1.00
C113   C     0.06996   0.18005   0.75000   0.00000  Uiso   1.00
C114   C     0.43004   0.31994   0.25000   0.00000  Uiso   1.00
C115   C     0.11531   0.41239   0.25122   0.00000  Uiso   1.00
C116   C     0.38495   0.08775   0.75246   0.00000  Uiso   1.00
C117   C     0.08781   0.11493   0.24693   0.00000  Uiso   1.00
C118   C     0.41227   0.38490   0.75232   0.00000  Uiso   1.00
C119   C     0.38511   0.08785   0.24666   0.00000  Uiso   1.00
C120   C     0.27539   0.47835   0.41814   0.00000  Uiso   1.00
C121   C     0.11505   0.41226   0.75229   0.00000  Uiso   1.00
C122   C     0.41145   0.38449   0.25906   0.00000  Uiso   1.00
C123   C     0.08853   0.11544   0.74116   0.00000  Uiso   1.00
C124   C     0.11544   0.08854   0.74113   0.00000  Uiso   1.00
C125   C     0.38457   0.41143   0.25897   0.00000  Uiso   1.00
C126   C     0.08782   0.38510   0.75320   0.00000  Uiso   1.00
C127   C     0.41228   0.11507   0.24752   0.00000  Uiso   1.00
C128   C     0.38508   0.41215   0.75319   0.00000  Uiso   1.00
C129   C     0.11507   0.08775   0.24778   0.00000  Uiso   1.00
C130   C     0.41218   0.11492   0.75330   0.00000  Uiso   1.00
C131   C     0.22169   0.01786   0.58242   0.00000  Uiso   1.00
C132   C     0.08787   0.38566   0.25293   0.00000  Uiso   1.00
C133   C     0.36504   0.16225   0.74752   0.00000  Uiso   1.00
C134   C     0.13468   0.33760   0.24876   0.00000  Uiso   1.00
C135   C     0.33773   0.36511   0.74771   0.00000  Uiso   1.00
C136   C     0.16217   0.13507   0.25311   0.00000  Uiso   1.00
C137   C     0.13496   0.33774   0.74770   0.00000  Uiso   1.00
C138   C     0.36489   0.16216   0.25333   0.00000  Uiso   1.00
C139   C     0.16148   0.13453   0.75892   0.00000  Uiso   1.00
C140   C     0.33856   0.36547   0.24100   0.00000  Uiso   1.00
C141   C     0.36546   0.33857   0.24098   0.00000  Uiso   1.00
C142   C     0.23207   0.02825   0.91760   0.00000  Uiso   1.00
C143   C     0.13459   0.16145   0.75885   0.00000  Uiso   1.00
C144   C     0.33773   0.13493   0.25249   0.00000  Uiso   1.00
C145   C     0.16219   0.36490   0.74681   0.00000  Uiso   1.00
C146   C     0.13492   0.16225   0.25220   0.00000  Uiso   1.00
C147   C     0.36491   0.33786   0.74679   0.00000  Uiso   1.00
C148   C     0.16212   0.36432   0.24709   0.00000  Uiso   1.00
C149   C     0.33782   0.13508   0.74671   0.00000  Uiso   1.00
C150   C     0.01704   0.22083   0.45863   0.00000  Uiso   1.00
C151   C     0.48064   0.27773   0.54091   0.00000  Uiso   1.00
C152   C     0.27774   0.48069   0.45910   0.00000  Uiso   1.00
H153   H     0.03590   0.13801   0.47777   0.00000  Uiso   1.00
H154   H     0.17580   0.09332   0.02274   0.00000  Uiso   1.00
H155   H     0.25425   0.39959   0.90048   0.00000  Uiso   1.00
H156   H     0.21167   0.07617   0.10444   0.00000  Uiso   1.00
H157   H     0.15258   0.05732   0.12627   0.00000  Uiso   1.00
H158   H     0.16355   0.01051   0.11511   0.00000  Uiso   1.00
H159   H     0.15424   0.04230   0.07645   0.00000  Uiso   1.00
H160   H     0.07965   0.21842   0.89651   0.00000  Uiso   1.00
H161   H     0.06558   0.15432   0.90376   0.00000  Uiso   1.00
H162   H     0.04910   0.16629   0.85642   0.00000  Uiso   1.00
H163   H     0.01757   0.16381   0.89647   0.00000  Uiso   1.00
H164   H     0.43800   0.31281   0.09390   0.00000  Uiso   1.00
H165   H     0.09177   0.17397   0.97784   0.00000  Uiso   1.00
H166   H     0.39832   0.28545   0.13939   0.00000  Uiso   1.00
H167   H     0.42736   0.24602   0.14266   0.00000  Uiso   1.00
H168   H     0.39943   0.25267   0.10028   0.00000  Uiso   1.00
H169   H     0.38695   0.28290   0.02232   0.00000  Uiso   1.00
H170   H     0.21382   0.11192   0.97798   0.00000  Uiso   1.00
H171   H     0.32414   0.40665   0.02270   0.00000  Uiso   1.00
H172   H     0.40441   0.32103   0.97719   0.00000  Uiso   1.00
H173   H     0.11166   0.21223   0.02197   0.00000  Uiso   1.00
H174   H     0.08054   0.45324   0.25372   0.00000  Uiso   1.00
H175   H     0.41766   0.04761   0.73941   0.00000  Uiso   1.00
H176   H     0.04892   0.08373   0.22766   0.00000  Uiso   1.00
H177   H     0.42604   0.34352   0.52272   0.00000  Uiso   1.00
H178   H     0.45236   0.41748   0.73911   0.00000  Uiso   1.00
H179   H     0.41629   0.04906   0.22697   0.00000  Uiso   1.00
H180   H     0.08237   0.45232   0.73896   0.00000  Uiso   1.00
H181   H     0.46121   0.37364   0.27691   0.00000  Uiso   1.00
H182   H     0.03858   0.12616   0.72381   0.00000  Uiso   1.00
H183   H     0.12619   0.03871   0.72348   0.00000  Uiso   1.00
H184   H     0.37385   0.46138   0.27625   0.00000  Uiso   1.00
H185   H     0.04898   0.41637   0.77261   0.00000  Uiso   1.00
H186   H     0.45245   0.08240   0.26055   0.00000  Uiso   1.00
H187   H     0.41628   0.45097   0.77263   0.00000  Uiso   1.00
H188   H     0.34354   0.42608   0.47724   0.00000  Uiso   1.00
H189   H     0.08248   0.04772   0.26116   0.00000  Uiso   1.00
H190   H     0.45101   0.08378   0.77294   0.00000  Uiso   1.00
H191   H     0.03770   0.37728   0.27006   0.00000  Uiso   1.00
H192   H     0.33233   0.20239   0.76053   0.00000  Uiso   1.00
H193   H     0.16944   0.29675   0.24614   0.00000  Uiso   1.00
H194   H     0.29767   0.33251   0.76099   0.00000  Uiso   1.00
H195   H     0.20103   0.16628   0.27243   0.00000  Uiso   1.00
H196   H     0.16764   0.29767   0.76100   0.00000  Uiso   1.00
H197   H     0.33373   0.20096   0.27300   0.00000  Uiso   1.00
H198   H     0.21130   0.12375   0.77662   0.00000  Uiso   1.00
H199   H     0.13796   0.03600   0.52205   0.00000  Uiso   1.00
H200   H     0.28868   0.37626   0.22348   0.00000  Uiso   1.00
H201   H     0.37625   0.28874   0.22334   0.00000  Uiso   1.00
H202   H     0.12389   0.21139   0.77618   0.00000  Uiso   1.00
H203   H     0.29755   0.16761   0.23950   0.00000  Uiso   1.00
H204   H     0.20105   0.33364   0.72742   0.00000  Uiso   1.00
H205   H     0.16752   0.20225   0.23875   0.00000  Uiso   1.00
H206   H     0.33370   0.29908   0.72729   0.00000  Uiso   1.00
H207   H     0.21233   0.37269   0.23008   0.00000  Uiso   1.00
H208   H     0.29897   0.16620   0.72706   0.00000  Uiso   1.00
H209   H     0.43626   0.31112   0.40557   0.00000  Uiso   1.00
H210   H     0.46414   0.36204   0.47800   0.00000  Uiso   1.00
H211   H     0.46390   0.35135   0.36075   0.00000  Uiso   1.00
H212   H     0.00380   0.32285   0.35815   0.00000  Uiso   1.00
H213   H     0.49600   0.35053   0.40051   0.00000  Uiso   1.00
H214   H     0.03801   0.17369   0.60435   0.00000  Uiso   1.00
H215   H     0.09717   0.19232   0.62630   0.00000  Uiso   1.00
H216   H     0.08637   0.23917   0.61523   0.00000  Uiso   1.00
H217   H     0.09557   0.20736   0.57652   0.00000  Uiso   1.00
H218   H     0.17372   0.03819   0.39561   0.00000  Uiso   1.00
H219   H     0.19249   0.09727   0.37372   0.00000  Uiso   1.00
H220   H     0.23934   0.08639   0.38488   0.00000  Uiso   1.00
H221   H     0.07390   0.15647   0.52269   0.00000  Uiso   1.00
H222   H     0.20752   0.09567   0.42354   0.00000  Uiso   1.00
H223   H     0.31105   0.43620   0.59446   0.00000  Uiso   1.00
H224   H     0.35144   0.46389   0.63917   0.00000  Uiso   1.00
H225   H     0.32289   0.00374   0.64189   0.00000  Uiso   1.00
H226   H     0.35045   0.49598   0.59947   0.00000  Uiso   1.00
H227   H     0.06374   0.18890   0.40548   0.00000  Uiso   1.00
H228   H     0.03596   0.14856   0.36079   0.00000  Uiso   1.00
H229   H     0.49613   0.17715   0.35811   0.00000  Uiso   1.00
H230   H     0.00388   0.14960   0.40053   0.00000  Uiso   1.00
H231   H     0.46189   0.32629   0.60443   0.00000  Uiso   1.00
H232   H     0.15654   0.07405   0.47733   0.00000  Uiso   1.00
H233   H     0.40276   0.30759   0.62632   0.00000  Uiso   1.00
H234   H     0.41359   0.26076   0.61514   0.00000  Uiso   1.00
H235   H     0.40435   0.29258   0.57650   0.00000  Uiso   1.00
H236   H     0.32633   0.46196   0.39561   0.00000  Uiso   1.00
H237   H     0.30764   0.40284   0.37366   0.00000  Uiso   1.00
H238   H     0.26077   0.41367   0.38477   0.00000  Uiso   1.00
H239   H     0.29261   0.40446   0.42346   0.00000  Uiso   1.00
H240   H     0.18896   0.06381   0.59446   0.00000  Uiso   1.00
H241   H     0.14866   0.03628   0.63929   0.00000  Uiso   1.00
H242   H     0.17710   0.49635   0.64188   0.00000  Uiso   1.00
H243   H     0.36202   0.46402   0.52220   0.00000  Uiso   1.00
H244   H     0.14943   0.00419   0.59952   0.00000  Uiso   1.00
H245   H     0.18603   0.06088   0.90561   0.00000  Uiso   1.00
H246   H     0.21347   0.10121   0.86076   0.00000  Uiso   1.00
H247   H     0.25347   0.07285   0.85812   0.00000  Uiso   1.00
H248   H     0.24561   0.10049   0.90049   0.00000  Uiso   1.00
H249   H     0.28821   0.42378   0.10435   0.00000  Uiso   1.00
H250   H     0.34732   0.44256   0.12630   0.00000  Uiso   1.00
H251   H     0.33640   0.48938   0.11522   0.00000  Uiso   1.00
H252   H     0.34568   0.45759   0.07651   0.00000  Uiso   1.00
H253   H     0.42207   0.28476   0.89577   0.00000  Uiso   1.00
H254   H     0.28620   0.38810   0.97776   0.00000  Uiso   1.00
H255   H     0.43860   0.34425   0.87303   0.00000  Uiso   1.00
H256   H     0.48585   0.33523   0.88418   0.00000  Uiso   1.00
H257   H     0.45381   0.34369   0.92281   0.00000  Uiso   1.00
H258   H     0.06127   0.18645   0.09520   0.00000  Uiso   1.00
H259   H     0.10186   0.21524   0.13902   0.00000  Uiso   1.00
H260   H     0.07318   0.25506   0.14089   0.00000  Uiso   1.00
H261   H     0.10059   0.24642   0.09851   0.00000  Uiso   1.00
H262   H     0.31396   0.43911   0.90551   0.00000  Uiso   1.00
H263   H     0.28635   0.39870   0.86076   0.00000  Uiso   1.00
H264   H     0.24641   0.42715   0.85808   0.00000  Uiso   1.00
N265   N     0.46179   0.30420   0.39529   0.00000  Uiso   1.00
N266   N     0.29455   0.45118   0.10428   0.00000  Uiso   1.00
N267   N     0.44924   0.29208   0.89556   0.00000  Uiso   1.00
N268   N     0.05443   0.21220   0.10489   0.00000  Uiso   1.00
N269   N     0.28840   0.44595   0.89524   0.00000  Uiso   1.00
N270   N     0.20536   0.04876   0.10431   0.00000  Uiso   1.00
N271   N     0.05280   0.20997   0.89548   0.00000  Uiso   1.00
N272   N     0.44534   0.28757   0.10459   0.00000  Uiso   1.00
N273   N     0.04442   0.20107   0.60429   0.00000  Uiso   1.00
N274   N     0.20114   0.04454   0.39571   0.00000  Uiso   1.00
N275   N     0.30415   0.46173   0.60473   0.00000  Uiso   1.00
N276   N     0.03820   0.19582   0.39523   0.00000  Uiso   1.00
N277   N     0.45550   0.29889   0.60432   0.00000  Uiso   1.00
N278   N     0.29892   0.45557   0.39569   0.00000  Uiso   1.00
N279   N     0.19584   0.03829   0.60473   0.00000  Uiso   1.00
N280   N     0.21156   0.05405   0.89531   0.00000  Uiso   1.00
O281   O     0.25000  -0.00000   0.25000   0.00000  Uiso   1.00
O282   O     0.25000   0.46964   0.66245   0.00000  Uiso   1.00
O283   O     0.30121   0.14365   0.74273   0.00000  Uiso   1.00
O284   O     0.46963   0.25000   0.33755   0.00000  Uiso   1.00
O285   O     0.03036   0.25000   0.66245   0.00000  Uiso   1.00
O286   O     0.00000   0.21964   0.83755   0.00000  Uiso   1.00
O287   O     0.00000   0.28037   0.16245   0.00000  Uiso   1.00
O288   O     0.28036   0.00000   0.83755   0.00000  Uiso   1.00
O289   O     0.21963  -0.00000   0.16245   0.00000  Uiso   1.00
O290   O     0.00000   0.28037   0.83755   0.00000  Uiso   1.00
O291   O     0.00000   0.21964   0.16245   0.00000  Uiso   1.00
O292   O     0.21963   0.00000   0.83755   0.00000  Uiso   1.00
O293   O     0.25000   0.00000   0.75000   0.00000  Uiso   1.00
O294   O     0.28036  -0.00000   0.16245   0.00000  Uiso   1.00
O295   O     0.20724   0.07307   0.27302   0.00000  Uiso   1.00
O296   O     0.29275   0.42693   0.72698   0.00000  Uiso   1.00
O297   O     0.42692   0.20724   0.27302   0.00000  Uiso   1.00
O298   O     0.07307   0.29276   0.72698   0.00000  Uiso   1.00
O299   O     0.29275   0.42693   0.27302   0.00000  Uiso   1.00
O300   O     0.20724   0.07307   0.72698   0.00000  Uiso   1.00
O301   O     0.07307   0.29276   0.27302   0.00000  Uiso   1.00
O302   O     0.42692   0.20724   0.72698   0.00000  Uiso   1.00
O303   O     0.20724   0.42693   0.72698   0.00000  Uiso   1.00
O304   O     0.00000   0.25000   0.25000   0.00000  Uiso   1.00
O305   O     0.29275   0.07307   0.27302   0.00000  Uiso   1.00
O306   O     0.42692   0.29275   0.72698   0.00000  Uiso   1.00
O307   O     0.07307   0.20725   0.27302   0.00000  Uiso   1.00
O308   O     0.29275   0.07307   0.72698   0.00000  Uiso   1.00
O309   O     0.20724   0.42693   0.27302   0.00000  Uiso   1.00
O310   O     0.07307   0.20725   0.72698   0.00000  Uiso   1.00
O311   O     0.42692   0.29275   0.27302   0.00000  Uiso   1.00
O312   O     0.45724   0.32307   0.77302   0.00000  Uiso   1.00
O313   O     0.04275   0.17693   0.22698   0.00000  Uiso   1.00
O314   O     0.17692   0.45725   0.77302   0.00000  Uiso   1.00
O315   O     0.00000   0.25000   0.75000   0.00000  Uiso   1.00
O316   O     0.32307   0.04275   0.22698   0.00000  Uiso   1.00
O317   O     0.04275   0.17693   0.77302   0.00000  Uiso   1.00
O318   O     0.45724   0.32307   0.22698   0.00000  Uiso   1.00
O319   O     0.32307   0.04275   0.77302   0.00000  Uiso   1.00
O320   O     0.17692   0.45725   0.22698   0.00000  Uiso   1.00
O321   O     0.45724   0.17692   0.22698   0.00000  Uiso   1.00
O322   O     0.04275   0.32308   0.77302   0.00000  Uiso   1.00
O323   O     0.17692   0.04275   0.22698   0.00000  Uiso   1.00
O324   O     0.32307   0.45725   0.77302   0.00000  Uiso   1.00
O325   O     0.04275   0.32308   0.22698   0.00000  Uiso   1.00
O326   O     0.25000   0.46964   0.33755   0.00000  Uiso   1.00
O327   O     0.45724   0.17692   0.77302   0.00000  Uiso   1.00
O328   O     0.32307   0.45725   0.22698   0.00000  Uiso   1.00
O329   O     0.17692   0.04275   0.77302   0.00000  Uiso   1.00
O330   O     0.04067   0.15908   0.46051   0.00000  Uiso   1.00
O331   O     0.44607   0.33431   0.53946   0.00000  Uiso   1.00
O332   O     0.33437   0.44615   0.46057   0.00000  Uiso   1.00
O333   O     0.15904   0.04069   0.53940   0.00000  Uiso   1.00
O334   O     0.45943   0.34098   0.46064   0.00000  Uiso   1.00
O335   O     0.05384   0.16566   0.53938   0.00000  Uiso   1.00
O336   O     0.16572   0.05403   0.46059   0.00000  Uiso   1.00
O337   O     0.25000   0.03036   0.66245   0.00000  Uiso   1.00
O338   O     0.34093   0.45925   0.53946   0.00000  Uiso   1.00
O339   O     0.29093   0.40919   0.96050   0.00000  Uiso   1.00
O340   O     0.19586   0.08417   0.03946   0.00000  Uiso   1.00
O341   O     0.08310   0.19397   0.96079   0.00000  Uiso   1.00
O342   O     0.40800   0.28823   0.03950   0.00000  Uiso   1.00
O343   O     0.20915   0.09085   0.96063   0.00000  Uiso   1.00
O344   O     0.30405   0.41578   0.03938   0.00000  Uiso   1.00
O345   O     0.41399   0.30111   0.96056   0.00000  Uiso   1.00
O346   O     0.09055   0.20821   0.03944   0.00000  Uiso   1.00
O347   O     0.10730   0.44934   0.25344   0.00000  Uiso   1.00
O348   O     0.03036   0.25000   0.33755   0.00000  Uiso   1.00
O349   O     0.39347   0.05094   0.75177   0.00000  Uiso   1.00
O350   O     0.05120   0.10639   0.24316   0.00000  Uiso   1.00
O351   O     0.44909   0.39333   0.75151   0.00000  Uiso   1.00
O352   O     0.39371   0.05127   0.24261   0.00000  Uiso   1.00
O353   O     0.10653   0.44907   0.75141   0.00000  Uiso   1.00
O354   O     0.44645   0.39511   0.26933   0.00000  Uiso   1.00
O355   O     0.05349   0.10473   0.73117   0.00000  Uiso   1.00
O356   O     0.10475   0.05354   0.73101   0.00000  Uiso   1.00
O357   O     0.39530   0.44642   0.26908   0.00000  Uiso   1.00
O358   O     0.05121   0.39369   0.75712   0.00000  Uiso   1.00
O359   O     0.46963   0.25000   0.66245   0.00000  Uiso   1.00
O360   O     0.44911   0.10658   0.24821   0.00000  Uiso   1.00
O361   O     0.39365   0.44874   0.75706   0.00000  Uiso   1.00
O362   O     0.10662   0.05095   0.24868   0.00000  Uiso   1.00
O363   O     0.44879   0.10634   0.75730   0.00000  Uiso   1.00
O364   O     0.05200   0.39687   0.25747   0.00000  Uiso   1.00
O365   O     0.35652   0.19906   0.74819   0.00000  Uiso   1.00
O366   O     0.14269   0.30065   0.24649   0.00000  Uiso   1.00
O367   O     0.30091   0.35667   0.74859   0.00000  Uiso   1.00
O368   O     0.19878   0.14361   0.25695   0.00000  Uiso   1.00
O369   O     0.14347   0.30093   0.74855   0.00000  Uiso   1.00
O370   O     0.25000   0.03036   0.33755   0.00000  Uiso   1.00
O371   O     0.35629   0.19874   0.25735   0.00000  Uiso   1.00
O372   O     0.19650   0.14519   0.76905   0.00000  Uiso   1.00
O373   O     0.30354   0.35480   0.23085   0.00000  Uiso   1.00
O374   O     0.35478   0.30359   0.23074   0.00000  Uiso   1.00
O375   O     0.14533   0.19647   0.76886   0.00000  Uiso   1.00
O376   O     0.30089   0.14343   0.25183   0.00000  Uiso   1.00
O377   O     0.19880   0.35631   0.74291   0.00000  Uiso   1.00
O378   O     0.14338   0.19904   0.25123   0.00000  Uiso   1.00
O379   O     0.35635   0.30128   0.74284   0.00000  Uiso   1.00
O380   O     0.19801   0.35311   0.24264   0.00000  Uiso   1.00
Zn381  Zn    0.20659   0.00000   0.21735   0.00000  Uiso   1.00
Zn382  Zn    0.04340   0.25000   0.28265   0.00000  Uiso   1.00
Zn383  Zn    0.25000   0.45660   0.71735   0.00000  Uiso   1.00
Zn384  Zn    0.25000   0.04340   0.28265   0.00000  Uiso   1.00
Zn385  Zn    0.04340   0.25000   0.71735   0.00000  Uiso   1.00
Zn386  Zn    0.45659   0.25000   0.28265   0.00000  Uiso   1.00
Zn387  Zn    0.25000   0.04340   0.71735   0.00000  Uiso   1.00
Zn388  Zn    0.25000   0.45660   0.28265   0.00000  Uiso   1.00
Zn389  Zn    0.29340  -0.00000   0.78265   0.00000  Uiso   1.00
Zn390  Zn    0.00000   0.20660   0.21735   0.00000  Uiso   1.00
Zn391  Zn    0.00000   0.29341   0.78265   0.00000  Uiso   1.00
Zn392  Zn    0.29340   0.00000   0.21735   0.00000  Uiso   1.00
Zn393  Zn    0.20659  -0.00000   0.78265   0.00000  Uiso   1.00
Zn394  Zn    0.00000   0.29341   0.21735   0.00000  Uiso   1.00
Zn395  Zn    0.00000   0.20660   0.78265   0.00000  Uiso   1.00
Zn396  Zn    0.45659   0.25000   0.71735   0.00000  Uiso   1.00
C397   C     0.98217   0.27833   0.41759   0.00000  Uiso   1.00
C398   C     0.77172   0.47467   0.08184   0.00000  Uiso   1.00
C399   C     0.72080   0.01703   0.54135   0.00000  Uiso   1.00
C400   C     0.98301   0.27922   0.45867   0.00000  Uiso   1.00
C401   C     0.51932   0.22227   0.54088   0.00000  Uiso   1.00
C402   C     0.72229   0.01940   0.45911   0.00000  Uiso   1.00
C403   C     0.77917   0.48294   0.54135   0.00000  Uiso   1.00
C404   C     0.76712   0.47087   0.95863   0.00000  Uiso   1.00
C405   C     0.73056   0.02767   0.04091   0.00000  Uiso   1.00
C406   C     0.52789   0.23066   0.95904   0.00000  Uiso   1.00
C407   C     0.97024   0.26594   0.04131   0.00000  Uiso   1.00
C408   C     0.73291   0.02916   0.95867   0.00000  Uiso   1.00
C409   C     0.97370   0.27036   0.91806   0.00000  Uiso   1.00
C410   C     0.76939   0.47231   0.04088   0.00000  Uiso   1.00
C411   C     0.97147   0.26799   0.95904   0.00000  Uiso   1.00
C412   C     0.52900   0.23254   0.04136   0.00000  Uiso   1.00
C413   C     0.59783   0.34836   0.25098   0.00000  Uiso   1.00
C414   C     0.90195   0.15180   0.74971   0.00000  Uiso   1.00
C415   C     0.65196   0.09819   0.24976   0.00000  Uiso   1.00
C416   C     0.84820   0.40197   0.74977   0.00000  Uiso   1.00
C417   C     0.90180   0.15196   0.24974   0.00000  Uiso   1.00
C418   C     0.59804   0.34821   0.74978   0.00000  Uiso   1.00
C419   C     0.84802   0.40200   0.24998   0.00000  Uiso   1.00
C420   C     0.52824   0.23204   0.08245   0.00000  Uiso   1.00
C421   C     0.65200   0.09799   0.75003   0.00000  Uiso   1.00
C422   C     0.59802   0.15200   0.74999   0.00000  Uiso   1.00
C423   C     0.90199   0.34799   0.25003   0.00000  Uiso   1.00
C424   C     0.65196   0.40180   0.75022   0.00000  Uiso   1.00
C425   C     0.84821   0.09805   0.25026   0.00000  Uiso   1.00
C426   C     0.90180   0.34804   0.75023   0.00000  Uiso   1.00
C427   C     0.59803   0.15181   0.25025   0.00000  Uiso   1.00
C428   C     0.84804   0.09820   0.75028   0.00000  Uiso   1.00
C429   C     0.65216   0.40163   0.24902   0.00000  Uiso   1.00
C430   C     0.50001   0.25002   0.47919   0.00000  Uiso   1.00
C431   C     0.76798   0.47179   0.91757   0.00000  Uiso   1.00
C432   C     0.99999   0.25001   0.52033   0.00000  Uiso   1.00
C433   C     0.75001   0.00003   0.47967   0.00000  Uiso   1.00
C434   C     0.74999  -0.00000   0.52081   0.00000  Uiso   1.00
C435   C     0.75001   0.00001   0.97919   0.00000  Uiso   1.00
C436   C     0.74999  -0.00000   0.02033   0.00000  Uiso   1.00
C437   C     0.99965   0.24927   0.97961   0.00000  Uiso   1.00
C438   C     0.99962   0.24922   0.02077   0.00000  Uiso   1.00
C439   C     0.98251   0.33369   0.37793   0.00000  Uiso   1.00
C440   C     0.58284   0.21047   0.60549   0.00000  Uiso   1.00
C441   C     0.71062   0.08292   0.39456   0.00000  Uiso   1.00
C442   C     0.72821   0.02530   0.08186   0.00000  Uiso   1.00
C443   C     0.83369   0.48247   0.62206   0.00000  Uiso   1.00
C444   C     0.51740   0.16632   0.37792   0.00000  Uiso   1.00
C445   C     0.91709   0.28946   0.60547   0.00000  Uiso   1.00
C446   C     0.78949   0.41718   0.39449   0.00000  Uiso   1.00
C447   C     0.66630   0.01764   0.62210   0.00000  Uiso   1.00
C448   C     0.73216   0.08361   0.87793   0.00000  Uiso   1.00
C449   C     0.83295   0.46068   0.10548   0.00000  Uiso   1.00
C450   C     0.95730   0.33078   0.89396   0.00000  Uiso   1.00
C451   C     0.58398   0.23339   0.12154   0.00000  Uiso   1.00
C452   C     0.76772   0.41639   0.87790   0.00000  Uiso   1.00
C453   C     0.52651   0.22948   0.91799   0.00000  Uiso   1.00
C454   C     0.66697   0.03923   0.10543   0.00000  Uiso   1.00
C455   C     0.54576   0.17167   0.88785   0.00000  Uiso   1.00
C456   C     0.91618   0.26678   0.12250   0.00000  Uiso   1.00
C457   C     0.97131   0.26718   0.08238   0.00000  Uiso   1.00
C458   C     0.50003   0.25003   0.39788   0.00000  Uiso   1.00
C459   C     0.99997   0.24999   0.60171   0.00000  Uiso   1.00
C460   C     0.75002   0.00005   0.39829   0.00000  Uiso   1.00
C461   C     0.52166   0.22462   0.58185   0.00000  Uiso   1.00
C462   C     0.74997   0.49996   0.60212   0.00000  Uiso   1.00
C463   C     0.75003   0.00002   0.89789   0.00000  Uiso   1.00
C464   C     0.74997   0.49998   0.10171   0.00000  Uiso   1.00
C465   C     0.50012   0.24997   0.89822   0.00000  Uiso   1.00
C466   C     0.99990   0.24984   0.10211   0.00000  Uiso   1.00
C467   C     0.53163   0.19102   0.47957   0.00000  Uiso   1.00
C468   C     0.96447   0.30690   0.52011   0.00000  Uiso   1.00
C469   C     0.80691   0.46448   0.47992   0.00000  Uiso   1.00
C470   C     0.69100   0.03167   0.52039   0.00000  Uiso   1.00
C471   C     0.96840   0.30903   0.47964   0.00000  Uiso   1.00
C472   C     0.72466   0.02176   0.41815   0.00000  Uiso   1.00
C473   C     0.53550   0.19311   0.52005   0.00000  Uiso   1.00
C474   C     0.69313   0.03560   0.47992   0.00000  Uiso   1.00
C475   C     0.80899   0.46833   0.52040   0.00000  Uiso   1.00
C476   C     0.78180   0.44110   0.97957   0.00000  Uiso   1.00
C477   C     0.71431   0.05679   0.02011   0.00000  Uiso   1.00
C478   C     0.55655   0.21375   0.97996   0.00000  Uiso   1.00
C479   C     0.94006   0.27980   0.02039   0.00000  Uiso   1.00
C480   C     0.71822   0.05892   0.97964   0.00000  Uiso   1.00
C481   C     0.78565   0.44319   0.02005   0.00000  Uiso   1.00
C482   C     0.94193   0.28350   0.97988   0.00000  Uiso   1.00
C483   C     0.77825   0.48208   0.58242   0.00000  Uiso   1.00
C484   C     0.55870   0.21767   0.02042   0.00000  Uiso   1.00
C485   C     0.75000   0.00002   0.35584   0.00000  Uiso   1.00
C486   C     0.74999   0.49999   0.64431   0.00000  Uiso   1.00
C487   C     0.50001   0.25001   0.35570   0.00000  Uiso   1.00
C488   C     0.99999   0.25000   0.64415   0.00000  Uiso   1.00
C489   C     0.50011   0.25001   0.85582   0.00000  Uiso   1.00
C490   C     0.50000   0.24998   0.14430   0.00000  Uiso   1.00
C491   C     0.75001   0.00001   0.85570   0.00000  Uiso   1.00
C492   C     0.74999  -0.00000   0.14415   0.00000  Uiso   1.00
C493   C     0.68003   0.07006   0.24993   0.00000  Uiso   1.00
C494   C     0.51788   0.22174   0.41757   0.00000  Uiso   1.00
C495   C     0.82006   0.43003   0.74994   0.00000  Uiso   1.00
C496   C     0.92993   0.18003   0.24993   0.00000  Uiso   1.00
C497   C     0.56997   0.32007   0.74994   0.00000  Uiso   1.00
C498   C     0.81996   0.43005   0.25000   0.00000  Uiso   1.00
C499   C     0.68005   0.06995   0.75001   0.00000  Uiso   1.00
C500   C     0.56990   0.32010   0.25025   0.00000  Uiso   1.00
C501   C     0.93002   0.17994   0.74992   0.00000  Uiso   1.00
C502   C     0.68003   0.42993   0.75006   0.00000  Uiso   1.00
C503   C     0.82007   0.06998   0.25007   0.00000  Uiso   1.00
C504   C     0.92994   0.31997   0.75006   0.00000  Uiso   1.00
C505   C     0.97828   0.27536   0.58187   0.00000  Uiso   1.00
C506   C     0.56997   0.17994   0.25007   0.00000  Uiso   1.00
C507   C     0.81997   0.07006   0.75009   0.00000  Uiso   1.00
C508   C     0.68010   0.42990   0.24975   0.00000  Uiso   1.00
C509   C     0.56996   0.18005   0.75000   0.00000  Uiso   1.00
C510   C     0.93004   0.31994   0.25000   0.00000  Uiso   1.00
C511   C     0.61531   0.41239   0.25122   0.00000  Uiso   1.00
C512   C     0.88495   0.08775   0.75246   0.00000  Uiso   1.00
C513   C     0.58781   0.11493   0.24693   0.00000  Uiso   1.00
C514   C     0.91227   0.38490   0.75232   0.00000  Uiso   1.00
C515   C     0.88511   0.08785   0.24666   0.00000  Uiso   1.00
C516   C     0.77539   0.47835   0.41814   0.00000  Uiso   1.00
C517   C     0.61505   0.41226   0.75229   0.00000  Uiso   1.00
C518   C     0.91145   0.38449   0.25906   0.00000  Uiso   1.00
C519   C     0.58853   0.11544   0.74116   0.00000  Uiso   1.00
C520   C     0.61544   0.08854   0.74113   0.00000  Uiso   1.00
C521   C     0.88457   0.41143   0.25897   0.00000  Uiso   1.00
C522   C     0.58782   0.38510   0.75320   0.00000  Uiso   1.00
C523   C     0.91228   0.11507   0.24752   0.00000  Uiso   1.00
C524   C     0.88508   0.41215   0.75319   0.00000  Uiso   1.00
C525   C     0.61507   0.08775   0.24778   0.00000  Uiso   1.00
C526   C     0.91218   0.11492   0.75330   0.00000  Uiso   1.00
C527   C     0.72169   0.01786   0.58242   0.00000  Uiso   1.00
C528   C     0.58787   0.38566   0.25293   0.00000  Uiso   1.00
C529   C     0.86504   0.16225   0.74752   0.00000  Uiso   1.00
C530   C     0.63468   0.33760   0.24876   0.00000  Uiso   1.00
C531   C     0.83773   0.36511   0.74771   0.00000  Uiso   1.00
C532   C     0.66217   0.13507   0.25311   0.00000  Uiso   1.00
C533   C     0.63496   0.33774   0.74770   0.00000  Uiso   1.00
C534   C     0.86489   0.16216   0.25333   0.00000  Uiso   1.00
C535   C     0.66148   0.13453   0.75892   0.00000  Uiso   1.00
C536   C     0.83856   0.36547   0.24100   0.00000  Uiso   1.00
C537   C     0.86546   0.33857   0.24098   0.00000  Uiso   1.00
C538   C     0.73207   0.02825   0.91760   0.00000  Uiso   1.00
C539   C     0.63459   0.16145   0.75885   0.00000  Uiso   1.00
C540   C     0.83773   0.13493   0.25249   0.00000  Uiso   1.00
C541   C     0.66219   0.36490   0.74681   0.00000  Uiso   1.00
C542   C     0.63492   0.16225   0.25220   0.00000  Uiso   1.00
C543   C     0.86491   0.33786   0.74679   0.00000  Uiso   1.00
C544   C     0.66212   0.36432   0.24709   0.00000  Uiso   1.00
C545   C     0.83782   0.13508   0.74671   0.00000  Uiso   1.00
C546   C     0.51704   0.22083   0.45863   0.00000  Uiso   1.00
C547   C     0.98064   0.27773   0.54091   0.00000  Uiso   1.00
C548   C     0.77774   0.48069   0.45910   0.00000  Uiso   1.00
H549   H     0.53590   0.13801   0.47777   0.00000  Uiso   1.00
H550   H     0.67580   0.09332   0.02274   0.00000  Uiso   1.00
H551   H     0.75425   0.39959   0.90048   0.00000  Uiso   1.00
H552   H     0.71167   0.07617   0.10444   0.00000  Uiso   1.00
H553   H     0.65258   0.05732   0.12627   0.00000  Uiso   1.00
H554   H     0.66355   0.01051   0.11511   0.00000  Uiso   1.00
H555   H     0.65424   0.04230   0.07645   0.00000  Uiso   1.00
H556   H     0.57965   0.21842   0.89651   0.00000  Uiso   1.00
H557   H     0.56558   0.15432   0.90376   0.00000  Uiso   1.00
H558   H     0.54910   0.16629   0.85642   0.00000  Uiso   1.00
H559   H     0.51757   0.16381   0.89647   0.00000  Uiso   1.00
H560   H     0.93800   0.31281   0.09390   0.00000  Uiso   1.00
H561   H     0.59177   0.17397   0.97784   0.00000  Uiso   1.00
H562   H     0.89832   0.28545   0.13939   0.00000  Uiso   1.00
H563   H     0.92736   0.24602   0.14266   0.00000  Uiso   1.00
H564   H     0.89943   0.25267   0.10028   0.00000  Uiso   1.00
H565   H     0.88695   0.28290   0.02232   0.00000  Uiso   1.00
H566   H     0.71382   0.11192   0.97798   0.00000  Uiso   1.00
H567   H     0.82414   0.40665   0.02270   0.00000  Uiso   1.00
H568   H     0.90441   0.32103   0.97719   0.00000  Uiso   1.00
H569   H     0.61166   0.21223   0.02197   0.00000  Uiso   1.00
H570   H     0.58054   0.45324   0.25372   0.00000  Uiso   1.00
H571   H     0.91766   0.04761   0.73941   0.00000  Uiso   1.00
H572   H     0.54892   0.08373   0.22766   0.00000  Uiso   1.00
H573   H     0.92604   0.34352   0.52272   0.00000  Uiso   1.00
H574   H     0.95236   0.41748   0.73911   0.00000  Uiso   1.00
H575   H     0.91629   0.04906   0.22697   0.00000  Uiso   1.00
H576   H     0.58237   0.45232   0.73896   0.00000  Uiso   1.00
H577   H     0.96121   0.37364   0.27691   0.00000  Uiso   1.00
H578   H     0.53858   0.12616   0.72381   0.00000  Uiso   1.00
H579   H     0.62619   0.03871   0.72348   0.00000  Uiso   1.00
H580   H     0.87385   0.46138   0.27625   0.00000  Uiso   1.00
H581   H     0.54898   0.41637   0.77261   0.00000  Uiso   1.00
H582   H     0.95245   0.08240   0.26055   0.00000  Uiso   1.00
H583   H     0.91628   0.45097   0.77263   0.00000  Uiso   1.00
H584   H     0.84354   0.42608   0.47724   0.00000  Uiso   1.00
H585   H     0.58248   0.04772   0.26116   0.00000  Uiso   1.00
H586   H     0.95101   0.08378   0.77294   0.00000  Uiso   1.00
H587   H     0.53770   0.37728   0.27006   0.00000  Uiso   1.00
H588   H     0.83233   0.20239   0.76053   0.00000  Uiso   1.00
H589   H     0.66944   0.29675   0.24614   0.00000  Uiso   1.00
H590   H     0.79767   0.33251   0.76099   0.00000  Uiso   1.00
H591   H     0.70103   0.16628   0.27243   0.00000  Uiso   1.00
H592   H     0.66764   0.29767   0.76100   0.00000  Uiso   1.00
H593   H     0.83373   0.20096   0.27300   0.00000  Uiso   1.00
H594   H     0.71130   0.12375   0.77662   0.00000  Uiso   1.00
H595   H     0.63796   0.03600   0.52205   0.00000  Uiso   1.00
H596   H     0.78868   0.37626   0.22348   0.00000  Uiso   1.00
H597   H     0.87625   0.28874   0.22334   0.00000  Uiso   1.00
H598   H     0.62389   0.21139   0.77618   0.00000  Uiso   1.00
H599   H     0.79755   0.16761   0.23950   0.00000  Uiso   1.00
H600   H     0.70105   0.33364   0.72742   0.00000  Uiso   1.00
H601   H     0.66752   0.20225   0.23875   0.00000  Uiso   1.00
H602   H     0.83370   0.29908   0.72729   0.00000  Uiso   1.00
H603   H     0.71233   0.37269   0.23008   0.00000  Uiso   1.00
H604   H     0.79897   0.16620   0.72706   0.00000  Uiso   1.00
H605   H     0.93626   0.31112   0.40557   0.00000  Uiso   1.00
H606   H     0.96414   0.36204   0.47800   0.00000  Uiso   1.00
H607   H     0.96390   0.35135   0.36075   0.00000  Uiso   1.00
H608   H     0.50380   0.32285   0.35815   0.00000  Uiso   1.00
H609   H     0.99600   0.35053   0.40051   0.00000  Uiso   1.00
H610   H     0.53801   0.17369   0.60435   0.00000  Uiso   1.00
H611   H     0.59717   0.19232   0.62630   0.00000  Uiso   1.00
H612   H     0.58637   0.23917   0.61523   0.00000  Uiso   1.00
H613   H     0.59557   0.20736   0.57652   0.00000  Uiso   1.00
H614   H     0.67372   0.03819   0.39561   0.00000  Uiso   1.00
H615   H     0.69249   0.09727   0.37372   0.00000  Uiso   1.00
H616   H     0.73934   0.08639   0.38488   0.00000  Uiso   1.00
H617   H     0.57390   0.15647   0.52269   0.00000  Uiso   1.00
H618   H     0.70752   0.09567   0.42354   0.00000  Uiso   1.00
H619   H     0.81105   0.43620   0.59446   0.00000  Uiso   1.00
H620   H     0.85144   0.46389   0.63917   0.00000  Uiso   1.00
H621   H     0.82289   0.00374   0.64189   0.00000  Uiso   1.00
H622   H     0.85045   0.49598   0.59947   0.00000  Uiso   1.00
H623   H     0.56374   0.18890   0.40548   0.00000  Uiso   1.00
H624   H     0.53596   0.14856   0.36079   0.00000  Uiso   1.00
H625   H     0.99613   0.17715   0.35811   0.00000  Uiso   1.00
H626   H     0.50388   0.14960   0.40053   0.00000  Uiso   1.00
H627   H     0.96189   0.32629   0.60443   0.00000  Uiso   1.00
H628   H     0.65654   0.07405   0.47733   0.00000  Uiso   1.00
H629   H     0.90276   0.30759   0.62632   0.00000  Uiso   1.00
H630   H     0.91359   0.26076   0.61514   0.00000  Uiso   1.00
H631   H     0.90435   0.29258   0.57650   0.00000  Uiso   1.00
H632   H     0.82633   0.46196   0.39561   0.00000  Uiso   1.00
H633   H     0.80764   0.40284   0.37366   0.00000  Uiso   1.00
H634   H     0.76077   0.41367   0.38477   0.00000  Uiso   1.00
H635   H     0.79261   0.40446   0.42346   0.00000  Uiso   1.00
H636   H     0.68896   0.06381   0.59446   0.00000  Uiso   1.00
H637   H     0.64866   0.03628   0.63929   0.00000  Uiso   1.00
H638   H     0.67710   0.49635   0.64188   0.00000  Uiso   1.00
H639   H     0.86202   0.46402   0.52220   0.00000  Uiso   1.00
H640   H     0.64943   0.00419   0.59952   0.00000  Uiso   1.00
H641   H     0.68603   0.06088   0.90561   0.00000  Uiso   1.00
H642   H     0.71347   0.10121   0.86076   0.00000  Uiso   1.00
H643   H     0.75347   0.07285   0.85812   0.00000  Uiso   1.00
H644   H     0.74561   0.10049   0.90049   0.00000  Uiso   1.00
H645   H     0.78821   0.42378   0.10435   0.00000  Uiso   1.00
H646   H     0.84732   0.44256   0.12630   0.00000  Uiso   1.00
H647   H     0.83640   0.48938   0.11522   0.00000  Uiso   1.00
H648   H     0.84568   0.45759   0.07651   0.00000  Uiso   1.00
H649   H     0.92207   0.28476   0.89577   0.00000  Uiso   1.00
H650   H     0.78620   0.38810   0.97776   0.00000  Uiso   1.00
H651   H     0.93860   0.34425   0.87303   0.00000  Uiso   1.00
H652   H     0.98585   0.33523   0.88418   0.00000  Uiso   1.00
H653   H     0.95381   0.34369   0.92281   0.00000  Uiso   1.00
H654   H     0.56127   0.18645   0.09520   0.00000  Uiso   1.00
H655   H     0.60186   0.21524   0.13902   0.00000  Uiso   1.00
H656   H     0.57318   0.25506   0.14089   0.00000  Uiso   1.00
H657   H     0.60059   0.24642   0.09851   0.00000  Uiso   1.00
H658   H     0.81396   0.43911   0.90551   0.00000  Uiso   1.00
H659   H     0.78635   0.39870   0.86076   0.00000  Uiso   1.00
H660   H     0.74641   0.42715   0.85808   0.00000  Uiso   1.00
N661   N     0.96179   0.30420   0.39529   0.00000  Uiso   1.00
N662   N     0.79455   0.45118   0.10428   0.00000  Uiso   1.00
N663   N     0.94924   0.29208   0.89556   0.00000  Uiso   1.00
N664   N     0.55443   0.21220   0.10489   0.00000  Uiso   1.00
N665   N     0.78840   0.44595   0.89524   0.00000  Uiso   1.00
N666   N     0.70536   0.04876   0.10431   0.00000  Uiso   1.00
N667   N     0.55280   0.20997   0.89548   0.00000  Uiso   1.00
N668   N     0.94534   0.28757   0.10459   0.00000  Uiso   1.00
N669   N     0.54442   0.20107   0.60429   0.00000  Uiso   1.00
N670   N     0.70114   0.04454   0.39571   0.00000  Uiso   1.00
N671   N     0.80415   0.46173   0.60473   0.00000  Uiso   1.00
N672   N     0.53820   0.19582   0.39523   0.00000  Uiso   1.00
N673   N     0.95550   0.29889   0.60432   0.00000  Uiso   1.00
N674   N     0.79892   0.45557   0.39569   0.00000  Uiso   1.00
N675   N     0.69584   0.03829   0.60473   0.00000  Uiso   1.00
N676   N     0.71156   0.05405   0.89531   0.00000  Uiso   1.00
O677   O     0.75000  -0.00000   0.25000   0.00000  Uiso   1.00
O678   O     0.75000   0.46964   0.66245   0.00000  Uiso   1.00
O679   O     0.80121   0.14365   0.74273   0.00000  Uiso   1.00
O680   O     0.96963   0.25000   0.33755   0.00000  Uiso   1.00
O681   O     0.53036   0.25000   0.66245   0.00000  Uiso   1.00
O682   O     0.50000   0.21964   0.83755   0.00000  Uiso   1.00
O683   O     0.50000   0.28037   0.16245   0.00000  Uiso   1.00
O684   O     0.78036   0.00000   0.83755   0.00000  Uiso   1.00
O685   O     0.71963  -0.00000   0.16245   0.00000  Uiso   1.00
O686   O     0.50000   0.28037   0.83755   0.00000  Uiso   1.00
O687   O     0.50000   0.21964   0.16245   0.00000  Uiso   1.00
O688   O     0.71963   0.00000   0.83755   0.00000  Uiso   1.00
O689   O     0.75000   0.00000   0.75000   0.00000  Uiso   1.00
O690   O     0.78036  -0.00000   0.16245   0.00000  Uiso   1.00
O691   O     0.70724   0.07307   0.27302   0.00000  Uiso   1.00
O692   O     0.79275   0.42693   0.72698   0.00000  Uiso   1.00
O693   O     0.92692   0.20724   0.27302   0.00000  Uiso   1.00
O694   O     0.57307   0.29276   0.72698   0.00000  Uiso   1.00
O695   O     0.79275   0.42693   0.27302   0.00000  Uiso   1.00
O696   O     0.70724   0.07307   0.72698   0.00000  Uiso   1.00
O697   O     0.57307   0.29276   0.27302   0.00000  Uiso   1.00
O698   O     0.92692   0.20724   0.72698   0.00000  Uiso   1.00
O699   O     0.70724   0.42693   0.72698   0.00000  Uiso   1.00
O700   O     0.50000   0.25000   0.25000   0.00000  Uiso   1.00
O701   O     0.79275   0.07307   0.27302   0.00000  Uiso   1.00
O702   O     0.92692   0.29275   0.72698   0.00000  Uiso   1.00
O703   O     0.57307   0.20725   0.27302   0.00000  Uiso   1.00
O704   O     0.79275   0.07307   0.72698   0.00000  Uiso   1.00
O705   O     0.70724   0.42693   0.27302   0.00000  Uiso   1.00
O706   O     0.57307   0.20725   0.72698   0.00000  Uiso   1.00
O707   O     0.92692   0.29275   0.27302   0.00000  Uiso   1.00
O708   O     0.95724   0.32307   0.77302   0.00000  Uiso   1.00
O709   O     0.54275   0.17693   0.22698   0.00000  Uiso   1.00
O710   O     0.67692   0.45725   0.77302   0.00000  Uiso   1.00
O711   O     0.50000   0.25000   0.75000   0.00000  Uiso   1.00
O712   O     0.82307   0.04275   0.22698   0.00000  Uiso   1.00
O713   O     0.54275   0.17693   0.77302   0.00000  Uiso   1.00
O714   O     0.95724   0.32307   0.22698   0.00000  Uiso   1.00
O715   O     0.82307   0.04275   0.77302   0.00000  Uiso   1.00
O716   O     0.67692   0.45725   0.22698   0.00000  Uiso   1.00
O717   O     0.95724   0.17692   0.22698   0.00000  Uiso   1.00
O718   O     0.54275   0.32308   0.77302   0.00000  Uiso   1.00
O719   O     0.67692   0.04275   0.22698   0.00000  Uiso   1.00
O720   O     0.82307   0.45725   0.77302   0.00000  Uiso   1.00
O721   O     0.54275   0.32308   0.22698   0.00000  Uiso   1.00
O722   O     0.75000   0.46964   0.33755   0.00000  Uiso   1.00
O723   O     0.95724   0.17692   0.77302   0.00000  Uiso   1.00
O724   O     0.82307   0.45725   0.22698   0.00000  Uiso   1.00
O725   O     0.67692   0.04275   0.77302   0.00000  Uiso   1.00
O726   O     0.54067   0.15908   0.46051   0.00000  Uiso   1.00
O727   O     0.94607   0.33431   0.53946   0.00000  Uiso   1.00
O728   O     0.83437   0.44615   0.46057   0.00000  Uiso   1.00
O729   O     0.65904   0.04069   0.53940   0.00000  Uiso   1.00
O730   O     0.95943   0.34098   0.46064   0.00000  Uiso   1.00
O731   O     0.55384   0.16566   0.53938   0.00000  Uiso   1.00
O732   O     0.66572   0.05403   0.46059   0.00000  Uiso   1.00
O733   O     0.75000   0.03036   0.66245   0.00000  Uiso   1.00
O734   O     0.84093   0.45925   0.53946   0.00000  Uiso   1.00
O735   O     0.79093   0.40919   0.96050   0.00000  Uiso   1.00
O736   O     0.69586   0.08417   0.03946   0.00000  Uiso   1.00
O737   O     0.58310   0.19397   0.96079   0.00000  Uiso   1.00
O738   O     0.90800   0.28823   0.03950   0.00000  Uiso   1.00
O739   O     0.70915   0.09085   0.96063   0.00000  Uiso   1.00
O740   O     0.80405   0.41578   0.03938   0.00000  Uiso   1.00
O741   O     0.91399   0.30111   0.96056   0.00000  Uiso   1.00
O742   O     0.59055   0.20821   0.03944   0.00000  Uiso   1.00
O743   O     0.60730   0.44934   0.25344   0.00000  Uiso   1.00
O744   O     0.53036   0.25000   0.33755   0.00000  Uiso   1.00
O745   O     0.89347   0.05094   0.75177   0.00000  Uiso   1.00
O746   O     0.55120   0.10639   0.24316   0.00000  Uiso   1.00
O747   O     0.94909   0.39333   0.75151   0.00000  Uiso   1.00
O748   O     0.89371   0.05127   0.24261   0.00000  Uiso   1.00
O749   O     0.60653   0.44907   0.75141   0.00000  Uiso   1.00
O750   O     0.94645   0.39511   0.26933   0.00000  Uiso   1.00
O751   O     0.55349   0.10473   0.73117   0.00000  Uiso   1.00
O752   O     0.60475   0.05354   0.73101   0.00000  Uiso   1.00
O753   O     0.89530   0.44642   0.26908   0.00000  Uiso   1.00
O754   O     0.55121   0.39369   0.75712   0.00000  Uiso   1.00
O755   O     0.96963   0.25000   0.66245   0.00000  Uiso   1.00
O756   O     0.94911   0.10658   0.24821   0.00000  Uiso   1.00
O757   O     0.89365   0.44874   0.75706   0.00000  Uiso   1.00
O758   O     0.60662   0.05095   0.24868   0.00000  Uiso   1.00
O759   O     0.94879   0.10634   0.75730   0.00000  Uiso   1.00
O760   O     0.55200   0.39687   0.25747   0.00000  Uiso   1.00
O761   O     0.85652   0.19906   0.74819   0.00000  Uiso   1.00
O762   O     0.64269   0.30065   0.24649   0.00000  Uiso   1.00
O763   O     0.80091   0.35667   0.74859   0.00000  Uiso   1.00
O764   O     0.69878   0.14361   0.25695   0.00000  Uiso   1.00
O765   O     0.64347   0.30093   0.74855   0.00000  Uiso   1.00
O766   O     0.75000   0.03036   0.33755   0.00000  Uiso   1.00
O767   O     0.85629   0.19874   0.25735   0.00000  Uiso   1.00
O768   O     0.69650   0.14519   0.76905   0.00000  Uiso   1.00
O769   O     0.80354   0.35480   0.23085   0.00000  Uiso   1.00
O770   O     0.85478   0.30359   0.23074   0.00000  Uiso   1.00
O771   O     0.64533   0.19647   0.76886   0.00000  Uiso   1.00
O772   O     0.80089   0.14343   0.25183   0.00000  Uiso   1.00
O773   O     0.69880   0.35631   0.74291   0.00000  Uiso   1.00
O774   O     0.64338   0.19904   0.25123   0.00000  Uiso   1.00
O775   O     0.85635   0.30128   0.74284   0.00000  Uiso   1.00
O776   O     0.69801   0.35311   0.24264   0.00000  Uiso   1.00
Zn777  Zn    0.70659   0.00000   0.21735   0.00000  Uiso   1.00
Zn778  Zn    0.54340   0.25000   0.28265   0.00000  Uiso   1.00
Zn779  Zn    0.75000   0.45660   0.71735   0.00000  Uiso   1.00
Zn780  Zn    0.75000   0.04340   0.28265   0.00000  Uiso   1.00
Zn781  Zn    0.54340   0.25000   0.71735   0.00000  Uiso   1.00
Zn782  Zn    0.95659   0.25000   0.28265   0.00000  Uiso   1.00
Zn783  Zn    0.75000   0.04340   0.71735   0.00000  Uiso   1.00
Zn784  Zn    0.75000   0.45660   0.28265   0.00000  Uiso   1.00
Zn785  Zn    0.79340  -0.00000   0.78265   0.00000  Uiso   1.00
Zn786  Zn    0.50000   0.20660   0.21735   0.00000  Uiso   1.00
Zn787  Zn    0.50000   0.29341   0.78265   0.00000  Uiso   1.00
Zn788  Zn    0.79340   0.00000   0.21735   0.00000  Uiso   1.00
Zn789  Zn    0.70659  -0.00000   0.78265   0.00000  Uiso   1.00
Zn790  Zn    0.50000   0.29341   0.21735   0.00000  Uiso   1.00
Zn791  Zn    0.50000   0.20660   0.78265   0.00000  Uiso   1.00
Zn792  Zn    0.95659   0.25000   0.71735   0.00000  Uiso   1.00
C793   C     0.48217   0.77833   0.41759   0.00000  Uiso   1.00
C794   C     0.27172   0.97467   0.08184   0.00000  Uiso   1.00
C795   C     0.22080   0.51703   0.54135   0.00000  Uiso   1.00
C796   C     0.48301   0.77922   0.45867   0.00000  Uiso   1.00
C797   C     0.01932   0.72227   0.54088   0.00000  Uiso   1.00
C798   C     0.22229   0.51940   0.45911   0.00000  Uiso   1.00
C799   C     0.27917   0.98294   0.54135   0.00000  Uiso   1.00
C800   C     0.26712   0.97087   0.95863   0.00000  Uiso   1.00
C801   C     0.23056   0.52767   0.04091   0.00000  Uiso   1.00
C802   C     0.02789   0.73066   0.95904   0.00000  Uiso   1.00
C803   C     0.47024   0.76594   0.04131   0.00000  Uiso   1.00
C804   C     0.23291   0.52916   0.95867   0.00000  Uiso   1.00
C805   C     0.47370   0.77036   0.91806   0.00000  Uiso   1.00
C806   C     0.26939   0.97231   0.04088   0.00000  Uiso   1.00
C807   C     0.47147   0.76799   0.95904   0.00000  Uiso   1.00
C808   C     0.02900   0.73254   0.04136   0.00000  Uiso   1.00
C809   C     0.09783   0.84836   0.25098   0.00000  Uiso   1.00
C810   C     0.40195   0.65180   0.74971   0.00000  Uiso   1.00
C811   C     0.15196   0.59819   0.24976   0.00000  Uiso   1.00
C812   C     0.34820   0.90197   0.74977   0.00000  Uiso   1.00
C813   C     0.40180   0.65196   0.24974   0.00000  Uiso   1.00
C814   C     0.09804   0.84821   0.74978   0.00000  Uiso   1.00
C815   C     0.34802   0.90200   0.24998   0.00000  Uiso   1.00
C816   C     0.02824   0.73204   0.08245   0.00000  Uiso   1.00
C817   C     0.15200   0.59799   0.75003   0.00000  Uiso   1.00
C818   C     0.09802   0.65200   0.74999   0.00000  Uiso   1.00
C819   C     0.40199   0.84799   0.25003   0.00000  Uiso   1.00
C820   C     0.15196   0.90180   0.75022   0.00000  Uiso   1.00
C821   C     0.34821   0.59805   0.25026   0.00000  Uiso   1.00
C822   C     0.40180   0.84804   0.75023   0.00000  Uiso   1.00
C823   C     0.09803   0.65181   0.25025   0.00000  Uiso   1.00
C824   C     0.34804   0.59820   0.75028   0.00000  Uiso   1.00
C825   C     0.15216   0.90163   0.24902   0.00000  Uiso   1.00
C826   C     0.00001   0.75002   0.47919   0.00000  Uiso   1.00
C827   C     0.26798   0.97179   0.91757   0.00000  Uiso   1.00
C828   C     0.49999   0.75001   0.52033   0.00000  Uiso   1.00
C829   C     0.25001   0.50003   0.47967   0.00000  Uiso   1.00
C830   C     0.24999   0.50000   0.52081   0.00000  Uiso   1.00
C831   C     0.25001   0.50001   0.97919   0.00000  Uiso   1.00
C832   C     0.24999   0.50000   0.02033   0.00000  Uiso   1.00
C833   C     0.49965   0.74927   0.97961   0.00000  Uiso   1.00
C834   C     0.49962   0.74922   0.02077   0.00000  Uiso   1.00
C835   C     0.48251   0.83369   0.37793   0.00000  Uiso   1.00
C836   C     0.08284   0.71047   0.60549   0.00000  Uiso   1.00
C837   C     0.21062   0.58292   0.39456   0.00000  Uiso   1.00
C838   C     0.22821   0.52530   0.08186   0.00000  Uiso   1.00
C839   C     0.33369   0.98247   0.62206   0.00000  Uiso   1.00
C840   C     0.01740   0.66632   0.37792   0.00000  Uiso   1.00
C841   C     0.41709   0.78946   0.60547   0.00000  Uiso   1.00
C842   C     0.28949   0.91718   0.39449   0.00000  Uiso   1.00
C843   C     0.16630   0.51764   0.62210   0.00000  Uiso   1.00
C844   C     0.23216   0.58361   0.87793   0.00000  Uiso   1.00
C845   C     0.33295   0.96068   0.10548   0.00000  Uiso   1.00
C846   C     0.45730   0.83078   0.89396   0.00000  Uiso   1.00
C847   C     0.08398   0.73339   0.12154   0.00000  Uiso   1.00
C848   C     0.26772   0.91639   0.87790   0.00000  Uiso   1.00
C849   C     0.02651   0.72948   0.91799   0.00000  Uiso   1.00
C850   C     0.16697   0.53923   0.10543   0.00000  Uiso   1.00
C851   C     0.04576   0.67167   0.88785   0.00000  Uiso   1.00
C852   C     0.41618   0.76678   0.12250   0.00000  Uiso   1.00
C853   C     0.47131   0.76718   0.08238   0.00000  Uiso   1.00
C854   C     0.00003   0.75003   0.39788   0.00000  Uiso   1.00
C855   C     0.49997   0.74999   0.60171   0.00000  Uiso   1.00
C856   C     0.25002   0.50005   0.39829   0.00000  Uiso   1.00
C857   C     0.02166   0.72462   0.58185   0.00000  Uiso   1.00
C858   C     0.24997   0.99996   0.60212   0.00000  Uiso   1.00
C859   C     0.25003   0.50002   0.89789   0.00000  Uiso   1.00
C860   C     0.24997   0.99998   0.10171   0.00000  Uiso   1.00
C861   C     0.00012   0.74997   0.89822   0.00000  Uiso   1.00
C862   C     0.49990   0.74984   0.10211   0.00000  Uiso   1.00
C863   C     0.03163   0.69102   0.47957   0.00000  Uiso   1.00
C864   C     0.46447   0.80690   0.52011   0.00000  Uiso   1.00
C865   C     0.30691   0.96448   0.47992   0.00000  Uiso   1.00
C866   C     0.19100   0.53167   0.52039   0.00000  Uiso   1.00
C867   C     0.46840   0.80903   0.47964   0.00000  Uiso   1.00
C868   C     0.22466   0.52176   0.41815   0.00000  Uiso   1.00
C869   C     0.03550   0.69311   0.52005   0.00000  Uiso   1.00
C870   C     0.19313   0.53560   0.47992   0.00000  Uiso   1.00
C871   C     0.30899   0.96833   0.52040   0.00000  Uiso   1.00
C872   C     0.28180   0.94110   0.97957   0.00000  Uiso   1.00
C873   C     0.21431   0.55679   0.02011   0.00000  Uiso   1.00
C874   C     0.05655   0.71375   0.97996   0.00000  Uiso   1.00
C875   C     0.44006   0.77980   0.02039   0.00000  Uiso   1.00
C876   C     0.21822   0.55892   0.97964   0.00000  Uiso   1.00
C877   C     0.28565   0.94319   0.02005   0.00000  Uiso   1.00
C878   C     0.44193   0.78350   0.97988   0.00000  Uiso   1.00
C879   C     0.27825   0.98208   0.58242   0.00000  Uiso   1.00
C880   C     0.05870   0.71767   0.02042   0.00000  Uiso   1.00
C881   C     0.25000   0.50002   0.35584   0.00000  Uiso   1.00
C882   C     0.24999   0.99999   0.64431   0.00000  Uiso   1.00
C883   C     0.00001   0.75001   0.35570   0.00000  Uiso   1.00
C884   C     0.49999   0.75000   0.64415   0.00000  Uiso   1.00
C885   C     0.00011   0.75001   0.85582   0.00000  Uiso   1.00
C886   C     0.00000   0.74998   0.14430   0.00000  Uiso   1.00
C887   C     0.25001   0.50001   0.85570   0.00000  Uiso   1.00
C888   C     0.24999   0.50000   0.14415   0.00000  Uiso   1.00
C889   C     0.18003   0.57006   0.24993   0.00000  Uiso   1.00
C890   C     0.01788   0.72174   0.41757   0.00000  Uiso   1.00
C891   C     0.32006   0.93003   0.74994   0.00000  Uiso   1.00
C892   C     0.42993   0.68003   0.24993   0.00000  Uiso   1.00
C893   C     0.06997   0.82007   0.74994   0.00000  Uiso   1.00
C894   C     0.31996   0.93005   0.25000   0.00000  Uiso   1.00
C895   C     0.18005   0.56995   0.75001   0.00000  Uiso   1.00
C896   C     0.06990   0.82010   0.25025   0.00000  Uiso   1.00
C897   C     0.43002   0.67994   0.74992   0.00000  Uiso   1.00
C898   C     0.18003   0.92993   0.75006   0.00000  Uiso   1.00
C899   C     0.32007   0.56998   0.25007   0.00000  Uiso   1.00
C900   C     0.42994   0.81997   0.75006   0.00000  Uiso   1.00
C901   C     0.47828   0.77536   0.58187   0.00000  Uiso   1.00
C902   C     0.06997   0.67994   0.25007   0.00000  Uiso   1.00
C903   C     0.31997   0.57006   0.75009   0.00000  Uiso   1.00
C904   C     0.18010   0.92990   0.24975   0.00000  Uiso   1.00
C905   C     0.06996   0.68005   0.75000   0.00000  Uiso   1.00
C906   C     0.43004   0.81994   0.25000   0.00000  Uiso   1.00
C907   C     0.11531   0.91239   0.25122   0.00000  Uiso   1.00
C908   C     0.38495   0.58775   0.75246   0.00000  Uiso   1.00
C909   C     0.08781   0.61493   0.24693   0.00000  Uiso   1.00
C910   C     0.41227   0.88490   0.75232   0.00000  Uiso   1.00
C911   C     0.38511   0.58785   0.24666   0.00000  Uiso   1.00
C912   C     0.27539   0.97835   0.41814   0.00000  Uiso   1.00
C913   C     0.11505   0.91226   0.75229   0.00000  Uiso   1.00
C914   C     0.41145   0.88449   0.25906   0.00000  Uiso   1.00
C915   C     0.08853   0.61544   0.74116   0.00000  Uiso   1.00
C916   C     0.11544   0.58854   0.74113   0.00000  Uiso   1.00
C917   C     0.38457   0.91143   0.25897   0.00000  Uiso   1.00
C918   C     0.08782   0.88510   0.75320   0.00000  Uiso   1.00
C919   C     0.41228   0.61507   0.24752   0.00000  Uiso   1.00
C920   C     0.38508   0.91215   0.75319   0.00000  Uiso   1.00
C921   C     0.11507   0.58775   0.24778   0.00000  Uiso   1.00
C922   C     0.41218   0.61492   0.75330   0.00000  Uiso   1.00
C923   C     0.22169   0.51786   0.58242   0.00000  Uiso   1.00
C924   C     0.08787   0.88566   0.25293   0.00000  Uiso   1.00
C925   C     0.36504   0.66225   0.74752   0.00000  Uiso   1.00
C926   C     0.13468   0.83760   0.24876   0.00000  Uiso   1.00
C927   C     0.33773   0.86511   0.74771   0.00000  Uiso   1.00
C928   C     0.16217   0.63507   0.25311   0.00000  Uiso   1.00
C929   C     0.13496   0.83774   0.74770   0.00000  Uiso   1.00
C930   C     0.36489   0.66216   0.25333   0.00000  Uiso   1.00
C931   C     0.16148   0.63453   0.75892   0.00000  Uiso   1.00
C932   C     0.33856   0.86547   0.24100   0.00000  Uiso   1.00
C933   C     0.36546   0.83857   0.24098   0.00000  Uiso   1.00
C934   C     0.23207   0.52825   0.91760   0.00000  Uiso   1.00
C935   C     0.13459   0.66145   0.75885   0.00000  Uiso   1.00
C936   C     0.33773   0.63493   0.25249   0.00000  Uiso   1.00
C937   C     0.16219   0.86490   0.74681   0.00000  Uiso   1.00
C938   C     0.13492   0.66225   0.25220   0.00000  Uiso   1.00
C939   C     0.36491   0.83786   0.74679   0.00000  Uiso   1.00
C940   C     0.16212   0.86432   0.24709   0.00000  Uiso   1.00
C941   C     0.33782   0.63508   0.74671   0.00000  Uiso   1.00
C942   C     0.01704   0.72083   0.45863   0.00000  Uiso   1.00
C943   C     0.48064   0.77773   0.54091   0.00000  Uiso   1.00
C944   C     0.27774   0.98069   0.45910   0.00000  Uiso   1.00
H945   H     0.03590   0.63801   0.47777   0.00000  Uiso   1.00
H946   H     0.17580   0.59332   0.02274   0.00000  Uiso   1.00
H947   H     0.25425   0.89959   0.90048   0.00000  Uiso   1.00
H948   H     0.21167   0.57617   0.10444   0.00000  Uiso   1.00
H949   H     0.15258   0.55732   0.12627   0.00000  Uiso   1.00
H950   H     0.16355   0.51051   0.11511   0.00000  Uiso   1.00
H951   H     0.15424   0.54230   0.07645   0.00000  Uiso   1.00
H952   H     0.07965   0.71842   0.89651   0.00000  Uiso   1.00
H953   H     0.06558   0.65432   0.90376   0.00000  Uiso   1.00
H954   H     0.04910   0.66629   0.85642   0.00000  Uiso   1.00
H955   H     0.01757   0.66381   0.89647   0.00000  Uiso   1.00
H956   H     0.43800   0.81281   0.09390   0.00000  Uiso   1.00
H957   H     0.09177   0.67397   0.97784   0.00000  Uiso   1.00
H958   H     0.39832   0.78545   0.13939   0.00000  Uiso   1.00
H959   H     0.42736   0.74602   0.14266   0.00000  Uiso   1.00
H960   H     0.39943   0.75267   0.10028   0.00000  Uiso   1.00
H961   H     0.38695   0.78290   0.02232   0.00000  Uiso   1.00
H962   H     0.21382   0.61192   0.97798   0.00000  Uiso   1.00
H963   H     0.32414   0.90665   0.02270   0.00000  Uiso   1.00
H964   H     0.40441   0.82103   0.97719   0.00000  Uiso   1.00
H965   H     0.11166   0.71223   0.02197   0.00000  Uiso   1.00
H966   H     0.08054   0.95324   0.25372   0.00000  Uiso   1.00
H967   H     0.41766   0.54761   0.73941   0.00000  Uiso   1.00
H968   H     0.04892   0.58373   0.22766   0.00000  Uiso   1.00
H969   H     0.42604   0.84352   0.52272   0.00000  Uiso   1.00
H970   H     0.45236   0.91748   0.73911   0.00000  Uiso   1.00
H971   H     0.41629   0.54906   0.22697   0.00000  Uiso   1.00
H972   H     0.08237   0.95232   0.73896   0.00000  Uiso   1.00
H973   H     0.46121   0.87364   0.27691   0.00000  Uiso   1.00
H974   H     0.03858   0.62616   0.72381   0.00000  Uiso   1.00
H975   H     0.12619   0.53871   0.72348   0.00000  Uiso   1.00
H976   H     0.37385   0.96138   0.27625   0.00000  Uiso   1.00
H977   H     0.04898   0.91637   0.77261   0.00000  Uiso   1.00
H978   H     0.45245   0.58240   0.26055   0.00000  Uiso   1.00
H979   H     0.41628   0.95097   0.77263   0.00000  Uiso   1.00
H980   H     0.34354   0.92608   0.47724   0.00000  Uiso   1.00
H981   H     0.08248   0.54772   0.26116   0.00000  Uiso   1.00
H982   H     0.45101   0.58378   0.77294   0.00000  Uiso   1.00
H983   H     0.03770   0.87728   0.27006   0.00000  Uiso   1.00
H984   H     0.33233   0.70239   0.76053   0.00000  Uiso   1.00
H985   H     0.16944   0.79675   0.24614   0.00000  Uiso   1.00
H986   H     0.29767   0.83251   0.76099   0.00000  Uiso   1.00
H987   H     0.20103   0.66628   0.27243   0.00000  Uiso   1.00
H988   H     0.16764   0.79767   0.76100   0.00000  Uiso   1.00
H989   H     0.33373   0.70096   0.27300   0.00000  Uiso   1.00
H990   H     0.21130   0.62375   0.77662   0.00000  Uiso   1.00
H991   H     0.13796   0.53600   0.52205   0.00000  Uiso   1.00
H992   H     0.28868   0.87626   0.22348   0.00000  Uiso   1.00
H993   H     0.37625   0.78874   0.22334   0.00000  Uiso   1.00
H994   H     0.12389   0.71139   0.77618   0.00000  Uiso   1.00
H995   H     0.29755   0.66761   0.23950   0.00000  Uiso   1.00
H996   H     0.20105   0.83364   0.72742   0.00000  Uiso   1.00
H997   H     0.16752   0.70225   0.23875   0.00000  Uiso   1.00
H998   H     0.33370   0.79908   0.72729   0.00000  Uiso   1.00
H999   H     0.21233   0.87269   0.23008   0.00000  Uiso   1.00
H1000  H     0.29897   0.66620   0.72706   0.00000  Uiso   1.00
H1001  H     0.43626   0.81112   0.40557   0.00000  Uiso   1.00
H1002  H     0.46414   0.86204   0.47800   0.00000  Uiso   1.00
H1003  H     0.46390   0.85135   0.36075   0.00000  Uiso   1.00
H1004  H     0.00380   0.82285   0.35815   0.00000  Uiso   1.00
H1005  H     0.49600   0.85053   0.40051   0.00000  Uiso   1.00
H1006  H     0.03801   0.67369   0.60435   0.00000  Uiso   1.00
H1007  H     0.09717   0.69232   0.62630   0.00000  Uiso   1.00
H1008  H     0.08637   0.73917   0.61523   0.00000  Uiso   1.00
H1009  H     0.09557   0.70736   0.57652   0.00000  Uiso   1.00
H1010  H     0.17372   0.53819   0.39561   0.00000  Uiso   1.00
H1011  H     0.19249   0.59727   0.37372   0.00000  Uiso   1.00
H1012  H     0.23934   0.58639   0.38488   0.00000  Uiso   1.00
H1013  H     0.07390   0.65647   0.52269   0.00000  Uiso   1.00
H1014  H     0.20752   0.59567   0.42354   0.00000  Uiso   1.00
H1015  H     0.31105   0.93620   0.59446   0.00000  Uiso   1.00
H1016  H     0.35144   0.96389   0.63917   0.00000  Uiso   1.00
H1017  H     0.32289   0.50374   0.64189   0.00000  Uiso   1.00
H1018  H     0.35045   0.99598   0.59947   0.00000  Uiso   1.00
H1019  H     0.06374   0.68890   0.40548   0.00000  Uiso   1.00
H1020  H     0.03596   0.64856   0.36079   0.00000  Uiso   1.00
H1021  H     0.49613   0.67715   0.35811   0.00000  Uiso   1.00
H1022  H     0.00388   0.64960   0.40053   0.00000  Uiso   1.00
H1023  H     0.46189   0.82629   0.60443   0.00000  Uiso   1.00
H1024  H     0.15654   0.57405   0.47733   0.00000  Uiso   1.00
H1025  H     0.40276   0.80759   0.62632   0.00000  Uiso   1.00
H1026  H     0.41359   0.76076   0.61514   0.00000  Uiso   1.00
H1027  H     0.40435   0.79258   0.57650   0.00000  Uiso   1.00
H1028  H     0.32633   0.96196   0.39561   0.00000  Uiso   1.00
H1029  H     0.30764   0.90284   0.37366   0.00000  Uiso   1.00
H1030  H     0.26077   0.91367   0.38477   0.00000  Uiso   1.00
H1031  H     0.29261   0.90446   0.42346   0.00000  Uiso   1.00
H1032  H     0.18896   0.56381   0.59446   0.00000  Uiso   1.00
H1033  H     0.14866   0.53628   0.63929   0.00000  Uiso   1.00
H1034  H     0.17710   0.99635   0.64188   0.00000  Uiso   1.00
H1035  H     0.36202   0.96402   0.52220   0.00000  Uiso   1.00
H1036  H     0.14943   0.50419   0.59952   0.00000  Uiso   1.00
H1037  H     0.18603   0.56088   0.90561   0.00000  Uiso   1.00
H1038  H     0.21347   0.60121   0.86076   0.00000  Uiso   1.00
H1039  H     0.25347   0.57285   0.85812   0.00000  Uiso   1.00
H1040  H     0.24561   0.60049   0.90049   0.00000  Uiso   1.00
H1041  H     0.28821   0.92378   0.10435   0.00000  Uiso   1.00
H1042  H     0.34732   0.94256   0.12630   0.00000  Uiso   1.00
H1043  H     0.33640   0.98938   0.11522   0.00000  Uiso   1.00
H1044  H     0.34568   0.95759   0.07651   0.00000  Uiso   1.00
H1045  H     0.42207   0.78476   0.89577   0.00000  Uiso   1.00
H1046  H     0.28620   0.88810   0.97776   0.00000  Uiso   1.00
H1047  H     0.43860   0.84425   0.87303   0.00000  Uiso   1.00
H1048  H     0.48585   0.83523   0.88418   0.00000  Uiso   1.00
H1049  H     0.45381   0.84369   0.92281   0.00000  Uiso   1.00
H1050  H     0.06127   0.68645   0.09520   0.00000  Uiso   1.00
H1051  H     0.10186   0.71524   0.13902   0.00000  Uiso   1.00
H1052  H     0.07318   0.75506   0.14089   0.00000  Uiso   1.00
H1053  H     0.10059   0.74642   0.09851   0.00000  Uiso   1.00
H1054  H     0.31396   0.93911   0.90551   0.00000  Uiso   1.00
H1055  H     0.28635   0.89870   0.86076   0.00000  Uiso   1.00
H1056  H     0.24641   0.92715   0.85808   0.00000  Uiso   1.00
N1057  N     0.46179   0.80420   0.39529   0.00000  Uiso   1.00
N1058  N     0.29455   0.95118   0.10428   0.00000  Uiso   1.00
N1059  N     0.44924   0.79208   0.89556   0.00000  Uiso   1.00
N1060  N     0.05443   0.71220   0.10489   0.00000  Uiso   1.00
N1061  N     0.28840   0.94595   0.89524   0.00000  Uiso   1.00
N1062  N     0.20536   0.54876   0.10431   0.00000  Uiso   1.00
N1063  N     0.05280   0.70997   0.89548   0.00000  Uiso   1.00
N1064  N     0.44534   0.78757   0.10459   0.00000  Uiso   1.00
N1065  N     0.04442   0.70107   0.60429   0.00000  Uiso   1.00
N1066  N     0.20114   0.54454   0.39571   0.00000  Uiso   1.00
N1067  N     0.30415   0.96173   0.60473   0.00000  Uiso   1.00
N1068  N     0.03820   0.69582   0.39523   0.00000  Uiso   1.00
N1069  N     0.45550   0.79889   0.60432   0.00000  Uiso   1.00
N1070  N     0.29892   0.95557   0.39569   0.00000  Uiso   1.00
N1071  N     0.19584   0.53829   0.60473   0.00000  Uiso   1.00
N1072  N     0.21156   0.55405   0.89531   0.00000  Uiso   1.00
O1073  O     0.25000   0.50000   0.25000   0.00000  Uiso   1.00
O1074  O     0.25000   0.96964   0.66245   0.00000  Uiso   1.00
O1075  O     0.30121   0.64365   0.74273   0.00000  Uiso   1.00
O1076  O     0.46963   0.75000   0.33755   0.00000  Uiso   1.00
O1077  O     0.03036   0.75000   0.66245   0.00000  Uiso   1.00
O1078  O     0.00000   0.71964   0.83755   0.00000  Uiso   1.00
O1079  O     0.00000   0.78037   0.16245   0.00000  Uiso   1.00
O1080  O     0.28036   0.50000   0.83755   0.00000  Uiso   1.00
O1081  O     0.21963   0.50000   0.16245   0.00000  Uiso   1.00
O1082  O     0.00000   0.78037   0.83755   0.00000  Uiso   1.00
O1083  O     0.00000   0.71964   0.16245   0.00000  Uiso   1.00
O1084  O     0.21963   0.50000   0.83755   0.00000  Uiso   1.00
O1085  O     0.25000   0.50000   0.75000   0.00000  Uiso   1.00
O1086  O     0.28036   0.50000   0.16245   0.00000  Uiso   1.00
O1087  O     0.20724   0.57307   0.27302   0.00000  Uiso   1.00
O1088  O     0.29275   0.92693   0.72698   0.00000  Uiso   1.00
O1089  O     0.42692   0.70724   0.27302   0.00000  Uiso   1.00
O1090  O     0.07307   0.79276   0.72698   0.00000  Uiso   1.00
O1091  O     0.29275   0.92693   0.27302   0.00000  Uiso   1.00
O1092  O     0.20724   0.57307   0.72698   0.00000  Uiso   1.00
O1093  O     0.07307   0.79276   0.27302   0.00000  Uiso   1.00
O1094  O     0.42692   0.70724   0.72698   0.00000  Uiso   1.00
O1095  O     0.20724   0.92693   0.72698   0.00000  Uiso   1.00
O1096  O     0.00000   0.75000   0.25000   0.00000  Uiso   1.00
O1097  O     0.29275   0.57307   0.27302   0.00000  Uiso   1.00
O1098  O     0.42692   0.79275   0.72698   0.00000  Uiso   1.00
O1099  O     0.07307   0.70725   0.27302   0.00000  Uiso   1.00
O1100  O     0.29275   0.57307   0.72698   0.00000  Uiso   1.00
O1101  O     0.20724   0.92693   0.27302   0.00000  Uiso   1.00
O1102  O     0.07307   0.70725   0.72698   0.00000  Uiso   1.00
O1103  O     0.42692   0.79275   0.27302   0.00000  Uiso   1.00
O1104  O     0.45724   0.82307   0.77302   0.00000  Uiso   1.00
O1105  O     0.04275   0.67693   0.22698   0.00000  Uiso   1.00
O1106  O     0.17692   0.95725   0.77302   0.00000  Uiso   1.00
O1107  O     0.00000   0.75000   0.75000   0.00000  Uiso   1.00
O1108  O     0.32307   0.54275   0.22698   0.00000  Uiso   1.00
O1109  O     0.04275   0.67693   0.77302   0.00000  Uiso   1.00
O1110  O     0.45724   0.82307   0.22698   0.00000  Uiso   1.00
O1111  O     0.32307   0.54275   0.77302   0.00000  Uiso   1.00
O1112  O     0.17692   0.95725   0.22698   0.00000  Uiso   1.00
O1113  O     0.45724   0.67692   0.22698   0.00000  Uiso   1.00
O1114  O     0.04275   0.82308   0.77302   0.00000  Uiso   1.00
O1115  O     0.17692   0.54275   0.22698   0.00000  Uiso   1.00
O1116  O     0.32307   0.95725   0.77302   0.00000  Uiso   1.00
O1117  O     0.04275   0.82308   0.22698   0.00000  Uiso   1.00
O1118  O     0.25000   0.96964   0.33755   0.00000  Uiso   1.00
O1119  O     0.45724   0.67692   0.77302   0.00000  Uiso   1.00
O1120  O     0.32307   0.95725   0.22698   0.00000  Uiso   1.00
O1121  O     0.17692   0.54275   0.77302   0.00000  Uiso   1.00
O1122  O     0.04067   0.65908   0.46051   0.00000  Uiso   1.00
O1123  O     0.44607   0.83431   0.53946   0.00000  Uiso   1.00
O1124  O     0.33437   0.94615   0.46057   0.00000  Uiso   1.00
O1125  O     0.15904   0.54069   0.53940   0.00000  Uiso   1.00
O1126  O     0.45943   0.84098   0.46064   0.00000  Uiso   1.00
O1127  O     0.05384   0.66566   0.53938   0.00000  Uiso   1.00
O1128  O     0.16572   0.55403   0.46059   0.00000  Uiso   1.00
O1129  O     0.25000   0.53036   0.66245   0.00000  Uiso   1.00
O1130  O     0.34093   0.95925   0.53946   0.00000  Uiso   1.00
O1131  O     0.29093   0.90919   0.96050   0.00000  Uiso   1.00
O1132  O     0.19586   0.58417   0.03946   0.00000  Uiso   1.00
O1133  O     0.08310   0.69397   0.96079   0.00000  Uiso   1.00
O1134  O     0.40800   0.78823   0.03950   0.00000  Uiso   1.00
O1135  O     0.20915   0.59085   0.96063   0.00000  Uiso   1.00
O1136  O     0.30405   0.91578   0.03938   0.00000  Uiso   1.00
O1137  O     0.41399   0.80111   0.96056   0.00000  Uiso   1.00
O1138  O     0.09055   0.70821   0.03944   0.00000  Uiso   1.00
O1139  O     0.10730   0.94934   0.25344   0.00000  Uiso   1.00
O1140  O     0.03036   0.75000   0.33755   0.00000  Uiso   1.00
O1141  O     0.39347   0.55094   0.75177   0.00000  Uiso   1.00
O1142  O     0.05120   0.60639   0.24316   0.00000  Uiso   1.00
O1143  O     0.44909   0.89333   0.75151   0.00000  Uiso   1.00
O1144  O     0.39371   0.55127   0.24261   0.00000  Uiso   1.00
O1145  O     0.10653   0.94907   0.75141   0.00000  Uiso   1.00
O1146  O     0.44645   0.89511   0.26933   0.00000  Uiso   1.00
O1147  O     0.05349   0.60473   0.73117   0.00000  Uiso   1.00
O1148  O     0.10475   0.55354   0.73101   0.00000  Uiso   1.00
O1149  O     0.39530   0.94642   0.26908   0.00000  Uiso   1.00
O1150  O     0.05121   0.89369   0.75712   0.00000  Uiso   1.00
O1151  O     0.46963   0.75000   0.66245   0.00000  Uiso   1.00
O1152  O     0.44911   0.60658   0.24821   0.00000  Uiso   1.00
O1153  O     0.39365   0.94874   0.75706   0.00000  Uiso   1.00
O1154  O     0.10662   0.55095   0.24868   0.00000  Uiso   1.00
O1155  O     0.44879   0.60634   0.75730   0.00000  Uiso   1.00
O1156  O     0.05200   0.89687   0.25747   0.00000  Uiso   1.00
O1157  O     0.35652   0.69906   0.74819   0.00000  Uiso   1.00
O1158  O     0.14269   0.80065   0.24649   0.00000  Uiso   1.00
O1159  O     0.30091   0.85667   0.74859   0.00000  Uiso   1.00
O1160  O     0.19878   0.64361   0.25695   0.00000  Uiso   1.00
O1161  O     0.14347   0.80093   0.74855   0.00000  Uiso   1.00
O1162  O     0.25000   0.53036   0.33755   0.00000  Uiso   1.00
O1163  O     0.35629   0.69874   0.25735   0.00000  Uiso   1.00
O1164  O     0.19650   0.64519   0.76905   0.00000  Uiso   1.00
O1165  O     0.30354   0.85480   0.23085   0.00000  Uiso   1.00
O1166  O     0.35478   0.80359   0.23074   0.00000  Uiso   1.00
O1167  O     0.14533   0.69647   0.76886   0.00000  Uiso   1.00
O1168  O     0.30089   0.64343   0.25183   0.00000  Uiso   1.00
O1169  O     0.19880   0.85631   0.74291   0.00000  Uiso   1.00
O1170  O     0.14338   0.69904   0.25123   0.00000  Uiso   1.00
O1171  O     0.35635   0.80128   0.74284   0.00000  Uiso   1.00
O1172  O     0.19801   0.85311   0.24264   0.00000  Uiso   1.00
Zn1173 Zn    0.20659   0.50000   0.21735   0.00000  Uiso   1.00
Zn1174 Zn    0.04340   0.75000   0.28265   0.00000  Uiso   1.00
Zn1175 Zn    0.25000   0.95660   0.71735   0.00000  Uiso   1.00
Zn1176 Zn    0.25000   0.54340   0.28265   0.00000  Uiso   1.00
Zn1177 Zn    0.04340   0.75000   0.71735   0.00000  Uiso   1.00
Zn1178 Zn    0.45659   0.75000   0.28265   0.00000  Uiso   1.00
Zn1179 Zn    0.25000   0.54340   0.71735   0.00000  Uiso   1.00
Zn1180 Zn    0.25000   0.95660   0.28265   0.00000  Uiso   1.00
Zn1181 Zn    0.29340   0.50000   0.78265   0.00000  Uiso   1.00
Zn1182 Zn    0.00000   0.70660   0.21735   0.00000  Uiso   1.00
Zn1183 Zn    0.00000   0.79341   0.78265   0.00000  Uiso   1.00
Zn1184 Zn    0.29340   0.50000   0.21735   0.00000  Uiso   1.00
Zn1185 Zn    0.20659   0.50000   0.78265   0.00000  Uiso   1.00
Zn1186 Zn    0.00000   0.79341   0.21735   0.00000  Uiso   1.00
Zn1187 Zn    0.00000   0.70660   0.78265   0.00000  Uiso   1.00
Zn1188 Zn    0.45659   0.75000   0.71735   0.00000  Uiso   1.00
C1189  C     0.98217   0.77833   0.41759   0.00000  Uiso   1.00
C1190  C     0.77172   0.97467   0.08184   0.00000  Uiso   1.00
C1191  C     0.72080   0.51703   0.54135   0.00000  Uiso   1.00
C1192  C     0.98301   0.77922   0.45867   0.00000  Uiso   1.00
C1193  C     0.51932   0.72227   0.54088   0.00000  Uiso   1.00
C1194  C     0.72229   0.51940   0.45911   0.00000  Uiso   1.00
C1195  C     0.77917   0.98294   0.54135   0.00000  Uiso   1.00
C1196  C     0.76712   0.97087   0.95863   0.00000  Uiso   1.00
C1197  C     0.73056   0.52767   0.04091   0.00000  Uiso   1.00
C1198  C     0.52789   0.73066   0.95904   0.00000  Uiso   1.00
C1199  C     0.97024   0.76594   0.04131   0.00000  Uiso   1.00
C1200  C     0.73291   0.52916   0.95867   0.00000  Uiso   1.00
C1201  C     0.97370   0.77036   0.91806   0.00000  Uiso   1.00
C1202  C     0.76939   0.97231   0.04088   0.00000  Uiso   1.00
C1203  C     0.97147   0.76799   0.95904   0.00000  Uiso   1.00
C1204  C     0.52900   0.73254   0.04136   0.00000  Uiso   1.00
C1205  C     0.59783   0.84836   0.25098   0.00000  Uiso   1.00
C1206  C     0.90195   0.65180   0.74971   0.00000  Uiso   1.00
C1207  C     0.65196   0.59819   0.24976   0.00000  Uiso   1.00
C1208  C     0.84820   0.90197   0.74977   0.00000  Uiso   1.00
C1209  C     0.90180   0.65196   0.24974   0.00000  Uiso   1.00
C1210  C     0.59804   0.84821   0.74978   0.00000  Uiso   1.00
C1211  C     0.84802   0.90200   0.24998   0.00000  Uiso   1.00
C1212  C     0.52824   0.73204   0.08245   0.00000  Uiso   1.00
C1213  C     0.65200   0.59799   0.75003   0.00000  Uiso   1.00
C1214  C     0.59802   0.65200   0.74999   0.00000  Uiso   1.00
C1215  C     0.90199   0.84799   0.25003   0.00000  Uiso   1.00
C1216  C     0.65196   0.90180   0.75022   0.00000  Uiso   1.00
C1217  C     0.84821   0.59805   0.25026   0.00000  Uiso   1.00
C1218  C     0.90180   0.84804   0.75023   0.00000  Uiso   1.00
C1219  C     0.59803   0.65181   0.25025   0.00000  Uiso   1.00
C1220  C     0.84804   0.59820   0.75028   0.00000  Uiso   1.00
C1221  C     0.65216   0.90163   0.24902   0.00000  Uiso   1.00
C1222  C     0.50001   0.75002   0.47919   0.00000  Uiso   1.00
C1223  C     0.76798   0.97179   0.91757   0.00000  Uiso   1.00
C1224  C     0.99999   0.75001   0.52033   0.00000  Uiso   1.00
C1225  C     0.75001   0.50003   0.47967   0.00000  Uiso   1.00
C1226  C     0.74999   0.50000   0.52081   0.00000  Uiso   1.00
C1227  C     0.75001   0.50001   0.97919   0.00000  Uiso   1.00
C1228  C     0.74999   0.50000   0.02033   0.00000  Uiso   1.00
C1229  C     0.99965   0.74927   0.97961   0.00000  Uiso   1.00
C1230  C     0.99962   0.74922   0.02077   0.00000  Uiso   1.00
C1231  C     0.98251   0.83369   0.37793   0.00000  Uiso   1.00
C1232  C     0.58284   0.71047   0.60549   0.00000  Uiso   1.00
C1233  C     0.71062   0.58292   0.39456   0.00000  Uiso   1.00
C1234  C     0.72821   0.52530   0.08186   0.00000  Uiso   1.00
C1235  C     0.83369   0.98247   0.62206   0.00000  Uiso   1.00
C1236  C     0.51740   0.66632   0.37792   0.00000  Uiso   1.00
C1237  C     0.91709   0.78946   0.60547   0.00000  Uiso   1.00
C1238  C     0.78949   0.91718   0.39449   0.00000  Uiso   1.00
C1239  C     0.66630   0.51764   0.62210   0.00000  Uiso   1.00
C1240  C     0.73216   0.58361   0.87793   0.00000  Uiso   1.00
C1241  C     0.83295   0.96068   0.10548   0.00000  Uiso   1.00
C1242  C     0.95730   0.83078   0.89396   0.00000  Uiso   1.00
C1243  C     0.58398   0.73339   0.12154   0.00000  Uiso   1.00
C1244  C     0.76772   0.91639   0.87790   0.00000  Uiso   1.00
C1245  C     0.52651   0.72948   0.91799   0.00000  Uiso   1.00
C1246  C     0.66697   0.53923   0.10543   0.00000  Uiso   1.00
C1247  C     0.54576   0.67167   0.88785   0.00000  Uiso   1.00
C1248  C     0.91618   0.76678   0.12250   0.00000  Uiso   1.00
C1249  C     0.97131   0.76718   0.08238   0.00000  Uiso   1.00
C1250  C     0.50003   0.75003   0.39788   0.00000  Uiso   1.00
C1251  C     0.99997   0.74999   0.60171   0.00000  Uiso   1.00
C1252  C     0.75002   0.50005   0.39829   0.00000  Uiso   1.00
C1253  C     0.52166   0.72462   0.58185   0.00000  Uiso   1.00
C1254  C     0.74997   0.99996   0.60212   0.00000  Uiso   1.00
C1255  C     0.75003   0.50002   0.89789   0.00000  Uiso   1.00
C1256  C     0.74997   0.99998   0.10171   0.00000  Uiso   1.00
C1257  C     0.50012   0.74997   0.89822   0.00000  Uiso   1.00
C1258  C     0.99990   0.74984   0.10211   0.00000  Uiso   1.00
C1259  C     0.53163   0.69102   0.47957   0.00000  Uiso   1.00
C1260  C     0.96447   0.80690   0.52011   0.00000  Uiso   1.00
C1261  C     0.80691   0.96448   0.47992   0.00000  Uiso   1.00
C1262  C     0.69100   0.53167   0.52039   0.00000  Uiso   1.00
C1263  C     0.96840   0.80903   0.47964   0.00000  Uiso   1.00
C1264  C     0.72466   0.52176   0.41815   0.00000  Uiso   1.00
C1265  C     0.53550   0.69311   0.52005   0.00000  Uiso   1.00
C1266  C     0.69313   0.53560   0.47992   0.00000  Uiso   1.00
C1267  C     0.80899   0.96833   0.52040   0.00000  Uiso   1.00
C1268  C     0.78180   0.94110   0.97957   0.00000  Uiso   1.00
C1269  C     0.71431   0.55679   0.02011   0.00000  Uiso   1.00
C1270  C     0.55655   0.71375   0.97996   0.00000  Uiso   1.00
C1271  C     0.94006   0.77980   0.02039   0.00000  Uiso   1.00
C1272  C     0.71822   0.55892   0.97964   0.00000  Uiso   1.00
C1273  C     0.78565   0.94319   0.02005   0.00000  Uiso   1.00
C1274  C     0.94193   0.78350   0.97988   0.00000  Uiso   1.00
C1275  C     0.77825   0.98208   0.58242   0.00000  Uiso   1.00
C1276  C     0.55870   0.71767   0.02042   0.00000  Uiso   1.00
C1277  C     0.75000   0.50002   0.35584   0.00000  Uiso   1.00
C1278  C     0.74999   0.99999   0.64431   0.00000  Uiso   1.00
C1279  C     0.50001   0.75001   0.35570   0.00000  Uiso   1.00
C1280  C     0.99999   0.75000   0.64415   0.00000  Uiso   1.00
C1281  C     0.50011   0.75001   0.85582   0.00000  Uiso   1.00
C1282  C     0.50000   0.74998   0.14430   0.00000  Uiso   1.00
C1283  C     0.75001   0.50001   0.85570   0.00000  Uiso   1.00
C1284  C     0.74999   0.50000   0.14415   0.00000  Uiso   1.00
C1285  C     0.68003   0.57006   0.24993   0.00000  Uiso   1.00
C1286  C     0.51788   0.72174   0.41757   0.00000  Uiso   1.00
C1287  C     0.82006   0.93003   0.74994   0.00000  Uiso   1.00
C1288  C     0.92993   0.68003   0.24993   0.00000  Uiso   1.00
C1289  C     0.56997   0.82007   0.74994   0.00000  Uiso   1.00
C1290  C     0.81996   0.93005   0.25000   0.00000  Uiso   1.00
C1291  C     0.68005   0.56995   0.75001   0.00000  Uiso   1.00
C1292  C     0.56990   0.82010   0.25025   0.00000  Uiso   1.00
C1293  C     0.93002   0.67994   0.74992   0.00000  Uiso   1.00
C1294  C     0.68003   0.92993   0.75006   0.00000  Uiso   1.00
C1295  C     0.82007   0.56998   0.25007   0.00000  Uiso   1.00
C1296  C     0.92994   0.81997   0.75006   0.00000  Uiso   1.00
C1297  C     0.97828   0.77536   0.58187   0.00000  Uiso   1.00
C1298  C     0.56997   0.67994   0.25007   0.00000  Uiso   1.00
C1299  C     0.81997   0.57006   0.75009   0.00000  Uiso   1.00
C1300  C     0.68010   0.92990   0.24975   0.00000  Uiso   1.00
C1301  C     0.56996   0.68005   0.75000   0.00000  Uiso   1.00
C1302  C     0.93004   0.81994   0.25000   0.00000  Uiso   1.00
C1303  C     0.61531   0.91239   0.25122   0.00000  Uiso   1.00
C1304  C     0.88495   0.58775   0.75246   0.00000  Uiso   1.00
C1305  C     0.58781   0.61493   0.24693   0.00000  Uiso   1.00
C1306  C     0.91227   0.88490   0.75232   0.00000  Uiso   1.00
C1307  C     0.88511   0.58785   0.24666   0.00000  Uiso   1.00
C1308  C     0.77539   0.97835   0.41814   0.00000  Uiso   1.00
C1309  C     0.61505   0.91226   0.75229   0.00000  Uiso   1.00
C1310  C     0.91145   0.88449   0.25906   0.00000  Uiso   1.00
C1311  C     0.58853   0.61544   0.74116   0.00000  Uiso   1.00
C1312  C     0.61544   0.58854   0.74113   0.00000  Uiso   1.00
C1313  C     0.88457   0.91143   0.25897   0.00000  Uiso   1.00
C1314  C     0.58782   0.88510   0.75320   0.00000  Uiso   1.00
C1315  C     0.91228   0.61507   0.24752   0.00000  Uiso   1.00
C1316  C     0.88508   0.91215   0.75319   0.00000  Uiso   1.00
C1317  C     0.61507   0.58775   0.24778   0.00000  Uiso   1.00
C1318  C     0.91218   0.61492   0.75330   0.00000  Uiso   1.00
C1319  C     0.72169   0.51786   0.58242   0.00000  Uiso   1.00
C1320  C     0.58787   0.88566   0.25293   0.00000  Uiso   1.00
C1321  C     0.86504   0.66225   0.74752   0.00000  Uiso   1.00
C1322  C     0.63468   0.83760   0.24876   0.00000  Uiso   1.00
C1323  C     0.83773   0.86511   0.74771   0.00000  Uiso   1.00
C1324  C     0.66217   0.63507   0.25311   0.00000  Uiso   1.00
C1325  C     0.63496   0.83774   0.74770   0.00000  Uiso   1.00
C1326  C     0.86489   0.66216   0.25333   0.00000  Uiso   1.00
C1327  C     0.66148   0.63453   0.75892   0.00000  Uiso   1.00
C1328  C     0.83856   0.86547   0.24100   0.00000  Uiso   1.00
C1329  C     0.86546   0.83857   0.24098   0.00000  Uiso   1.00
C1330  C     0.73207   0.52825   0.91760   0.00000  Uiso   1.00
C1331  C     0.63459   0.66145   0.75885   0.00000  Uiso   1.00
C1332  C     0.83773   0.63493   0.25249   0.00000  Uiso   1.00
C1333  C     0.66219   0.86490   0.74681   0.00000  Uiso   1.00
C1334  C     0.63492   0.66225   0.25220   0.00000  Uiso   1.00
C1335  C     0.86491   0.83786   0.74679   0.00000  Uiso   1.00
C1336  C     0.66212   0.86432   0.24709   0.00000  Uiso   1.00
C1337  C     0.83782   0.63508   0.74671   0.00000  Uiso   1.00
C1338  C     0.51704   0.72083   0.45863   0.00000  Uiso   1.00
C1339  C     0.98064   0.77773   0.54091   0.00000  Uiso   1.00
C1340  C     0.77774   0.98069   0.45910   0.00000  Uiso   1.00
H1341  H     0.53590   0.63801   0.47777   0.00000  Uiso   1.00
H1342  H     0.67580   0.59332   0.02274   0.00000  Uiso   1.00
H1343  H     0.75425   0.89959   0.90048   0.00000  Uiso   1.00
H1344  H     0.71167   0.57617   0.10444   0.00000  Uiso   1.00
H1345  H     0.65258   0.55732   0.12627   0.00000  Uiso   1.00
H1346  H     0.66355   0.51051   0.11511   0.00000  Uiso   1.00
H1347  H     0.65424   0.54230   0.07645   0.00000  Uiso   1.00
H1348  H     0.57965   0.71842   0.89651   0.00000  Uiso   1.00
H1349  H     0.56558   0.65432   0.90376   0.00000  Uiso   1.00
H1350  H     0.54910   0.66629   0.85642   0.00000  Uiso   1.00
H1351  H     0.51757   0.66381   0.89647   0.00000  Uiso   1.00
H1352  H     0.93800   0.81281   0.09390   0.00000  Uiso   1.00
H1353  H     0.59177   0.67397   0.97784   0.00000  Uiso   1.00
H1354  H     0.89832   0.78545   0.13939   0.00000  Uiso   1.00
H1355  H     0.92736   0.74602   0.14266   0.00000  Uiso   1.00
H1356  H     0.89943   0.75267   0.10028   0.00000  Uiso   1.00
H1357  H     0.88695   0.78290   0.02232   0.00000  Uiso   1.00
H1358  H     0.71382   0.61192   0.97798   0.00000  Uiso   1.00
H1359  H     0.82414   0.90665   0.02270   0.00000  Uiso   1.00
H1360  H     0.90441   0.82103   0.97719   0.00000  Uiso   1.00
H1361  H     0.61166   0.71223   0.02197   0.00000  Uiso   1.00
H1362  H     0.58054   0.95324   0.25372   0.00000  Uiso   1.00
H1363  H     0.91766   0.54761   0.73941   0.00000  Uiso   1.00
H1364  H     0.54892   0.58373   0.22766   0.00000  Uiso   1.00
H1365  H     0.92604   0.84352   0.52272   0.00000  Uiso   1.00
H1366  H     0.95236   0.91748   0.73911   0.00000  Uiso   1.00
H1367  H     0.91629   0.54906   0.22697   0.00000  Uiso   1.00
H1368  H     0.58237   0.95232   0.73896   0.00000  Uiso   1.00
H1369  H     0.96121   0.87364   0.27691   0.00000  Uiso   1.00
H1370  H     0.53858   0.62616   0.72381   0.00000  Uiso   1.00
H1371  H     0.62619   0.53871   0.72348   0.00000  Uiso   1.00
H1372  H     0.87385   0.96138   0.27625   0.00000  Uiso   1.00
H1373  H     0.54898   0.91637   0.77261   0.00000  Uiso   1.00
H1374  H     0.95245   0.58240   0.26055   0.00000  Uiso   1.00
H1375  H     0.91628   0.95097   0.77263   0.00000  Uiso   1.00
H1376  H     0.84354   0.92608   0.47724   0.00000  Uiso   1.00
H1377  H     0.58248   0.54772   0.26116   0.00000  Uiso   1.00
H1378  H     0.95101   0.58378   0.77294   0.00000  Uiso   1.00
H1379  H     0.53770   0.87728   0.27006   0.00000  Uiso   1.00
H1380  H     0.83233   0.70239   0.76053   0.00000  Uiso   1.00
H1381  H     0.66944   0.79675   0.24614   0.00000  Uiso   1.00
H1382  H     0.79767   0.83251   0.76099   0.00000  Uiso   1.00
H1383  H     0.70103   0.66628   0.27243   0.00000  Uiso   1.00
H1384  H     0.66764   0.79767   0.76100   0.00000  Uiso   1.00
H1385  H     0.83373   0.70096   0.27300   0.00000  Uiso   1.00
H1386  H     0.71130   0.62375   0.77662   0.00000  Uiso   1.00
H1387  H     0.63796   0.53600   0.52205   0.00000  Uiso   1.00
H1388  H     0.78868   0.87626   0.22348   0.00000  Uiso   1.00
H1389  H     0.87625   0.78874   0.22334   0.00000  Uiso   1.00
H1390  H     0.62389   0.71139   0.77618   0.00000  Uiso   1.00
H1391  H     0.79755   0.66761   0.23950   0.00000  Uiso   1.00
H1392  H     0.70105   0.83364   0.72742   0.00000  Uiso   1.00
H1393  H     0.66752   0.70225   0.23875   0.00000  Uiso   1.00
H1394  H     0.83370   0.79908   0.72729   0.00000  Uiso   1.00
H1395  H     0.71233   0.87269   0.23008   0.00000  Uiso   1.00
H1396  H     0.79897   0.66620   0.72706   0.00000  Uiso   1.00
H1397  H     0.93626   0.81112   0.40557   0.00000  Uiso   1.00
H1398  H     0.96414   0.86204   0.47800   0.00000  Uiso   1.00
H1399  H     0.96390   0.85135   0.36075   0.00000  Uiso   1.00
H1400  H     0.50380   0.82285   0.35815   0.00000  Uiso   1.00
H1401  H     0.99600   0.85053   0.40051   0.00000  Uiso   1.00
H1402  H     0.53801   0.67369   0.60435   0.00000  Uiso   1.00
H1403  H     0.59717   0.69232   0.62630   0.00000  Uiso   1.00
H1404  H     0.58637   0.73917   0.61523   0.00000  Uiso   1.00
H1405  H     0.59557   0.70736   0.57652   0.00000  Uiso   1.00
H1406  H     0.67372   0.53819   0.39561   0.00000  Uiso   1.00
H1407  H     0.69249   0.59727   0.37372   0.00000  Uiso   1.00
H1408  H     0.73934   0.58639   0.38488   0.00000  Uiso   1.00
H1409  H     0.57390   0.65647   0.52269   0.00000  Uiso   1.00
H1410  H     0.70752   0.59567   0.42354   0.00000  Uiso   1.00
H1411  H     0.81105   0.93620   0.59446   0.00000  Uiso   1.00
H1412  H     0.85144   0.96389   0.63917   0.00000  Uiso   1.00
H1413  H     0.82289   0.50374   0.64189   0.00000  Uiso   1.00
H1414  H     0.85045   0.99598   0.59947   0.00000  Uiso   1.00
H1415  H     0.56374   0.68890   0.40548   0.00000  Uiso   1.00
H1416  H     0.53596   0.64856   0.36079   0.00000  Uiso   1.00
H1417  H     0.99613   0.67715   0.35811   0.00000  Uiso   1.00
H1418  H     0.50388   0.64960   0.40053   0.00000  Uiso   1.00
H1419  H     0.96189   0.82629   0.60443   0.00000  Uiso   1.00
H1420  H     0.65654   0.57405   0.47733   0.00000  Uiso   1.00
H1421  H     0.90276   0.80759   0.62632   0.00000  Uiso   1.00
H1422  H     0.91359   0.76076   0.61514   0.00000  Uiso   1.00
H1423  H     0.90435   0.79258   0.57650   0.00000  Uiso   1.00
H1424  H     0.82633   0.96196   0.39561   0.00000  Uiso   1.00
H1425  H     0.80764   0.90284   0.37366   0.00000  Uiso   1.00
H1426  H     0.76077   0.91367   0.38477   0.00000  Uiso   1.00
H1427  H     0.79261   0.90446   0.42346   0.00000  Uiso   1.00
H1428  H     0.68896   0.56381   0.59446   0.00000  Uiso   1.00
H1429  H     0.64866   0.53628   0.63929   0.00000  Uiso   1.00
H1430  H     0.67710   0.99635   0.64188   0.00000  Uiso   1.00
H1431  H     0.86202   0.96402   0.52220   0.00000  Uiso   1.00
H1432  H     0.64943   0.50419   0.59952   0.00000  Uiso   1.00
H1433  H     0.68603   0.56088   0.90561   0.00000  Uiso   1.00
H1434  H     0.71347   0.60121   0.86076   0.00000  Uiso   1.00
H1435  H     0.75347   0.57285   0.85812   0.00000  Uiso   1.00
H1436  H     0.74561   0.60049   0.90049   0.00000  Uiso   1.00
H1437  H     0.78821   0.92378   0.10435   0.00000  Uiso   1.00
H1438  H     0.84732   0.94256   0.12630   0.00000  Uiso   1.00
H1439  H     0.83640   0.98938   0.11522   0.00000  Uiso   1.00
H1440  H     0.84568   0.95759   0.07651   0.00000  Uiso   1.00
H1441  H     0.92207   0.78476   0.89577   0.00000  Uiso   1.00
H1442  H     0.78620   0.88810   0.97776   0.00000  Uiso   1.00
H1443  H     0.93860   0.84425   0.87303   0.00000  Uiso   1.00
H1444  H     0.98585   0.83523   0.88418   0.00000  Uiso   1.00
H1445  H     0.95381   0.84369   0.92281   0.00000  Uiso   1.00
H1446  H     0.56127   0.68645   0.09520   0.00000  Uiso   1.00
H1447  H     0.60186   0.71524   0.13902   0.00000  Uiso   1.00
H1448  H     0.57318   0.75506   0.14089   0.00000  Uiso   1.00
H1449  H     0.60059   0.74642   0.09851   0.00000  Uiso   1.00
H1450  H     0.81396   0.93911   0.90551   0.00000  Uiso   1.00
H1451  H     0.78635   0.89870   0.86076   0.00000  Uiso   1.00
H1452  H     0.74641   0.92715   0.85808   0.00000  Uiso   1.00
N1453  N     0.96179   0.80420   0.39529   0.00000  Uiso   1.00
N1454  N     0.79455   0.95118   0.10428   0.00000  Uiso   1.00
N1455  N     0.94924   0.79208   0.89556   0.00000  Uiso   1.00
N1456  N     0.55443   0.71220   0.10489   0.00000  Uiso   1.00
N1457  N     0.78840   0.94595   0.89524   0.00000  Uiso   1.00
N1458  N     0.70536   0.54876   0.10431   0.00000  Uiso   1.00
N1459  N     0.55280   0.70997   0.89548   0.00000  Uiso   1.00
N1460  N     0.94534   0.78757   0.10459   0.00000  Uiso   1.00
N1461  N     0.54442   0.70107   0.60429   0.00000  Uiso   1.00
N1462  N     0.70114   0.54454   0.39571   0.00000  Uiso   1.00
N1463  N     0.80415   0.96173   0.60473   0.00000  Uiso   1.00
N1464  N     0.53820   0.69582   0.39523   0.00000  Uiso   1.00
N1465  N     0.95550   0.79889   0.60432   0.00000  Uiso   1.00
N1466  N     0.79892   0.95557   0.39569   0.00000  Uiso   1.00
N1467  N     0.69584   0.53829   0.60473   0.00000  Uiso   1.00
N1468  N     0.71156   0.55405   0.89531   0.00000  Uiso   1.00
O1469  O     0.75000   0.50000   0.25000   0.00000  Uiso   1.00
O1470  O     0.75000   0.96964   0.66245   0.00000  Uiso   1.00
O1471  O     0.80121   0.64365   0.74273   0.00000  Uiso   1.00
O1472  O     0.96963   0.75000   0.33755   0.00000  Uiso   1.00
O1473  O     0.53036   0.75000   0.66245   0.00000  Uiso   1.00
O1474  O     0.50000   0.71964   0.83755   0.00000  Uiso   1.00
O1475  O     0.50000   0.78037   0.16245   0.00000  Uiso   1.00
O1476  O     0.78036   0.50000   0.83755   0.00000  Uiso   1.00
O1477  O     0.71963   0.50000   0.16245   0.00000  Uiso   1.00
O1478  O     0.50000   0.78037   0.83755   0.00000  Uiso   1.00
O1479  O     0.50000   0.71964   0.16245   0.00000  Uiso   1.00
O1480  O     0.71963   0.50000   0.83755   0.00000  Uiso   1.00
O1481  O     0.75000   0.50000   0.75000   0.00000  Uiso   1.00
O1482  O     0.78036   0.50000   0.16245   0.00000  Uiso   1.00
O1483  O     0.70724   0.57307   0.27302   0.00000  Uiso   1.00
O1484  O     0.79275   0.92693   0.72698   0.00000  Uiso   1.00
O1485  O     0.92692   0.70724   0.27302   0.00000  Uiso   1.00
O1486  O     0.57307   0.79276   0.72698   0.00000  Uiso   1.00
O1487  O     0.79275   0.92693   0.27302   0.00000  Uiso   1.00
O1488  O     0.70724   0.57307   0.72698   0.00000  Uiso   1.00
O1489  O     0.57307   0.79276   0.27302   0.00000  Uiso   1.00
O1490  O     0.92692   0.70724   0.72698   0.00000  Uiso   1.00
O1491  O     0.70724   0.92693   0.72698   0.00000  Uiso   1.00
O1492  O     0.50000   0.75000   0.25000   0.00000  Uiso   1.00
O1493  O     0.79275   0.57307   0.27302   0.00000  Uiso   1.00
O1494  O     0.92692   0.79275   0.72698   0.00000  Uiso   1.00
O1495  O     0.57307   0.70725   0.27302   0.00000  Uiso   1.00
O1496  O     0.79275   0.57307   0.72698   0.00000  Uiso   1.00
O1497  O     0.70724   0.92693   0.27302   0.00000  Uiso   1.00
O1498  O     0.57307   0.70725   0.72698   0.00000  Uiso   1.00
O1499  O     0.92692   0.79275   0.27302   0.00000  Uiso   1.00
O1500  O     0.95724   0.82307   0.77302   0.00000  Uiso   1.00
O1501  O     0.54275   0.67693   0.22698   0.00000  Uiso   1.00
O1502  O     0.67692   0.95725   0.77302   0.00000  Uiso   1.00
O1503  O     0.50000   0.75000   0.75000   0.00000  Uiso   1.00
O1504  O     0.82307   0.54275   0.22698   0.00000  Uiso   1.00
O1505  O     0.54275   0.67693   0.77302   0.00000  Uiso   1.00
O1506  O     0.95724   0.82307   0.22698   0.00000  Uiso   1.00
O1507  O     0.82307   0.54275   0.77302   0.00000  Uiso   1.00
O1508  O     0.67692   0.95725   0.22698   0.00000  Uiso   1.00
O1509  O     0.95724   0.67692   0.22698   0.00000  Uiso   1.00
O1510  O     0.54275   0.82308   0.77302   0.00000  Uiso   1.00
O1511  O     0.67692   0.54275   0.22698   0.00000  Uiso   1.00
O1512  O     0.82307   0.95725   0.77302   0.00000  Uiso   1.00
O1513  O     0.54275   0.82308   0.22698   0.00000  Uiso   1.00
O1514  O     0.75000   0.96964   0.33755   0.00000  Uiso   1.00
O1515  O     0.95724   0.67692   0.77302   0.00000  Uiso   1.00
O1516  O     0.82307   0.95725   0.22698   0.00000  Uiso   1.00
O1517  O     0.67692   0.54275   0.77302   0.00000  Uiso   1.00
O1518  O     0.54067   0.65908   0.46051   0.00000  Uiso   1.00
O1519  O     0.94607   0.83431   0.53946   0.00000  Uiso   1.00
O1520  O     0.83437   0.94615   0.46057   0.00000  Uiso   1.00
O1521  O     0.65904   0.54069   0.53940   0.00000  Uiso   1.00
O1522  O     0.95943   0.84098   0.46064   0.00000  Uiso   1.00
O1523  O     0.55384   0.66566   0.53938   0.00000  Uiso   1.00
O1524  O     0.66572   0.55403   0.46059   0.00000  Uiso   1.00
O1525  O     0.75000   0.53036   0.66245   0.00000  Uiso   1.00
O1526  O     0.84093   0.95925   0.53946   0.00000  Uiso   1.00
O1527  O     0.79093   0.90919   0.96050   0.00000  Uiso   1.00
O1528  O     0.69586   0.58417   0.03946   0.00000  Uiso   1.00
O1529  O     0.58310   0.69397   0.96079   0.00000  Uiso   1.00
O1530  O     0.90800   0.78823   0.03950   0.00000  Uiso   1.00
O1531  O     0.70915   0.59085   0.96063   0.00000  Uiso   1.00
O1532  O     0.80405   0.91578   0.03938   0.00000  Uiso   1.00
O1533  O     0.91399   0.80111   0.96056   0.00000  Uiso   1.00
O1534  O     0.59055   0.70821   0.03944   0.00000  Uiso   1.00
O1535  O     0.60730   0.94934   0.25344   0.00000  Uiso   1.00
O1536  O     0.53036   0.75000   0.33755   0.00000  Uiso   1.00
O1537  O     0.89347   0.55094   0.75177   0.00000  Uiso   1.00
O1538  O     0.55120   0.60639   0.24316   0.00000  Uiso   1.00
O1539  O     0.94909   0.89333   0.75151   0.00000  Uiso   1.00
O1540  O     0.89371   0.55127   0.24261   0.00000  Uiso   1.00
O1541  O     0.60653   0.94907   0.75141   0.00000  Uiso   1.00
O1542  O     0.94645   0.89511   0.26933   0.00000  Uiso   1.00
O1543  O     0.55349   0.60473   0.73117   0.00000  Uiso   1.00
O1544  O     0.60475   0.55354   0.73101   0.00000  Uiso   1.00
O1545  O     0.89530   0.94642   0.26908   0.00000  Uiso   1.00
O1546  O     0.55121   0.89369   0.75712   0.00000  Uiso   1.00
O1547  O     0.96963   0.75000   0.66245   0.00000  Uiso   1.00
O1548  O     0.94911   0.60658   0.24821   0.00000  Uiso   1.00
O1549  O     0.89365   0.94874   0.75706   0.00000  Uiso   1.00
O1550  O     0.60662   0.55095   0.24868   0.00000  Uiso   1.00
O1551  O     0.94879   0.60634   0.75730   0.00000  Uiso   1.00
O1552  O     0.55200   0.89687   0.25747   0.00000  Uiso   1.00
O1553  O     0.85652   0.69906   0.74819   0.00000  Uiso   1.00
O1554  O     0.64269   0.80065   0.24649   0.00000  Uiso   1.00
O1555  O     0.80091   0.85667   0.74859   0.00000  Uiso   1.00
O1556  O     0.69878   0.64361   0.25695   0.00000  Uiso   1.00
O1557  O     0.64347   0.80093   0.74855   0.00000  Uiso   1.00
O1558  O     0.75000   0.53036   0.33755   0.00000  Uiso   1.00
O1559  O     0.85629   0.69874   0.25735   0.00000  Uiso   1.00
O1560  O     0.69650   0.64519   0.76905   0.00000  Uiso   1.00
O1561  O     0.80354   0.85480   0.23085   0.00000  Uiso   1.00
O1562  O     0.85478   0.80359   0.23074   0.00000  Uiso   1.00
O1563  O     0.64533   0.69647   0.76886   0.00000  Uiso   1.00
O1564  O     0.80089   0.64343   0.25183   0.00000  Uiso   1.00
O1565  O     0.69880   0.85631   0.74291   0.00000  Uiso   1.00
O1566  O     0.64338   0.69904   0.25123   0.00000  Uiso   1.00
O1567  O     0.85635   0.80128   0.74284   0.00000  Uiso   1.00
O1568  O     0.69801   0.85311   0.24264   0.00000  Uiso   1.00
Zn1569 Zn    0.70659   0.50000   0.21735   0.00000  Uiso   1.00
Zn1570 Zn    0.54340   0.75000   0.28265   0.00000  Uiso   1.00
Zn1571 Zn    0.75000   0.95660   0.71735   0.00000  Uiso   1.00
Zn1572 Zn    0.75000   0.54340   0.28265   0.00000  Uiso   1.00
Zn1573 Zn    0.54340   0.75000   0.71735   0.00000  Uiso   1.00
Zn1574 Zn    0.95659   0.75000   0.28265   0.00000  Uiso   1.00
Zn1575 Zn    0.75000   0.54340   0.71735   0.00000  Uiso   1.00
Zn1576 Zn    0.75000   0.95660   0.28265   0.00000  Uiso   1.00
Zn1577 Zn    0.79340   0.50000   0.78265   0.00000  Uiso   1.00
Zn1578 Zn    0.50000   0.70660   0.21735   0.00000  Uiso   1.00
Zn1579 Zn    0.50000   0.79341   0.78265   0.00000  Uiso   1.00
Zn1580 Zn    0.79340   0.50000   0.21735   0.00000  Uiso   1.00
Zn1581 Zn    0.70659   0.50000   0.78265   0.00000  Uiso   1.00
Zn1582 Zn    0.50000   0.79341   0.21735   0.00000  Uiso   1.00
Zn1583 Zn    0.50000   0.70660   0.78265   0.00000  Uiso   1.00
Zn1584 Zn    0.95659   0.75000   0.71735   0.00000  Uiso   1.00
loop_
_geom_bond_atom_site_label_1
_geom_bond_atom_site_label_2
_geom_bond_distance
_geom_bond_site_symmetry_2
_ccdc_geom_bond_type
C1     C4      1.419   .     A
C1     N265    1.430   .     S
C1     C458    1.400   .     S
C2     C14     1.419   .     A
C2     C68     1.400   .     A
C2     N266    1.427   .     S
C3     C131    1.419   .     A
C3     C74     1.414   .     A
C3     C38     1.425   .     S
C4     C75     1.414   .     A
C4     C430    1.425   .     S
C5     C77     1.416   .     A
C5     C65     1.419   .     A
C5     C432    1.426   1_455 S
C6     C78     1.416   .     A
C6     C76     1.419   .     A
C6     C37     1.426   .     A
C7     C79     1.414   .     A
C7     C87     1.419   .     A
C7     C830    1.425   .     A
C8     C35     1.419   .     A
C8     C80     1.414   .     A
C8     C831    1.425   .     S
C9     C46     1.419   .     A
C9     C81     1.416   .     A
C9     C40     1.426   .     S
C10    C82     1.415   .     A
C10    C57     1.419   .     A
C10    C437    1.427   1_455 S
C11    C61     1.419   .     A
C11    C42     1.425   .     A
C11    C83     1.413   .     A
C12    C84     1.414   .     A
C12    C39     1.425   .     A
C12    C142    1.419   .     A
C13    N267    1.427   .     S
C13    C15     1.420   .     A
C13    C465    1.400   .     S
C14    C85     1.416   .     A
C14    C832    1.426   .     A
C15    C41     1.427   .     A
C15    C86     1.417   .     A
C16    C88     1.414   .     A
C16    C24     1.419   .     A
C16    C438    1.426   1_455 S
C17    C104    1.456   .     S
C17    C132    1.415   .     A
C17    C134    1.406   .     A
C18    C133    1.406   .     A
C18    C130    1.406   .     A
C18    C105    1.456   .     S
C19    C129    1.405   .     A
C19    C136    1.406   .     A
C19    C97     1.454   .     S
C20    C99     1.454   .     S
C20    C128    1.406   .     A
C20    C135    1.405   .     A
C21    C138    1.406   .     A
C21    C127    1.405   .     A
C21    C100    1.456   .     S
C22    C137    1.406   .     A
C22    C101    1.456   .     S
C22    C126    1.406   .     A
C23    C140    1.416   .     A
C23    C102    1.451   .     S
C23    C125    1.416   .     A
C24    N268    1.430   .     S
C24    C466    1.400   1_455 S
C25    C139    1.416   .     A
C25    C103    1.451   .     S
C25    C124    1.416   .     A
C26    C123    1.416   .     A
C26    C143    1.416   .     A
C26    C113    1.451   .     S
C27    C141    1.416   .     A
C27    C122    1.416   .     A
C27    C114    1.451   .     S
C28    C145    1.406   .     A
C28    C106    1.456   .     S
C28    C121    1.406   .     A
C29    C119    1.406   .     A
C29    C144    1.406   .     A
C29    C107    1.456   .     S
C30    C147    1.406   .     A
C30    C118    1.405   .     A
C30    C108    1.454   .     S
C31    C110    1.454   .     S
C31    C117    1.406   .     A
C31    C146    1.405   .     A
C32    C116    1.405   .     A
C32    C111    1.456   .     S
C32    C149    1.406   .     A
C33    C115    1.406   .     A
C33    C148    1.415   .     A
C33    C112    1.456   .     S
C34    C150    1.425   .     A
C34    C400    1.425   1_455 S
C34    C432    1.420   1_455 S
C35    N269    1.430   .     S
C35    C859    1.400   .     S
C36    C151    1.426   .     A
C36    C401    1.426   .     S
C36    C430    1.420   .     S
C37    C38     1.420   .     S
C37    C944    1.426   1_545 S
C38    C799    1.425   1_545 A
C39    C800    1.425   1_545 S
C39    C40     1.420   1_556 S
C40    C806    1.426   1_545 A
C40    C39     1.420   1_554 S
C41    C406    1.427   .     S
C41    C42     1.421   1_556 S
C42    C412    1.426   .     S
C42    C41     1.421   1_554 S
C43    H211    1.110   .     S
C43    N265    1.450   .     S
C43    H213    1.109   .     S
C43    H608    1.109   .     S
C44    H216    1.111   .     S
C44    N273    1.448   .     S
C44    H217    1.109   .     S
C44    H215    1.110   .     S
C45    H222    1.109   .     S
C45    N274    1.448   .     S
C45    H219    1.110   .     S
C45    H220    1.111   .     S
C46    N270    1.427   .     S
C46    C860    1.400   1_545 S
C47    H226    1.109   .     S
C47    H224    1.110   .     S
C47    N275    1.450   .     S
C47    H1017   1.109   .     S
C48    H228    1.110   .     S
C48    N276    1.450   .     S
C48    H230    1.109   .     S
C48    H625    1.109   1_455 S
C49    N277    1.448   .     S
C49    H234    1.111   .     S
C49    H233    1.110   .     S
C49    H235    1.109   .     S
C50    H239    1.109   .     S
C50    H237    1.110   .     S
C50    N278    1.448   .     S
C50    H238    1.111   .     S
C51    H244    1.109   .     S
C51    H241    1.110   .     S
C51    N279    1.450   .     S
C51    H1034   1.109   1_545 S
C52    H248    1.109   .     S
C52    H247    1.109   .     S
C52    N280    1.450   .     S
C52    H246    1.110   .     S
C53    H251    1.111   .     S
C53    H250    1.110   .     S
C53    H252    1.109   .     S
C53    N266    1.448   .     S
C54    H256    1.111   .     S
C54    N267    1.449   .     S
C54    H257    1.109   .     S
C54    H255    1.110   .     S
C55    H260    1.109   .     S
C55    N268    1.450   .     S
C55    H259    1.110   .     S
C55    H261    1.110   .     S
C56    H263    1.110   .     S
C56    N269    1.450   .     S
C56    H264    1.109   .     S
C56    H155    1.109   .     S
C57    N271    1.428   .     S
C57    C69     1.400   .     A
C58    N270    1.448   .     S
C58    H159    1.109   .     S
C58    H157    1.110   .     S
C58    H158    1.111   .     S
C59    H162    1.110   .     S
C59    H163    1.112   .     S
C59    H161    1.109   .     S
C59    N271    1.450   .     S
C60    H167    1.109   .     S
C60    H166    1.110   .     S
C60    H168    1.109   .     S
C60    N272    1.451   .     S
C61    N272    1.431   .     S
C61    C70     1.400   .     A
C62    C91     1.456   .     S
C62    C98     1.400   .     A
C62    C397    1.400   1_455 S
C63    C109    1.400   .     A
C63    C92     1.465   .     S
C63    C461    1.400   .     S
C64    C89     1.465   .     S
C64    C76     1.400   .     A
C64    C912    1.400   1_545 S
C65    N273    1.427   .     S
C65    C459    1.400   1_455 S
C66    C90     1.456   .     S
C66    C87     1.400   .     A
C66    C923    1.400   .     S
C67    C95     1.456   .     S
C67    C142    1.400   .     A
C67    C827    1.400   1_545 S
C68    C888    1.465   .     S
C68    C838    1.400   .     S
C69    C93     1.464   .     S
C69    C409    1.400   1_455 S
C70    C420    1.400   .     S
C70    C490    1.457   .     S
C71    C150    1.414   .     A
C71    O330    1.381   .     S
C71    C77     1.407   .     A
C72    C151    1.416   .     A
C72    C75     1.407   .     A
C72    O331    1.380   .     S
C73    O332    1.380   .     S
C73    C79     1.407   .     A
C73    C152    1.416   .     A
C74    C78     1.407   .     A
C74    O333    1.381   .     S
C75    O334    1.381   .     S
C76    N274    1.427   .     S
C77    O335    1.380   .     S
C78    O336    1.380   .     S
C79    O338    1.381   .     S
C80    O339    1.381   .     S
C80    C85     1.407   1_556 S
C81    O340    1.380   .     S
C81    C84     1.407   1_554 S
C82    O341    1.380   .     S
C82    C88     1.406   1_556 S
C83    O342    1.381   .     S
C83    C86     1.407   1_554 S
C84    O343    1.381   .     S
C84    C81     1.407   1_556 S
C85    O344    1.380   .     S
C85    C80     1.407   1_554 S
C86    O345    1.380   .     S
C86    C83     1.407   1_556 S
C87    N275    1.430   .     S
C88    O346    1.381   .     S
C88    C82     1.406   1_554 S
C89    O370    1.279   .     A
C89    O1118   1.279   1_545 S
C90    O282    1.276   .     A
C90    O1129   1.276   .     S
C91    O348    1.276   .     A
C91    O680    1.276   1_455 S
C92    O359    1.278   .     A
C92    O681    1.278   .     S
C93    O286    1.278   .     A
C93    O290    1.278   .     A
C94    O287    1.276   .     A
C94    O291    1.276   .     A
C94    C466    1.457   1_455 S
C95    O288    1.276   .     S
C95    O292    1.276   .     S
C96    C860    1.465   1_545 S
C96    O289    1.278   .     S
C96    O294    1.278   .     S
C97    O323    1.280   .     A
C97    O295    1.280   .     A
C98    N276    1.430   .     S
C98    C150    1.419   .     A
C99    O324    1.280   .     A
C99    O296    1.280   .     A
C100   O321    1.281   .     A
C100   O297    1.280   .     A
C101   O298    1.281   .     A
C101   O322    1.280   .     A
C102   O299    1.280   .     A
C102   O328    1.280   .     A
C103   O300    1.280   .     A
C103   O329    1.280   .     A
C104   O301    1.279   .     A
C104   O325    1.282   .     A
C105   O327    1.280   .     A
C105   O302    1.281   .     A
C106   O303    1.280   .     A
C106   O314    1.281   .     A
C107   O305    1.281   .     A
C107   O316    1.280   .     A
C108   O306    1.280   .     A
C108   O312    1.280   .     A
C109   C151    1.419   .     A
C109   N277    1.427   .     S
C110   O307    1.280   .     A
C110   O313    1.280   .     A
C111   O319    1.281   .     A
C111   O308    1.280   .     A
C112   O309    1.282   .     A
C112   O320    1.279   .     A
C113   O317    1.280   .     A
C113   O310    1.280   .     A
C114   O318    1.280   .     A
C114   O311    1.280   .     A
C115   O347    1.386   .     S
C115   C132    1.404   .     A
C116   C130    1.409   .     A
C116   O349    1.383   .     S
C117   C129    1.408   .     A
C117   O350    1.382   .     S
C118   O351    1.383   .     S
C118   C128    1.408   .     A
C119   C127    1.409   .     A
C119   O352    1.382   .     S
C120   C152    1.419   .     A
C120   N278    1.427   .     S
C120   C856    1.400   .     S
C121   O353    1.383   .     S
C121   C126    1.409   .     A
C122   O354    1.385   .     S
C122   C125    1.392   .     A
C123   C124    1.392   .     A
C123   O355    1.385   .     S
C124   O356    1.385   .     S
C125   O357    1.385   .     S
C126   O358    1.382   .     S
C127   O360    1.383   .     S
C128   O361    1.382   .     S
C129   O362    1.383   .     S
C130   O363    1.382   .     S
C131   N279    1.430   .     S
C131   C858    1.400   1_545 S
C132   O364    1.384   .     S
C133   C149    1.409   .     A
C133   O365    1.383   .     S
C134   O366    1.386   .     S
C134   C148    1.404   .     A
C135   C147    1.408   .     A
C135   O367    1.383   .     S
C136   C146    1.408   .     A
C136   O368    1.382   .     S
C137   O369    1.383   .     S
C137   C145    1.409   .     A
C138   C144    1.409   .     A
C138   O371    1.382   .     S
C139   C143    1.392   .     A
C139   O372    1.385   .     S
C140   C141    1.392   .     A
C140   O373    1.385   .     S
C141   O374    1.385   .     S
C142   N280    1.430   .     S
C143   O375    1.385   .     S
C144   O376    1.383   .     S
C145   O377    1.382   .     S
C146   O378    1.383   .     S
C147   O379    1.382   .     S
C148   O380    1.384   .     S
C149   O283    1.382   .     S
C152   C829    1.426   .     S
H153   O330    0.991   .     S
H154   O340    0.992   .     S
H156   N270    1.030   .     S
H160   N271    1.031   .     S
H164   N272    1.031   .     S
H165   O341    0.992   .     S
H169   O342    0.991   .     S
H170   O343    0.991   .     S
H171   O344    0.992   .     S
H172   O345    0.992   .     S
H173   O346    0.991   .     S
H174   O347    0.989   .     S
H175   O349    0.990   .     S
H176   O350    0.990   .     S
H177   O331    0.992   .     S
H178   O351    0.990   .     S
H179   O352    0.990   .     S
H180   O353    0.990   .     S
H181   O354    0.988   .     S
H182   O355    0.988   .     S
H183   O356    0.988   .     S
H184   O357    0.988   .     S
H185   O358    0.990   .     S
H186   O360    0.990   .     S
H187   O361    0.990   .     S
H188   O332    0.992   .     S
H189   O362    0.990   .     S
H190   O363    0.990   .     S
H191   O364    0.989   .     S
H192   O365    0.990   .     S
H193   O366    0.989   .     S
H194   O367    0.990   .     S
H195   O368    0.990   .     S
H196   O369    0.990   .     S
H197   O371    0.990   .     S
H198   O372    0.988   .     S
H199   O333    0.991   .     S
H200   O373    0.988   .     S
H201   O374    0.988   .     S
H202   O375    0.988   .     S
H203   O376    0.990   .     S
H204   O377    0.990   .     S
H205   O378    0.990   .     S
H206   O379    0.990   .     S
H207   O380    0.989   .     S
H208   O283    0.990   .     S
H209   N265    1.031   .     S
H210   O334    0.991   .     S
H212   C439    1.109   1_455 S
H214   N273    1.030   .     S
H218   N274    1.030   .     S
H221   O335    0.992   .     S
H223   N275    1.031   .     S
H225   C839    1.109   1_545 S
H227   N276    1.031   .     S
H229   C444    1.109   .     S
H231   N277    1.030   .     S
H232   O336    0.992   .     S
H236   N278    1.030   .     S
H240   N279    1.031   .     S
H242   C843    1.109   .     S
H243   O338    0.991   .     S
H245   N280    1.031   .     S
H249   N266    1.030   .     S
H253   N267    1.030   .     S
H254   O339    0.991   .     S
H258   N268    1.031   .     S
H262   N269    1.031   .     S
O281   Zn384   1.948   .     S
O281   Zn381   1.947   .     S
O281   Zn1180  1.949   1_545 S
O281   Zn392   1.948   .     S
O282   Zn383   1.955   .     S
O284   Zn386   1.954   .     S
O284   C487    1.276   .     S
O285   Zn385   1.954   .     S
O285   C488    1.278   1_455 S
O286   Zn395   1.954   .     S
O287   Zn394   1.954   .     S
O288   Zn389   1.955   .     S
O289   Zn381   1.955   .     S
O290   Zn391   1.955   .     S
O291   Zn390   1.955   .     S
O292   Zn393   1.954   .     S
O293   Zn1175  1.948   1_545 S
O293   Zn387   1.949   .     S
O293   Zn389   1.947   .     S
O293   Zn393   1.948   .     S
O294   Zn392   1.954   .     S
O295   Zn384   1.932   .     S
O296   Zn383   1.932   .     S
O297   Zn386   1.935   .     S
O298   Zn385   1.935   .     S
O299   Zn388   1.932   .     S
O300   Zn387   1.932   .     S
O301   Zn382   1.936   .     S
O302   Zn396   1.936   .     S
O303   Zn383   1.935   .     S
O304   Zn390   1.948   .     S
O304   Zn394   1.949   .     S
O304   Zn382   1.947   .     S
O304   Zn782   1.948   1_455 S
O305   Zn384   1.935   .     S
O306   Zn396   1.933   .     S
O307   Zn382   1.933   .     S
O308   Zn387   1.934   .     S
O309   Zn388   1.934   .     S
O310   Zn385   1.933   .     S
O311   Zn386   1.933   .     S
O312   Zn787   1.932   .     S
O313   Zn390   1.932   .     S
O314   Zn1185  1.935   .     S
O315   Zn395   1.949   .     S
O315   Zn391   1.948   .     S
O315   Zn385   1.948   .     S
O315   Zn792   1.947   1_455 S
O316   Zn392   1.935   .     S
O317   Zn395   1.932   .     S
O318   Zn790   1.932   .     S
O319   Zn389   1.936   .     S
O320   Zn1173  1.936   .     S
O321   Zn786   1.935   .     S
O322   Zn391   1.935   .     S
O323   Zn381   1.933   .     S
O324   Zn1181  1.933   .     S
O325   Zn394   1.934   .     S
O326   Zn388   1.954   .     S
O326   C881    1.279   .     S
O327   Zn791   1.934   .     S
O328   Zn1184  1.933   .     S
O329   Zn393   1.933   .     S
O337   Zn387   1.954   .     S
O337   C882    1.276   1_545 S
O348   Zn382   1.955   .     S
O359   Zn396   1.955   .     S
O370   Zn384   1.955   .     S
Zn381  O1112   1.936   1_545 S
Zn383  O1085   1.948   .     S
Zn386  O700    1.948   .     S
Zn388  O1073   1.949   .     S
Zn389  O1116   1.933   1_545 S
Zn390  O717    1.935   1_455 S
Zn391  O708    1.932   1_455 S
Zn392  O1120   1.933   1_545 S
Zn393  O1106   1.935   1_545 S
Zn394  O714    1.932   1_455 S
Zn395  O723    1.934   1_455 S
Zn396  O711    1.947   .     S
C397   C400    1.419   .     A
C397   N661    1.430   .     S
C397   C62     1.400   1_655 S
C398   C410    1.419   .     A
C398   C464    1.400   .     A
C398   N662    1.427   .     S
C399   C527    1.419   .     A
C399   C470    1.414   .     A
C399   C434    1.425   .     S
C400   C471    1.414   .     A
C400   C34     1.425   1_655 S
C401   C473    1.416   .     A
C401   C461    1.419   .     A
C402   C474    1.416   .     A
C402   C472    1.419   .     A
C402   C433    1.426   .     A
C403   C475    1.414   .     A
C403   C483    1.419   .     A
C403   C1226   1.425   .     A
C404   C431    1.419   .     A
C404   C476    1.414   .     A
C404   C1227   1.425   .     S
C405   C442    1.419   .     A
C405   C477    1.416   .     A
C405   C436    1.426   .     S
C406   C478    1.415   .     A
C406   C453    1.419   .     A
C407   C457    1.419   .     A
C407   C438    1.425   .     A
C407   C479    1.413   .     A
C408   C480    1.414   .     A
C408   C435    1.425   .     A
C408   C538    1.419   .     A
C409   N663    1.427   .     S
C409   C411    1.420   .     A
C409   C69     1.400   1_655 S
C410   C481    1.416   .     A
C410   C1228   1.426   .     A
C411   C437    1.427   .     A
C411   C482    1.417   .     A
C412   C484    1.414   .     A
C412   C420    1.419   .     A
C413   C500    1.456   .     S
C413   C528    1.415   .     A
C413   C530    1.406   .     A
C414   C529    1.406   .     A
C414   C526    1.406   .     A
C414   C501    1.456   .     S
C415   C525    1.405   .     A
C415   C532    1.406   .     A
C415   C493    1.454   .     S
C416   C495    1.454   .     S
C416   C524    1.406   .     A
C416   C531    1.405   .     A
C417   C534    1.406   .     A
C417   C523    1.405   .     A
C417   C496    1.456   .     S
C418   C533    1.406   .     A
C418   C497    1.456   .     S
C418   C522    1.406   .     A
C419   C536    1.416   .     A
C419   C498    1.451   .     S
C419   C521    1.416   .     A
C420   N664    1.430   .     S
C421   C535    1.416   .     A
C421   C499    1.451   .     S
C421   C520    1.416   .     A
C422   C519    1.416   .     A
C422   C539    1.416   .     A
C422   C509    1.451   .     S
C423   C537    1.416   .     A
C423   C518    1.416   .     A
C423   C510    1.451   .     S
C424   C541    1.406   .     A
C424   C502    1.456   .     S
C424   C517    1.406   .     A
C425   C515    1.406   .     A
C425   C540    1.406   .     A
C425   C503    1.456   .     S
C426   C543    1.406   .     A
C426   C514    1.405   .     A
C426   C504    1.454   .     S
C427   C506    1.454   .     S
C427   C513    1.406   .     A
C427   C542    1.405   .     A
C428   C512    1.405   .     A
C428   C507    1.456   .     S
C428   C545    1.406   .     A
C429   C511    1.406   .     A
C429   C544    1.415   .     A
C429   C508    1.456   .     S
C430   C546    1.425   .     A
C431   N665    1.430   .     S
C431   C1255   1.400   .     S
C432   C547    1.426   .     A
C432   C5      1.426   1_655 S
C432   C34     1.420   1_655 S
C433   C434    1.420   .     S
C433   C1340   1.426   1_545 S
C434   C1195   1.425   1_545 A
C435   C1196   1.425   1_545 S
C435   C436    1.420   1_556 S
C436   C1202   1.426   1_545 A
C436   C435    1.420   1_554 S
C437   C10     1.427   1_655 S
C437   C438    1.421   1_556 S
C438   C16     1.426   1_655 S
C438   C437    1.421   1_554 S
C439   H607    1.110   .     S
C439   N661    1.450   .     S
C439   H609    1.109   .     S
C439   H212    1.109   1_655 S
C440   H612    1.111   .     S
C440   N669    1.448   .     S
C440   H613    1.109   .     S
C440   H611    1.110   .     S
C441   H618    1.109   .     S
C441   N670    1.448   .     S
C441   H615    1.110   .     S
C441   H616    1.111   .     S
C442   N666    1.427   .     S
C442   C1256   1.400   1_545 S
C443   H622    1.109   .     S
C443   H620    1.110   .     S
C443   N671    1.450   .     S
C443   H1413   1.109   .     S
C444   H624    1.110   .     S
C444   N672    1.450   .     S
C444   H626    1.109   .     S
C445   N673    1.448   .     S
C445   H630    1.111   .     S
C445   H629    1.110   .     S
C445   H631    1.109   .     S
C446   H635    1.109   .     S
C446   H633    1.110   .     S
C446   N674    1.448   .     S
C446   H634    1.111   .     S
C447   H640    1.109   .     S
C447   H637    1.110   .     S
C447   N675    1.450   .     S
C447   H1430   1.109   1_545 S
C448   H644    1.109   .     S
C448   H643    1.109   .     S
C448   N676    1.450   .     S
C448   H642    1.110   .     S
C449   H647    1.111   .     S
C449   H646    1.110   .     S
C449   H648    1.109   .     S
C449   N662    1.448   .     S
C450   H652    1.111   .     S
C450   N663    1.449   .     S
C450   H653    1.109   .     S
C450   H651    1.110   .     S
C451   H656    1.109   .     S
C451   N664    1.450   .     S
C451   H655    1.110   .     S
C451   H657    1.110   .     S
C452   H659    1.110   .     S
C452   N665    1.450   .     S
C452   H660    1.109   .     S
C452   H551    1.109   .     S
C453   N667    1.428   .     S
C453   C465    1.400   .     A
C454   N666    1.448   .     S
C454   H555    1.109   .     S
C454   H553    1.110   .     S
C454   H554    1.111   .     S
C455   H558    1.110   .     S
C455   H559    1.112   .     S
C455   H557    1.109   .     S
C455   N667    1.450   .     S
C456   H563    1.109   .     S
C456   H562    1.110   .     S
C456   H564    1.109   .     S
C456   N668    1.451   .     S
C457   N668    1.431   .     S
C457   C466    1.400   .     A
C458   C487    1.456   .     S
C458   C494    1.400   .     A
C459   C505    1.400   .     A
C459   C488    1.465   .     S
C459   C65     1.400   1_655 S
C460   C485    1.465   .     S
C460   C472    1.400   .     A
C460   C1308   1.400   1_545 S
C461   N669    1.427   .     S
C462   C486    1.456   .     S
C462   C483    1.400   .     A
C462   C1319   1.400   .     S
C463   C491    1.456   .     S
C463   C538    1.400   .     A
C463   C1223   1.400   1_545 S
C464   C1284   1.465   .     S
C464   C1234   1.400   .     S
C465   C489    1.464   .     S
C466   C24     1.400   1_655 S
C466   C94     1.457   1_655 S
C467   C546    1.414   .     A
C467   O726    1.381   .     S
C467   C473    1.407   .     A
C468   C547    1.416   .     A
C468   C471    1.407   .     A
C468   O727    1.380   .     S
C469   O728    1.380   .     S
C469   C475    1.407   .     A
C469   C548    1.416   .     A
C470   C474    1.407   .     A
C470   O729    1.381   .     S
C471   O730    1.381   .     S
C472   N670    1.427   .     S
C473   O731    1.380   .     S
C474   O732    1.380   .     S
C475   O734    1.381   .     S
C476   O735    1.381   .     S
C476   C481    1.407   1_556 S
C477   O736    1.380   .     S
C477   C480    1.407   1_554 S
C478   O737    1.380   .     S
C478   C484    1.406   1_556 S
C479   O738    1.381   .     S
C479   C482    1.407   1_554 S
C480   O739    1.381   .     S
C480   C477    1.407   1_556 S
C481   O740    1.380   .     S
C481   C476    1.407   1_554 S
C482   O741    1.380   .     S
C482   C479    1.407   1_556 S
C483   N671    1.430   .     S
C484   O742    1.381   .     S
C484   C478    1.406   1_554 S
C485   O766    1.279   .     A
C485   O1514   1.279   1_545 S
C486   O678    1.276   .     A
C486   O1525   1.276   .     S
C487   O744    1.276   .     A
C488   O755    1.278   .     A
C488   O285    1.278   1_655 S
C489   O682    1.278   .     A
C489   O686    1.278   .     A
C490   O683    1.276   .     A
C490   O687    1.276   .     A
C491   O684    1.276   .     S
C491   O688    1.276   .     S
C492   C1256   1.465   1_545 S
C492   O685    1.278   .     S
C492   O690    1.278   .     S
C493   O719    1.280   .     A
C493   O691    1.280   .     A
C494   N672    1.430   .     S
C494   C546    1.419   .     A
C495   O720    1.280   .     A
C495   O692    1.280   .     A
C496   O717    1.281   .     A
C496   O693    1.280   .     A
C497   O694    1.281   .     A
C497   O718    1.280   .     A
C498   O695    1.280   .     A
C498   O724    1.280   .     A
C499   O696    1.280   .     A
C499   O725    1.280   .     A
C500   O697    1.279   .     A
C500   O721    1.282   .     A
C501   O723    1.280   .     A
C501   O698    1.281   .     A
C502   O699    1.280   .     A
C502   O710    1.281   .     A
C503   O701    1.281   .     A
C503   O712    1.280   .     A
C504   O702    1.280   .     A
C504   O708    1.280   .     A
C505   C547    1.419   .     A
C505   N673    1.427   .     S
C506   O703    1.280   .     A
C506   O709    1.280   .     A
C507   O715    1.281   .     A
C507   O704    1.280   .     A
C508   O705    1.282   .     A
C508   O716    1.279   .     A
C509   O713    1.280   .     A
C509   O706    1.280   .     A
C510   O714    1.280   .     A
C510   O707    1.280   .     A
C511   O743    1.386   .     S
C511   C528    1.404   .     A
C512   C526    1.409   .     A
C512   O745    1.383   .     S
C513   C525    1.408   .     A
C513   O746    1.382   .     S
C514   O747    1.383   .     S
C514   C524    1.408   .     A
C515   C523    1.409   .     A
C515   O748    1.382   .     S
C516   C548    1.419   .     A
C516   N674    1.427   .     S
C516   C1252   1.400   .     S
C517   O749    1.383   .     S
C517   C522    1.409   .     A
C518   O750    1.385   .     S
C518   C521    1.392   .     A
C519   C520    1.392   .     A
C519   O751    1.385   .     S
C520   O752    1.385   .     S
C521   O753    1.385   .     S
C522   O754    1.382   .     S
C523   O756    1.383   .     S
C524   O757    1.382   .     S
C525   O758    1.383   .     S
C526   O759    1.382   .     S
C527   N675    1.430   .     S
C527   C1254   1.400   1_545 S
C528   O760    1.384   .     S
C529   C545    1.409   .     A
C529   O761    1.383   .     S
C530   O762    1.386   .     S
C530   C544    1.404   .     A
C531   C543    1.408   .     A
C531   O763    1.383   .     S
C532   C542    1.408   .     A
C532   O764    1.382   .     S
C533   O765    1.383   .     S
C533   C541    1.409   .     A
C534   C540    1.409   .     A
C534   O767    1.382   .     S
C535   C539    1.392   .     A
C535   O768    1.385   .     S
C536   C537    1.392   .     A
C536   O769    1.385   .     S
C537   O770    1.385   .     S
C538   N676    1.430   .     S
C539   O771    1.385   .     S
C540   O772    1.383   .     S
C541   O773    1.382   .     S
C542   O774    1.383   .     S
C543   O775    1.382   .     S
C544   O776    1.384   .     S
C545   O679    1.382   .     S
C548   C1225   1.426   .     S
H549   O726    0.991   .     S
H550   O736    0.992   .     S
H552   N666    1.030   .     S
H556   N667    1.031   .     S
H560   N668    1.031   .     S
H561   O737    0.992   .     S
H565   O738    0.991   .     S
H566   O739    0.991   .     S
H567   O740    0.992   .     S
H568   O741    0.992   .     S
H569   O742    0.991   .     S
H570   O743    0.989   .     S
H571   O745    0.990   .     S
H572   O746    0.990   .     S
H573   O727    0.992   .     S
H574   O747    0.990   .     S
H575   O748    0.990   .     S
H576   O749    0.990   .     S
H577   O750    0.988   .     S
H578   O751    0.988   .     S
H579   O752    0.988   .     S
H580   O753    0.988   .     S
H581   O754    0.990   .     S
H582   O756    0.990   .     S
H583   O757    0.990   .     S
H584   O728    0.992   .     S
H585   O758    0.990   .     S
H586   O759    0.990   .     S
H587   O760    0.989   .     S
H588   O761    0.990   .     S
H589   O762    0.989   .     S
H590   O763    0.990   .     S
H591   O764    0.990   .     S
H592   O765    0.990   .     S
H593   O767    0.990   .     S
H594   O768    0.988   .     S
H595   O729    0.991   .     S
H596   O769    0.988   .     S
H597   O770    0.988   .     S
H598   O771    0.988   .     S
H599   O772    0.990   .     S
H600   O773    0.990   .     S
H601   O774    0.990   .     S
H602   O775    0.990   .     S
H603   O776    0.989   .     S
H604   O679    0.990   .     S
H605   N661    1.031   .     S
H606   O730    0.991   .     S
H610   N669    1.030   .     S
H614   N670    1.030   .     S
H617   O731    0.992   .     S
H619   N671    1.031   .     S
H621   C1235   1.109   1_545 S
H623   N672    1.031   .     S
H625   C48     1.109   1_655 S
H627   N673    1.030   .     S
H628   O732    0.992   .     S
H632   N674    1.030   .     S
H636   N675    1.031   .     S
H638   C1239   1.109   .     S
H639   O734    0.991   .     S
H641   N676    1.031   .     S
H645   N662    1.030   .     S
H649   N663    1.030   .     S
H650   O735    0.991   .     S
H654   N664    1.031   .     S
H658   N665    1.031   .     S
O677   Zn780   1.948   .     S
O677   Zn777   1.947   .     S
O677   Zn1576  1.949   1_545 S
O677   Zn788   1.948   .     S
O678   Zn779   1.955   .     S
O680   Zn782   1.954   .     S
O680   C91     1.276   1_655 S
O681   Zn781   1.954   .     S
O682   Zn791   1.954   .     S
O683   Zn790   1.954   .     S
O684   Zn785   1.955   .     S
O685   Zn777   1.955   .     S
O686   Zn787   1.955   .     S
O687   Zn786   1.955   .     S
O688   Zn789   1.954   .     S
O689   Zn1571  1.948   1_545 S
O689   Zn783   1.949   .     S
O689   Zn785   1.947   .     S
O689   Zn789   1.948   .     S
O690   Zn788   1.954   .     S
O691   Zn780   1.932   .     S
O692   Zn779   1.932   .     S
O693   Zn782   1.935   .     S
O694   Zn781   1.935   .     S
O695   Zn784   1.932   .     S
O696   Zn783   1.932   .     S
O697   Zn778   1.936   .     S
O698   Zn792   1.936   .     S
O699   Zn779   1.935   .     S
O700   Zn786   1.948   .     S
O700   Zn790   1.949   .     S
O700   Zn778   1.947   .     S
O701   Zn780   1.935   .     S
O702   Zn792   1.933   .     S
O703   Zn778   1.933   .     S
O704   Zn783   1.934   .     S
O705   Zn784   1.934   .     S
O706   Zn781   1.933   .     S
O707   Zn782   1.933   .     S
O708   Zn391   1.932   1_655 S
O709   Zn786   1.932   .     S
O710   Zn1581  1.935   .     S
O711   Zn791   1.949   .     S
O711   Zn787   1.948   .     S
O711   Zn781   1.948   .     S
O712   Zn788   1.935   .     S
O713   Zn791   1.932   .     S
O714   Zn394   1.932   1_655 S
O715   Zn785   1.936   .     S
O716   Zn1569  1.936   .     S
O717   Zn390   1.935   1_655 S
O718   Zn787   1.935   .     S
O719   Zn777   1.933   .     S
O720   Zn1577  1.933   .     S
O721   Zn790   1.934   .     S
O722   Zn784   1.954   .     S
O722   C1277   1.279   .     S
O723   Zn395   1.934   1_655 S
O724   Zn1580  1.933   .     S
O725   Zn789   1.933   .     S
O733   Zn783   1.954   .     S
O733   C1278   1.276   1_545 S
O744   Zn778   1.955   .     S
O755   Zn792   1.955   .     S
O766   Zn780   1.955   .     S
Zn777  O1508   1.936   1_545 S
Zn779  O1481   1.948   .     S
Zn782  O304    1.948   1_655 S
Zn784  O1469   1.949   .     S
Zn785  O1512   1.933   1_545 S
Zn788  O1516   1.933   1_545 S
Zn789  O1502   1.935   1_545 S
Zn792  O315    1.947   1_655 S
C793   C796    1.419   .     A
C793   N1057   1.430   .     S
C793   C1250   1.400   .     S
C794   C806    1.419   .     A
C794   C860    1.400   .     A
C794   N1058   1.427   .     S
C795   C923    1.419   .     A
C795   C866    1.414   .     A
C795   C830    1.425   .     S
C796   C867    1.414   .     A
C796   C1222   1.425   .     S
C797   C869    1.416   .     A
C797   C857    1.419   .     A
C797   C1224   1.426   1_455 S
C798   C870    1.416   .     A
C798   C868    1.419   .     A
C798   C829    1.426   .     A
C799   C871    1.414   .     A
C799   C879    1.419   .     A
C799   C38     1.425   1_565 A
C800   C827    1.419   .     A
C800   C872    1.414   .     A
C800   C39     1.425   1_565 S
C801   C838    1.419   .     A
C801   C873    1.416   .     A
C801   C832    1.426   .     S
C802   C874    1.415   .     A
C802   C849    1.419   .     A
C802   C1229   1.427   1_455 S
C803   C853    1.419   .     A
C803   C834    1.425   .     A
C803   C875    1.413   .     A
C804   C876    1.414   .     A
C804   C831    1.425   .     A
C804   C934    1.419   .     A
C805   N1059   1.427   .     S
C805   C807    1.420   .     A
C805   C1257   1.400   .     S
C806   C877    1.416   .     A
C806   C40     1.426   1_565 A
C807   C833    1.427   .     A
C807   C878    1.417   .     A
C808   C880    1.414   .     A
C808   C816    1.419   .     A
C808   C1230   1.426   1_455 S
C809   C896    1.456   .     S
C809   C924    1.415   .     A
C809   C926    1.406   .     A
C810   C925    1.406   .     A
C810   C922    1.406   .     A
C810   C897    1.456   .     S
C811   C921    1.405   .     A
C811   C928    1.406   .     A
C811   C889    1.454   .     S
C812   C891    1.454   .     S
C812   C920    1.406   .     A
C812   C927    1.405   .     A
C813   C930    1.406   .     A
C813   C919    1.405   .     A
C813   C892    1.456   .     S
C814   C929    1.406   .     A
C814   C893    1.456   .     S
C814   C918    1.406   .     A
C815   C932    1.416   .     A
C815   C894    1.451   .     S
C815   C917    1.416   .     A
C816   N1060   1.430   .     S
C816   C1258   1.400   1_455 S
C817   C931    1.416   .     A
C817   C895    1.451   .     S
C817   C916    1.416   .     A
C818   C915    1.416   .     A
C818   C935    1.416   .     A
C818   C905    1.451   .     S
C819   C933    1.416   .     A
C819   C914    1.416   .     A
C819   C906    1.451   .     S
C820   C937    1.406   .     A
C820   C898    1.456   .     S
C820   C913    1.406   .     A
C821   C911    1.406   .     A
C821   C936    1.406   .     A
C821   C899    1.456   .     S
C822   C939    1.406   .     A
C822   C910    1.405   .     A
C822   C900    1.454   .     S
C823   C902    1.454   .     S
C823   C909    1.406   .     A
C823   C938    1.405   .     A
C824   C908    1.405   .     A
C824   C903    1.456   .     S
C824   C941    1.406   .     A
C825   C907    1.406   .     A
C825   C940    1.415   .     A
C825   C904    1.456   .     S
C826   C942    1.425   .     A
C826   C1192   1.425   1_455 S
C826   C1224   1.420   1_455 S
C827   N1061   1.430   .     S
C827   C67     1.400   1_565 S
C828   C943    1.426   .     A
C828   C1193   1.426   .     S
C828   C1222   1.420   .     S
C829   C830    1.420   .     S
C831   C832    1.420   1_556 S
C832   C831    1.420   1_554 S
C833   C1198   1.427   .     S
C833   C834    1.421   1_556 S
C834   C1204   1.426   .     S
C834   C833    1.421   1_554 S
C835   H1003   1.110   .     S
C835   N1057   1.450   .     S
C835   H1005   1.109   .     S
C835   H1400   1.109   .     S
C836   H1008   1.111   .     S
C836   N1065   1.448   .     S
C836   H1009   1.109   .     S
C836   H1007   1.110   .     S
C837   H1014   1.109   .     S
C837   N1066   1.448   .     S
C837   H1011   1.110   .     S
C837   H1012   1.111   .     S
C838   N1062   1.427   .     S
C839   H1018   1.109   .     S
C839   H1016   1.110   .     S
C839   N1067   1.450   .     S
C839   H225    1.109   1_565 S
C840   H1020   1.110   .     S
C840   N1068   1.450   .     S
C840   H1022   1.109   .     S
C840   H1417   1.109   1_455 S
C841   N1069   1.448   .     S
C841   H1026   1.111   .     S
C841   H1025   1.110   .     S
C841   H1027   1.109   .     S
C842   H1031   1.109   .     S
C842   H1029   1.110   .     S
C842   N1070   1.448   .     S
C842   H1030   1.111   .     S
C843   H1036   1.109   .     S
C843   H1033   1.110   .     S
C843   N1071   1.450   .     S
C844   H1040   1.109   .     S
C844   H1039   1.109   .     S
C844   N1072   1.450   .     S
C844   H1038   1.110   .     S
C845   H1043   1.111   .     S
C845   H1042   1.110   .     S
C845   H1044   1.109   .     S
C845   N1058   1.448   .     S
C846   H1048   1.111   .     S
C846   N1059   1.449   .     S
C846   H1049   1.109   .     S
C846   H1047   1.110   .     S
C847   H1052   1.109   .     S
C847   N1060   1.450   .     S
C847   H1051   1.110   .     S
C847   H1053   1.110   .     S
C848   H1055   1.110   .     S
C848   N1061   1.450   .     S
C848   H1056   1.109   .     S
C848   H947    1.109   .     S
C849   N1063   1.428   .     S
C849   C861    1.400   .     A
C850   N1062   1.448   .     S
C850   H951    1.109   .     S
C850   H949    1.110   .     S
C850   H950    1.111   .     S
C851   H954    1.110   .     S
C851   H955    1.112   .     S
C851   H953    1.109   .     S
C851   N1063   1.450   .     S
C852   H959    1.109   .     S
C852   H958    1.110   .     S
C852   H960    1.109   .     S
C852   N1064   1.451   .     S
C853   N1064   1.431   .     S
C853   C862    1.400   .     A
C854   C883    1.456   .     S
C854   C890    1.400   .     A
C854   C1189   1.400   1_455 S
C855   C901    1.400   .     A
C855   C884    1.465   .     S
C855   C1253   1.400   .     S
C856   C881    1.465   .     S
C856   C868    1.400   .     A
C857   N1065   1.427   .     S
C857   C1251   1.400   1_455 S
C858   C882    1.456   .     S
C858   C879    1.400   .     A
C858   C131    1.400   1_565 S
C859   C887    1.456   .     S
C859   C934    1.400   .     A
C860   C96     1.465   1_565 S
C860   C46     1.400   1_565 S
C861   C885    1.464   .     S
C861   C1201   1.400   1_455 S
C862   C1212   1.400   .     S
C862   C1282   1.457   .     S
C863   C942    1.414   .     A
C863   O1122   1.381   .     S
C863   C869    1.407   .     A
C864   C943    1.416   .     A
C864   C867    1.407   .     A
C864   O1123   1.380   .     S
C865   O1124   1.380   .     S
C865   C871    1.407   .     A
C865   C944    1.416   .     A
C866   C870    1.407   .     A
C866   O1125   1.381   .     S
C867   O1126   1.381   .     S
C868   N1066   1.427   .     S
C869   O1127   1.380   .     S
C870   O1128   1.380   .     S
C871   O1130   1.381   .     S
C872   O1131   1.381   .     S
C872   C877    1.407   1_556 S
C873   O1132   1.380   .     S
C873   C876    1.407   1_554 S
C874   O1133   1.380   .     S
C874   C880    1.406   1_556 S
C875   O1134   1.381   .     S
C875   C878    1.407   1_554 S
C876   O1135   1.381   .     S
C876   C873    1.407   1_556 S
C877   O1136   1.380   .     S
C877   C872    1.407   1_554 S
C878   O1137   1.380   .     S
C878   C875    1.407   1_556 S
C879   N1067   1.430   .     S
C880   O1138   1.381   .     S
C880   C874    1.406   1_554 S
C881   O1162   1.279   .     A
C882   O1074   1.276   .     A
C882   O337    1.276   1_565 S
C883   O1140   1.276   .     A
C883   O1472   1.276   1_455 S
C884   O1151   1.278   .     A
C884   O1473   1.278   .     S
C885   O1078   1.278   .     A
C885   O1082   1.278   .     A
C886   O1079   1.276   .     A
C886   O1083   1.276   .     A
C886   C1258   1.457   1_455 S
C887   O1080   1.276   .     S
C887   O1084   1.276   .     S
C888   O1081   1.278   .     S
C888   O1086   1.278   .     S
C889   O1115   1.280   .     A
C889   O1087   1.280   .     A
C890   N1068   1.430   .     S
C890   C942    1.419   .     A
C891   O1116   1.280   .     A
C891   O1088   1.280   .     A
C892   O1113   1.281   .     A
C892   O1089   1.280   .     A
C893   O1090   1.281   .     A
C893   O1114   1.280   .     A
C894   O1091   1.280   .     A
C894   O1120   1.280   .     A
C895   O1092   1.280   .     A
C895   O1121   1.280   .     A
C896   O1093   1.279   .     A
C896   O1117   1.282   .     A
C897   O1119   1.280   .     A
C897   O1094   1.281   .     A
C898   O1095   1.280   .     A
C898   O1106   1.281   .     A
C899   O1097   1.281   .     A
C899   O1108   1.280   .     A
C900   O1098   1.280   .     A
C900   O1104   1.280   .     A
C901   C943    1.419   .     A
C901   N1069   1.427   .     S
C902   O1099   1.280   .     A
C902   O1105   1.280   .     A
C903   O1111   1.281   .     A
C903   O1100   1.280   .     A
C904   O1101   1.282   .     A
C904   O1112   1.279   .     A
C905   O1109   1.280   .     A
C905   O1102   1.280   .     A
C906   O1110   1.280   .     A
C906   O1103   1.280   .     A
C907   O1139   1.386   .     S
C907   C924    1.404   .     A
C908   C922    1.409   .     A
C908   O1141   1.383   .     S
C909   C921    1.408   .     A
C909   O1142   1.382   .     S
C910   O1143   1.383   .     S
C910   C920    1.408   .     A
C911   C919    1.409   .     A
C911   O1144   1.382   .     S
C912   C944    1.419   .     A
C912   N1070   1.427   .     S
C912   C64     1.400   1_565 S
C913   O1145   1.383   .     S
C913   C918    1.409   .     A
C914   O1146   1.385   .     S
C914   C917    1.392   .     A
C915   C916    1.392   .     A
C915   O1147   1.385   .     S
C916   O1148   1.385   .     S
C917   O1149   1.385   .     S
C918   O1150   1.382   .     S
C919   O1152   1.383   .     S
C920   O1153   1.382   .     S
C921   O1154   1.383   .     S
C922   O1155   1.382   .     S
C923   N1071   1.430   .     S
C924   O1156   1.384   .     S
C925   C941    1.409   .     A
C925   O1157   1.383   .     S
C926   O1158   1.386   .     S
C926   C940    1.404   .     A
C927   C939    1.408   .     A
C927   O1159   1.383   .     S
C928   C938    1.408   .     A
C928   O1160   1.382   .     S
C929   O1161   1.383   .     S
C929   C937    1.409   .     A
C930   C936    1.409   .     A
C930   O1163   1.382   .     S
C931   C935    1.392   .     A
C931   O1164   1.385   .     S
C932   C933    1.392   .     A
C932   O1165   1.385   .     S
C933   O1166   1.385   .     S
C934   N1072   1.430   .     S
C935   O1167   1.385   .     S
C936   O1168   1.383   .     S
C937   O1169   1.382   .     S
C938   O1170   1.383   .     S
C939   O1171   1.382   .     S
C940   O1172   1.384   .     S
C941   O1075   1.382   .     S
C944   C37     1.426   1_565 S
H945   O1122   0.991   .     S
H946   O1132   0.992   .     S
H948   N1062   1.030   .     S
H952   N1063   1.031   .     S
H956   N1064   1.031   .     S
H957   O1133   0.992   .     S
H961   O1134   0.991   .     S
H962   O1135   0.991   .     S
H963   O1136   0.992   .     S
H964   O1137   0.992   .     S
H965   O1138   0.991   .     S
H966   O1139   0.989   .     S
H967   O1141   0.990   .     S
H968   O1142   0.990   .     S
H969   O1123   0.992   .     S
H970   O1143   0.990   .     S
H971   O1144   0.990   .     S
H972   O1145   0.990   .     S
H973   O1146   0.988   .     S
H974   O1147   0.988   .     S
H975   O1148   0.988   .     S
H976   O1149   0.988   .     S
H977   O1150   0.990   .     S
H978   O1152   0.990   .     S
H979   O1153   0.990   .     S
H980   O1124   0.992   .     S
H981   O1154   0.990   .     S
H982   O1155   0.990   .     S
H983   O1156   0.989   .     S
H984   O1157   0.990   .     S
H985   O1158   0.989   .     S
H986   O1159   0.990   .     S
H987   O1160   0.990   .     S
H988   O1161   0.990   .     S
H989   O1163   0.990   .     S
H990   O1164   0.988   .     S
H991   O1125   0.991   .     S
H992   O1165   0.988   .     S
H993   O1166   0.988   .     S
H994   O1167   0.988   .     S
H995   O1168   0.990   .     S
H996   O1169   0.990   .     S
H997   O1170   0.990   .     S
H998   O1171   0.990   .     S
H999   O1172   0.989   .     S
H1000  O1075   0.990   .     S
H1001  N1057   1.031   .     S
H1002  O1126   0.991   .     S
H1004  C1231   1.109   1_455 S
H1006  N1065   1.030   .     S
H1010  N1066   1.030   .     S
H1013  O1127   0.992   .     S
H1015  N1067   1.031   .     S
H1019  N1068   1.031   .     S
H1021  C1236   1.109   .     S
H1023  N1069   1.030   .     S
H1024  O1128   0.992   .     S
H1028  N1070   1.030   .     S
H1032  N1071   1.031   .     S
H1034  C51     1.109   1_565 S
H1035  O1130   0.991   .     S
H1037  N1072   1.031   .     S
H1041  N1058   1.030   .     S
H1045  N1059   1.030   .     S
H1046  O1131   0.991   .     S
H1050  N1060   1.031   .     S
H1054  N1061   1.031   .     S
O1073  Zn1176  1.948   .     S
O1073  Zn1173  1.947   .     S
O1073  Zn1184  1.948   .     S
O1074  Zn1175  1.955   .     S
O1076  Zn1178  1.954   .     S
O1076  C1279   1.276   .     S
O1077  Zn1177  1.954   .     S
O1077  C1280   1.278   1_455 S
O1078  Zn1187  1.954   .     S
O1079  Zn1186  1.954   .     S
O1080  Zn1181  1.955   .     S
O1081  Zn1173  1.955   .     S
O1082  Zn1183  1.955   .     S
O1083  Zn1182  1.955   .     S
O1084  Zn1185  1.954   .     S
O1085  Zn1179  1.949   .     S
O1085  Zn1181  1.947   .     S
O1085  Zn1185  1.948   .     S
O1086  Zn1184  1.954   .     S
O1087  Zn1176  1.932   .     S
O1088  Zn1175  1.932   .     S
O1089  Zn1178  1.935   .     S
O1090  Zn1177  1.935   .     S
O1091  Zn1180  1.932   .     S
O1092  Zn1179  1.932   .     S
O1093  Zn1174  1.936   .     S
O1094  Zn1188  1.936   .     S
O1095  Zn1175  1.935   .     S
O1096  Zn1182  1.948   .     S
O1096  Zn1186  1.949   .     S
O1096  Zn1174  1.947   .     S
O1096  Zn1574  1.948   1_455 S
O1097  Zn1176  1.935   .     S
O1098  Zn1188  1.933   .     S
O1099  Zn1174  1.933   .     S
O1100  Zn1179  1.934   .     S
O1101  Zn1180  1.934   .     S
O1102  Zn1177  1.933   .     S
O1103  Zn1178  1.933   .     S
O1104  Zn1579  1.932   .     S
O1105  Zn1182  1.932   .     S
O1106  Zn393   1.935   1_565 S
O1107  Zn1187  1.949   .     S
O1107  Zn1183  1.948   .     S
O1107  Zn1177  1.948   .     S
O1107  Zn1584  1.947   1_455 S
O1108  Zn1184  1.935   .     S
O1109  Zn1187  1.932   .     S
O1110  Zn1582  1.932   .     S
O1111  Zn1181  1.936   .     S
O1112  Zn381   1.936   1_565 S
O1113  Zn1578  1.935   .     S
O1114  Zn1183  1.935   .     S
O1115  Zn1173  1.933   .     S
O1116  Zn389   1.933   1_565 S
O1117  Zn1186  1.934   .     S
O1118  Zn1180  1.954   .     S
O1118  C89     1.279   1_565 S
O1119  Zn1583  1.934   .     S
O1120  Zn392   1.933   1_565 S
O1121  Zn1185  1.933   .     S
O1129  Zn1179  1.954   .     S
O1140  Zn1174  1.955   .     S
O1151  Zn1188  1.955   .     S
O1162  Zn1176  1.955   .     S
Zn1175 O293    1.948   1_565 S
Zn1178 O1492   1.948   .     S
Zn1180 O281    1.949   1_565 S
Zn1182 O1509   1.935   1_455 S
Zn1183 O1500   1.932   1_455 S
Zn1186 O1506   1.932   1_455 S
Zn1187 O1515   1.934   1_455 S
Zn1188 O1503   1.947   .     S
C1189  C1192   1.419   .     A
C1189  N1453   1.430   .     S
C1189  C854    1.400   1_655 S
C1190  C1202   1.419   .     A
C1190  C1256   1.400   .     A
C1190  N1454   1.427   .     S
C1191  C1319   1.419   .     A
C1191  C1262   1.414   .     A
C1191  C1226   1.425   .     S
C1192  C1263   1.414   .     A
C1192  C826    1.425   1_655 S
C1193  C1265   1.416   .     A
C1193  C1253   1.419   .     A
C1194  C1266   1.416   .     A
C1194  C1264   1.419   .     A
C1194  C1225   1.426   .     A
C1195  C1267   1.414   .     A
C1195  C1275   1.419   .     A
C1195  C434    1.425   1_565 A
C1196  C1223   1.419   .     A
C1196  C1268   1.414   .     A
C1196  C435    1.425   1_565 S
C1197  C1234   1.419   .     A
C1197  C1269   1.416   .     A
C1197  C1228   1.426   .     S
C1198  C1270   1.415   .     A
C1198  C1245   1.419   .     A
C1199  C1249   1.419   .     A
C1199  C1230   1.425   .     A
C1199  C1271   1.413   .     A
C1200  C1272   1.414   .     A
C1200  C1227   1.425   .     A
C1200  C1330   1.419   .     A
C1201  N1455   1.427   .     S
C1201  C1203   1.420   .     A
C1201  C861    1.400   1_655 S
C1202  C1273   1.416   .     A
C1202  C436    1.426   1_565 A
C1203  C1229   1.427   .     A
C1203  C1274   1.417   .     A
C1204  C1276   1.414   .     A
C1204  C1212   1.419   .     A
C1205  C1292   1.456   .     S
C1205  C1320   1.415   .     A
C1205  C1322   1.406   .     A
C1206  C1321   1.406   .     A
C1206  C1318   1.406   .     A
C1206  C1293   1.456   .     S
C1207  C1317   1.405   .     A
C1207  C1324   1.406   .     A
C1207  C1285   1.454   .     S
C1208  C1287   1.454   .     S
C1208  C1316   1.406   .     A
C1208  C1323   1.405   .     A
C1209  C1326   1.406   .     A
C1209  C1315   1.405   .     A
C1209  C1288   1.456   .     S
C1210  C1325   1.406   .     A
C1210  C1289   1.456   .     S
C1210  C1314   1.406   .     A
C1211  C1328   1.416   .     A
C1211  C1290   1.451   .     S
C1211  C1313   1.416   .     A
C1212  N1456   1.430   .     S
C1213  C1327   1.416   .     A
C1213  C1291   1.451   .     S
C1213  C1312   1.416   .     A
C1214  C1311   1.416   .     A
C1214  C1331   1.416   .     A
C1214  C1301   1.451   .     S
C1215  C1329   1.416   .     A
C1215  C1310   1.416   .     A
C1215  C1302   1.451   .     S
C1216  C1333   1.406   .     A
C1216  C1294   1.456   .     S
C1216  C1309   1.406   .     A
C1217  C1307   1.406   .     A
C1217  C1332   1.406   .     A
C1217  C1295   1.456   .     S
C1218  C1335   1.406   .     A
C1218  C1306   1.405   .     A
C1218  C1296   1.454   .     S
C1219  C1298   1.454   .     S
C1219  C1305   1.406   .     A
C1219  C1334   1.405   .     A
C1220  C1304   1.405   .     A
C1220  C1299   1.456   .     S
C1220  C1337   1.406   .     A
C1221  C1303   1.406   .     A
C1221  C1336   1.415   .     A
C1221  C1300   1.456   .     S
C1222  C1338   1.425   .     A
C1223  N1457   1.430   .     S
C1223  C463    1.400   1_565 S
C1224  C1339   1.426   .     A
C1224  C797    1.426   1_655 S
C1224  C826    1.420   1_655 S
C1225  C1226   1.420   .     S
C1227  C1228   1.420   1_556 S
C1228  C1227   1.420   1_554 S
C1229  C802    1.427   1_655 S
C1229  C1230   1.421   1_556 S
C1230  C808    1.426   1_655 S
C1230  C1229   1.421   1_554 S
C1231  H1399   1.110   .     S
C1231  N1453   1.450   .     S
C1231  H1401   1.109   .     S
C1231  H1004   1.109   1_655 S
C1232  H1404   1.111   .     S
C1232  N1461   1.448   .     S
C1232  H1405   1.109   .     S
C1232  H1403   1.110   .     S
C1233  H1410   1.109   .     S
C1233  N1462   1.448   .     S
C1233  H1407   1.110   .     S
C1233  H1408   1.111   .     S
C1234  N1458   1.427   .     S
C1235  H1414   1.109   .     S
C1235  H1412   1.110   .     S
C1235  N1463   1.450   .     S
C1235  H621    1.109   1_565 S
C1236  H1416   1.110   .     S
C1236  N1464   1.450   .     S
C1236  H1418   1.109   .     S
C1237  N1465   1.448   .     S
C1237  H1422   1.111   .     S
C1237  H1421   1.110   .     S
C1237  H1423   1.109   .     S
C1238  H1427   1.109   .     S
C1238  H1425   1.110   .     S
C1238  N1466   1.448   .     S
C1238  H1426   1.111   .     S
C1239  H1432   1.109   .     S
C1239  H1429   1.110   .     S
C1239  N1467   1.450   .     S
C1240  H1436   1.109   .     S
C1240  H1435   1.109   .     S
C1240  N1468   1.450   .     S
C1240  H1434   1.110   .     S
C1241  H1439   1.111   .     S
C1241  H1438   1.110   .     S
C1241  H1440   1.109   .     S
C1241  N1454   1.448   .     S
C1242  H1444   1.111   .     S
C1242  N1455   1.449   .     S
C1242  H1445   1.109   .     S
C1242  H1443   1.110   .     S
C1243  H1448   1.109   .     S
C1243  N1456   1.450   .     S
C1243  H1447   1.110   .     S
C1243  H1449   1.110   .     S
C1244  H1451   1.110   .     S
C1244  N1457   1.450   .     S
C1244  H1452   1.109   .     S
C1244  H1343   1.109   .     S
C1245  N1459   1.428   .     S
C1245  C1257   1.400   .     A
C1246  N1458   1.448   .     S
C1246  H1347   1.109   .     S
C1246  H1345   1.110   .     S
C1246  H1346   1.111   .     S
C1247  H1350   1.110   .     S
C1247  H1351   1.112   .     S
C1247  H1349   1.109   .     S
C1247  N1459   1.450   .     S
C1248  H1355   1.109   .     S
C1248  H1354   1.110   .     S
C1248  H1356   1.109   .     S
C1248  N1460   1.451   .     S
C1249  N1460   1.431   .     S
C1249  C1258   1.400   .     A
C1250  C1279   1.456   .     S
C1250  C1286   1.400   .     A
C1251  C1297   1.400   .     A
C1251  C1280   1.465   .     S
C1251  C857    1.400   1_655 S
C1252  C1277   1.465   .     S
C1252  C1264   1.400   .     A
C1253  N1461   1.427   .     S
C1254  C1278   1.456   .     S
C1254  C1275   1.400   .     A
C1254  C527    1.400   1_565 S
C1255  C1283   1.456   .     S
C1255  C1330   1.400   .     A
C1256  C492    1.465   1_565 S
C1256  C442    1.400   1_565 S
C1257  C1281   1.464   .     S
C1258  C816    1.400   1_655 S
C1258  C886    1.457   1_655 S
C1259  C1338   1.414   .     A
C1259  O1518   1.381   .     S
C1259  C1265   1.407   .     A
C1260  C1339   1.416   .     A
C1260  C1263   1.407   .     A
C1260  O1519   1.380   .     S
C1261  O1520   1.380   .     S
C1261  C1267   1.407   .     A
C1261  C1340   1.416   .     A
C1262  C1266   1.407   .     A
C1262  O1521   1.381   .     S
C1263  O1522   1.381   .     S
C1264  N1462   1.427   .     S
C1265  O1523   1.380   .     S
C1266  O1524   1.380   .     S
C1267  O1526   1.381   .     S
C1268  O1527   1.381   .     S
C1268  C1273   1.407   1_556 S
C1269  O1528   1.380   .     S
C1269  C1272   1.407   1_554 S
C1270  O1529   1.380   .     S
C1270  C1276   1.406   1_556 S
C1271  O1530   1.381   .     S
C1271  C1274   1.407   1_554 S
C1272  O1531   1.381   .     S
C1272  C1269   1.407   1_556 S
C1273  O1532   1.380   .     S
C1273  C1268   1.407   1_554 S
C1274  O1533   1.380   .     S
C1274  C1271   1.407   1_556 S
C1275  N1463   1.430   .     S
C1276  O1534   1.381   .     S
C1276  C1270   1.406   1_554 S
C1277  O1558   1.279   .     A
C1278  O1470   1.276   .     A
C1278  O733    1.276   1_565 S
C1279  O1536   1.276   .     A
C1280  O1547   1.278   .     A
C1280  O1077   1.278   1_655 S
C1281  O1474   1.278   .     A
C1281  O1478   1.278   .     A
C1282  O1475   1.276   .     A
C1282  O1479   1.276   .     A
C1283  O1476   1.276   .     S
C1283  O1480   1.276   .     S
C1284  O1477   1.278   .     S
C1284  O1482   1.278   .     S
C1285  O1511   1.280   .     A
C1285  O1483   1.280   .     A
C1286  N1464   1.430   .     S
C1286  C1338   1.419   .     A
C1287  O1512   1.280   .     A
C1287  O1484   1.280   .     A
C1288  O1509   1.281   .     A
C1288  O1485   1.280   .     A
C1289  O1486   1.281   .     A
C1289  O1510   1.280   .     A
C1290  O1487   1.280   .     A
C1290  O1516   1.280   .     A
C1291  O1488   1.280   .     A
C1291  O1517   1.280   .     A
C1292  O1489   1.279   .     A
C1292  O1513   1.282   .     A
C1293  O1515   1.280   .     A
C1293  O1490   1.281   .     A
C1294  O1491   1.280   .     A
C1294  O1502   1.281   .     A
C1295  O1493   1.281   .     A
C1295  O1504   1.280   .     A
C1296  O1494   1.280   .     A
C1296  O1500   1.280   .     A
C1297  C1339   1.419   .     A
C1297  N1465   1.427   .     S
C1298  O1495   1.280   .     A
C1298  O1501   1.280   .     A
C1299  O1507   1.281   .     A
C1299  O1496   1.280   .     A
C1300  O1497   1.282   .     A
C1300  O1508   1.279   .     A
C1301  O1505   1.280   .     A
C1301  O1498   1.280   .     A
C1302  O1506   1.280   .     A
C1302  O1499   1.280   .     A
C1303  O1535   1.386   .     S
C1303  C1320   1.404   .     A
C1304  C1318   1.409   .     A
C1304  O1537   1.383   .     S
C1305  C1317   1.408   .     A
C1305  O1538   1.382   .     S
C1306  O1539   1.383   .     S
C1306  C1316   1.408   .     A
C1307  C1315   1.409   .     A
C1307  O1540   1.382   .     S
C1308  C1340   1.419   .     A
C1308  N1466   1.427   .     S
C1308  C460    1.400   1_565 S
C1309  O1541   1.383   .     S
C1309  C1314   1.409   .     A
C1310  O1542   1.385   .     S
C1310  C1313   1.392   .     A
C1311  C1312   1.392   .     A
C1311  O1543   1.385   .     S
C1312  O1544   1.385   .     S
C1313  O1545   1.385   .     S
C1314  O1546   1.382   .     S
C1315  O1548   1.383   .     S
C1316  O1549   1.382   .     S
C1317  O1550   1.383   .     S
C1318  O1551   1.382   .     S
C1319  N1467   1.430   .     S
C1320  O1552   1.384   .     S
C1321  C1337   1.409   .     A
C1321  O1553   1.383   .     S
C1322  O1554   1.386   .     S
C1322  C1336   1.404   .     A
C1323  C1335   1.408   .     A
C1323  O1555   1.383   .     S
C1324  C1334   1.408   .     A
C1324  O1556   1.382   .     S
C1325  O1557   1.383   .     S
C1325  C1333   1.409   .     A
C1326  C1332   1.409   .     A
C1326  O1559   1.382   .     S
C1327  C1331   1.392   .     A
C1327  O1560   1.385   .     S
C1328  C1329   1.392   .     A
C1328  O1561   1.385   .     S
C1329  O1562   1.385   .     S
C1330  N1468   1.430   .     S
C1331  O1563   1.385   .     S
C1332  O1564   1.383   .     S
C1333  O1565   1.382   .     S
C1334  O1566   1.383   .     S
C1335  O1567   1.382   .     S
C1336  O1568   1.384   .     S
C1337  O1471   1.382   .     S
C1340  C433    1.426   1_565 S
H1341  O1518   0.991   .     S
H1342  O1528   0.992   .     S
H1344  N1458   1.030   .     S
H1348  N1459   1.031   .     S
H1352  N1460   1.031   .     S
H1353  O1529   0.992   .     S
H1357  O1530   0.991   .     S
H1358  O1531   0.991   .     S
H1359  O1532   0.992   .     S
H1360  O1533   0.992   .     S
H1361  O1534   0.991   .     S
H1362  O1535   0.989   .     S
H1363  O1537   0.990   .     S
H1364  O1538   0.990   .     S
H1365  O1519   0.992   .     S
H1366  O1539   0.990   .     S
H1367  O1540   0.990   .     S
H1368  O1541   0.990   .     S
H1369  O1542   0.988   .     S
H1370  O1543   0.988   .     S
H1371  O1544   0.988   .     S
H1372  O1545   0.988   .     S
H1373  O1546   0.990   .     S
H1374  O1548   0.990   .     S
H1375  O1549   0.990   .     S
H1376  O1520   0.992   .     S
H1377  O1550   0.990   .     S
H1378  O1551   0.990   .     S
H1379  O1552   0.989   .     S
H1380  O1553   0.990   .     S
H1381  O1554   0.989   .     S
H1382  O1555   0.990   .     S
H1383  O1556   0.990   .     S
H1384  O1557   0.990   .     S
H1385  O1559   0.990   .     S
H1386  O1560   0.988   .     S
H1387  O1521   0.991   .     S
H1388  O1561   0.988   .     S
H1389  O1562   0.988   .     S
H1390  O1563   0.988   .     S
H1391  O1564   0.990   .     S
H1392  O1565   0.990   .     S
H1393  O1566   0.990   .     S
H1394  O1567   0.990   .     S
H1395  O1568   0.989   .     S
H1396  O1471   0.990   .     S
H1397  N1453   1.031   .     S
H1398  O1522   0.991   .     S
H1402  N1461   1.030   .     S
H1406  N1462   1.030   .     S
H1409  O1523   0.992   .     S
H1411  N1463   1.031   .     S
H1415  N1464   1.031   .     S
H1417  C840    1.109   1_655 S
H1419  N1465   1.030   .     S
H1420  O1524   0.992   .     S
H1424  N1466   1.030   .     S
H1428  N1467   1.031   .     S
H1430  C447    1.109   1_565 S
H1431  O1526   0.991   .     S
H1433  N1468   1.031   .     S
H1437  N1454   1.030   .     S
H1441  N1455   1.030   .     S
H1442  O1527   0.991   .     S
H1446  N1456   1.031   .     S
H1450  N1457   1.031   .     S
O1469  Zn1572  1.948   .     S
O1469  Zn1569  1.947   .     S
O1469  Zn1580  1.948   .     S
O1470  Zn1571  1.955   .     S
O1472  Zn1574  1.954   .     S
O1472  C883    1.276   1_655 S
O1473  Zn1573  1.954   .     S
O1474  Zn1583  1.954   .     S
O1475  Zn1582  1.954   .     S
O1476  Zn1577  1.955   .     S
O1477  Zn1569  1.955   .     S
O1478  Zn1579  1.955   .     S
O1479  Zn1578  1.955   .     S
O1480  Zn1581  1.954   .     S
O1481  Zn1575  1.949   .     S
O1481  Zn1577  1.947   .     S
O1481  Zn1581  1.948   .     S
O1482  Zn1580  1.954   .     S
O1483  Zn1572  1.932   .     S
O1484  Zn1571  1.932   .     S
O1485  Zn1574  1.935   .     S
O1486  Zn1573  1.935   .     S
O1487  Zn1576  1.932   .     S
O1488  Zn1575  1.932   .     S
O1489  Zn1570  1.936   .     S
O1490  Zn1584  1.936   .     S
O1491  Zn1571  1.935   .     S
O1492  Zn1578  1.948   .     S
O1492  Zn1582  1.949   .     S
O1492  Zn1570  1.947   .     S
O1493  Zn1572  1.935   .     S
O1494  Zn1584  1.933   .     S
O1495  Zn1570  1.933   .     S
O1496  Zn1575  1.934   .     S
O1497  Zn1576  1.934   .     S
O1498  Zn1573  1.933   .     S
O1499  Zn1574  1.933   .     S
O1500  Zn1183  1.932   1_655 S
O1501  Zn1578  1.932   .     S
O1502  Zn789   1.935   1_565 S
O1503  Zn1583  1.949   .     S
O1503  Zn1579  1.948   .     S
O1503  Zn1573  1.948   .     S
O1504  Zn1580  1.935   .     S
O1505  Zn1583  1.932   .     S
O1506  Zn1186  1.932   1_655 S
O1507  Zn1577  1.936   .     S
O1508  Zn777   1.936   1_565 S
O1509  Zn1182  1.935   1_655 S
O1510  Zn1579  1.935   .     S
O1511  Zn1569  1.933   .     S
O1512  Zn785   1.933   1_565 S
O1513  Zn1582  1.934   .     S
O1514  Zn1576  1.954   .     S
O1514  C485    1.279   1_565 S
O1515  Zn1187  1.934   1_655 S
O1516  Zn788   1.933   1_565 S
O1517  Zn1581  1.933   .     S
O1525  Zn1575  1.954   .     S
O1536  Zn1570  1.955   .     S
O1547  Zn1584  1.955   .     S
O1558  Zn1572  1.955   .     S
Zn1571 O689    1.948   1_565 S
Zn1574 O1096   1.948   1_655 S
Zn1576 O677    1.949   1_565 S
Zn1584 O1107   1.947   1_655 S
