data_str_m3_o10_o16_pcu_sym.52
_audit_creation_date              2020-01-03
_audit_creation_method            'Materials Studio'
_symmetry_space_group_name_H-M    'P1'
_symmetry_Int_Tables_number       1
_symmetry_cell_setting            triclinic
loop_
_symmetry_equiv_pos_as_xyz
  x,y,z
_cell_length_a                    23.5553
_cell_length_b                    25.7695
_cell_length_c                    24.2656
_cell_angle_alpha                 92.8723
_cell_angle_beta                  101.4630
_cell_angle_gamma                 93.6380
loop_
_atom_site_label
_atom_site_type_symbol
_atom_site_fract_x
_atom_site_fract_y
_atom_site_fract_z
_atom_site_U_iso_or_equiv
_atom_site_adp_type
_atom_site_occupancy
C1     C     0.01407   0.26450   0.24644   0.00000  Uiso   1.00
C2     C     0.05317   0.16797   0.41588   0.00000  Uiso   1.00
C3     C     0.01981   0.31790   0.23743   0.00000  Uiso   1.00
C4     C     0.03540   0.16795   0.35507   0.00000  Uiso   1.00
C5     C     0.31120   0.01396   0.24893   0.00000  Uiso   1.00
C6     C     0.31836   0.06848   0.24966   0.00000  Uiso   1.00
C7     C     0.29743   0.16273   0.14491   0.00000  Uiso   1.00
C8     C     0.27052   0.09609   0.00122   0.00000  Uiso   1.00
C9     C     0.27662   0.15226   0.08509   0.00000  Uiso   1.00
C10    C     0.02433   0.19802   0.44992   0.00000  Uiso   1.00
C11    C     0.04797   0.20787   0.00682   0.00000  Uiso   1.00
C12    C     0.13212   0.16107   0.49490   0.00000  Uiso   1.00
C13    C     0.10198   0.19059   0.02921   0.00000  Uiso   1.00
C14    C     0.20742   0.25368   0.32065   0.00000  Uiso   1.00
C15    C     0.05902   0.33134   0.16058   0.00000  Uiso   1.00
C16    C     0.10373   0.14442   0.43975   0.00000  Uiso   1.00
C17    C     0.18963   0.14775   0.01334   0.00000  Uiso   1.00
C18    C     0.21423   0.11100   0.48113   0.00000  Uiso   1.00
C19    C     0.18182   0.08909   0.43006   0.00000  Uiso   1.00
C20    C     0.12718   0.10567   0.40943   0.00000  Uiso   1.00
C21    C     0.22376   0.17092   0.06270   0.00000  Uiso   1.00
C22    C     0.30122   0.11575   0.05403   0.00000  Uiso   1.00
H23    H     0.00920   0.10088   0.07150   0.00000  Uiso   1.00
H24    H     0.20194   0.27616   0.28231   0.00000  Uiso   1.00
H25    H     0.25355   0.24828   0.33841   0.00000  Uiso   1.00
H26    H     0.19083   0.27692   0.35297   0.00000  Uiso   1.00
H27    H     0.19909   0.05987   0.40558   0.00000  Uiso   1.00
H28    H     0.02134   0.01944   0.14097   0.00000  Uiso   1.00
H29    H     0.05221   0.28946   0.14547   0.00000  Uiso   1.00
H30    H     0.09784   0.01474   0.14640   0.00000  Uiso   1.00
H31    H     0.27215   0.33132   0.26102   0.00000  Uiso   1.00
H32    H     0.15553   0.12910   0.20370   0.00000  Uiso   1.00
H33    H     0.28958   0.06774   0.47732   0.00000  Uiso   1.00
H34    H     0.20894   0.20214   0.08630   0.00000  Uiso   1.00
H35    H     0.31790   0.21534   0.43219   0.00000  Uiso   1.00
H36    H     0.11841   0.19976   0.07362   0.00000  Uiso   1.00
H37    H     0.02546   0.23060   0.03325   0.00000  Uiso   1.00
H38    H     0.10321   0.08746   0.36975   0.00000  Uiso   1.00
N39    N     0.14493   0.15223   0.23542   0.00000  Uiso   1.00
N40    N     0.18840   0.18110   0.26457   0.00000  Uiso   1.00
O41    O     0.29769   0.24629   0.25357   0.00000  Uiso   1.00
O42    O     0.06921   0.00406   0.21991   0.00000  Uiso   1.00
O43    O     0.05742   0.23704   0.24423   0.00000  Uiso   1.00
O44    O     0.31490   0.17358   0.33380   0.00000  Uiso   1.00
O45    O     0.07463   0.16433   0.32446   0.00000  Uiso   1.00
O46    O     0.27592   0.09629   0.25576   0.00000  Uiso   1.00
O47    O     0.03565   0.08704   0.24642   0.00000  Uiso   1.00
O48    O     0.25870   0.16901   0.17554   0.00000  Uiso   1.00
O49    O     0.01843   0.15976   0.16620   0.00000  Uiso   1.00
O50    O     0.17448   0.20585   0.30971   0.00000  Uiso   1.00
Zn51   Zn    0.27119   0.17284   0.25623   0.00000  Uiso   1.00
Zn52   Zn    0.06214   0.16049   0.24376   0.00000  Uiso   1.00
C53    C     0.34740   0.26450   0.24644   0.00000  Uiso   1.00
C54    C     0.38650   0.16797   0.41588   0.00000  Uiso   1.00
C55    C     0.35314   0.31790   0.23743   0.00000  Uiso   1.00
C56    C     0.36873   0.16795   0.35507   0.00000  Uiso   1.00
C57    C     0.64453   0.01396   0.24893   0.00000  Uiso   1.00
C58    C     0.65170   0.06848   0.24966   0.00000  Uiso   1.00
C59    C     0.63076   0.16273   0.14491   0.00000  Uiso   1.00
C60    C     0.60386   0.09609   0.00122   0.00000  Uiso   1.00
C61    C     0.60996   0.15226   0.08509   0.00000  Uiso   1.00
C62    C     0.35766   0.19802   0.44992   0.00000  Uiso   1.00
C63    C     0.38131   0.20787   0.00682   0.00000  Uiso   1.00
C64    C     0.46546   0.16107   0.49490   0.00000  Uiso   1.00
C65    C     0.43531   0.19059   0.02921   0.00000  Uiso   1.00
C66    C     0.54076   0.25368   0.32065   0.00000  Uiso   1.00
C67    C     0.39235   0.33134   0.16058   0.00000  Uiso   1.00
C68    C     0.43706   0.14442   0.43975   0.00000  Uiso   1.00
C69    C     0.52297   0.14775   0.01334   0.00000  Uiso   1.00
C70    C     0.54756   0.11100   0.48113   0.00000  Uiso   1.00
C71    C     0.51516   0.08909   0.43006   0.00000  Uiso   1.00
C72    C     0.46051   0.10567   0.40943   0.00000  Uiso   1.00
C73    C     0.55709   0.17092   0.06270   0.00000  Uiso   1.00
C74    C     0.63455   0.11575   0.05403   0.00000  Uiso   1.00
H75    H     0.34253   0.10088   0.07150   0.00000  Uiso   1.00
H76    H     0.53527   0.27616   0.28231   0.00000  Uiso   1.00
H77    H     0.58688   0.24828   0.33841   0.00000  Uiso   1.00
H78    H     0.52417   0.27692   0.35297   0.00000  Uiso   1.00
H79    H     0.53242   0.05987   0.40558   0.00000  Uiso   1.00
H80    H     0.35468   0.01944   0.14097   0.00000  Uiso   1.00
H81    H     0.38554   0.28946   0.14547   0.00000  Uiso   1.00
H82    H     0.43118   0.01474   0.14640   0.00000  Uiso   1.00
H83    H     0.60548   0.33132   0.26102   0.00000  Uiso   1.00
H84    H     0.48887   0.12910   0.20370   0.00000  Uiso   1.00
H85    H     0.62292   0.06774   0.47732   0.00000  Uiso   1.00
H86    H     0.54227   0.20214   0.08630   0.00000  Uiso   1.00
H87    H     0.65123   0.21534   0.43219   0.00000  Uiso   1.00
H88    H     0.45174   0.19976   0.07362   0.00000  Uiso   1.00
H89    H     0.35879   0.23060   0.03325   0.00000  Uiso   1.00
H90    H     0.43654   0.08746   0.36975   0.00000  Uiso   1.00
N91    N     0.47827   0.15223   0.23542   0.00000  Uiso   1.00
N92    N     0.52173   0.18110   0.26457   0.00000  Uiso   1.00
O93    O     0.63102   0.24629   0.25357   0.00000  Uiso   1.00
O94    O     0.40255   0.00406   0.21991   0.00000  Uiso   1.00
O95    O     0.39075   0.23704   0.24423   0.00000  Uiso   1.00
O96    O     0.64823   0.17358   0.33380   0.00000  Uiso   1.00
O97    O     0.40796   0.16433   0.32446   0.00000  Uiso   1.00
O98    O     0.60925   0.09629   0.25576   0.00000  Uiso   1.00
O99    O     0.36898   0.08704   0.24642   0.00000  Uiso   1.00
O100   O     0.59204   0.16901   0.17554   0.00000  Uiso   1.00
O101   O     0.35177   0.15976   0.16620   0.00000  Uiso   1.00
O102   O     0.50781   0.20585   0.30971   0.00000  Uiso   1.00
Zn103  Zn    0.60453   0.17284   0.25623   0.00000  Uiso   1.00
Zn104  Zn    0.39547   0.16049   0.24376   0.00000  Uiso   1.00
C105   C     0.68074   0.26450   0.24644   0.00000  Uiso   1.00
C106   C     0.71983   0.16797   0.41588   0.00000  Uiso   1.00
C107   C     0.68647   0.31790   0.23743   0.00000  Uiso   1.00
C108   C     0.70206   0.16795   0.35507   0.00000  Uiso   1.00
C109   C     0.97786   0.01396   0.24893   0.00000  Uiso   1.00
C110   C     0.98503   0.06848   0.24966   0.00000  Uiso   1.00
C111   C     0.96410   0.16273   0.14491   0.00000  Uiso   1.00
C112   C     0.93719   0.09609   0.00122   0.00000  Uiso   1.00
C113   C     0.94329   0.15226   0.08509   0.00000  Uiso   1.00
C114   C     0.69100   0.19802   0.44992   0.00000  Uiso   1.00
C115   C     0.71464   0.20787   0.00682   0.00000  Uiso   1.00
C116   C     0.79879   0.16107   0.49490   0.00000  Uiso   1.00
C117   C     0.76865   0.19059   0.02921   0.00000  Uiso   1.00
C118   C     0.87409   0.25368   0.32065   0.00000  Uiso   1.00
C119   C     0.72568   0.33134   0.16058   0.00000  Uiso   1.00
C120   C     0.77040   0.14442   0.43975   0.00000  Uiso   1.00
C121   C     0.85630   0.14775   0.01334   0.00000  Uiso   1.00
C122   C     0.88089   0.11100   0.48113   0.00000  Uiso   1.00
C123   C     0.84849   0.08909   0.43006   0.00000  Uiso   1.00
C124   C     0.79385   0.10567   0.40943   0.00000  Uiso   1.00
C125   C     0.89043   0.17092   0.06270   0.00000  Uiso   1.00
C126   C     0.96789   0.11575   0.05403   0.00000  Uiso   1.00
H127   H     0.67587   0.10088   0.07150   0.00000  Uiso   1.00
H128   H     0.86861   0.27616   0.28231   0.00000  Uiso   1.00
H129   H     0.92021   0.24828   0.33841   0.00000  Uiso   1.00
H130   H     0.85750   0.27692   0.35297   0.00000  Uiso   1.00
H131   H     0.86575   0.05987   0.40558   0.00000  Uiso   1.00
H132   H     0.68801   0.01944   0.14097   0.00000  Uiso   1.00
H133   H     0.71887   0.28946   0.14547   0.00000  Uiso   1.00
H134   H     0.76451   0.01474   0.14640   0.00000  Uiso   1.00
H135   H     0.93881   0.33132   0.26102   0.00000  Uiso   1.00
H136   H     0.82220   0.12910   0.20370   0.00000  Uiso   1.00
H137   H     0.95625   0.06774   0.47732   0.00000  Uiso   1.00
H138   H     0.87560   0.20214   0.08630   0.00000  Uiso   1.00
H139   H     0.98457   0.21534   0.43219   0.00000  Uiso   1.00
H140   H     0.78508   0.19976   0.07362   0.00000  Uiso   1.00
H141   H     0.69212   0.23060   0.03325   0.00000  Uiso   1.00
H142   H     0.76987   0.08746   0.36975   0.00000  Uiso   1.00
N143   N     0.81160   0.15223   0.23542   0.00000  Uiso   1.00
N144   N     0.85507   0.18110   0.26457   0.00000  Uiso   1.00
O145   O     0.96435   0.24629   0.25357   0.00000  Uiso   1.00
O146   O     0.73588   0.00406   0.21991   0.00000  Uiso   1.00
O147   O     0.72408   0.23704   0.24423   0.00000  Uiso   1.00
O148   O     0.98157   0.17358   0.33380   0.00000  Uiso   1.00
O149   O     0.74130   0.16433   0.32446   0.00000  Uiso   1.00
O150   O     0.94258   0.09629   0.25576   0.00000  Uiso   1.00
O151   O     0.70231   0.08704   0.24642   0.00000  Uiso   1.00
O152   O     0.92537   0.16901   0.17554   0.00000  Uiso   1.00
O153   O     0.68510   0.15976   0.16620   0.00000  Uiso   1.00
O154   O     0.84114   0.20585   0.30971   0.00000  Uiso   1.00
Zn155  Zn    0.93786   0.17284   0.25623   0.00000  Uiso   1.00
Zn156  Zn    0.72881   0.16049   0.24376   0.00000  Uiso   1.00
C157   C     0.01407   0.59784   0.24644   0.00000  Uiso   1.00
C158   C     0.05317   0.50130   0.41588   0.00000  Uiso   1.00
C159   C     0.01981   0.65123   0.23743   0.00000  Uiso   1.00
C160   C     0.03540   0.50128   0.35507   0.00000  Uiso   1.00
C161   C     0.31120   0.34729   0.24893   0.00000  Uiso   1.00
C162   C     0.31836   0.40181   0.24966   0.00000  Uiso   1.00
C163   C     0.29743   0.49606   0.14491   0.00000  Uiso   1.00
C164   C     0.27052   0.42943   0.00122   0.00000  Uiso   1.00
C165   C     0.27662   0.48559   0.08509   0.00000  Uiso   1.00
C166   C     0.02433   0.53136   0.44992   0.00000  Uiso   1.00
C167   C     0.04797   0.54120   0.00682   0.00000  Uiso   1.00
C168   C     0.13212   0.49441   0.49490   0.00000  Uiso   1.00
C169   C     0.10198   0.52393   0.02921   0.00000  Uiso   1.00
C170   C     0.20742   0.58701   0.32065   0.00000  Uiso   1.00
C171   C     0.05902   0.66467   0.16058   0.00000  Uiso   1.00
C172   C     0.10373   0.47775   0.43975   0.00000  Uiso   1.00
C173   C     0.18963   0.48108   0.01334   0.00000  Uiso   1.00
C174   C     0.21423   0.44433   0.48113   0.00000  Uiso   1.00
C175   C     0.18182   0.42242   0.43006   0.00000  Uiso   1.00
C176   C     0.12718   0.43900   0.40943   0.00000  Uiso   1.00
C177   C     0.22376   0.50426   0.06270   0.00000  Uiso   1.00
C178   C     0.30122   0.44908   0.05403   0.00000  Uiso   1.00
H179   H     0.00920   0.43421   0.07150   0.00000  Uiso   1.00
H180   H     0.20194   0.60949   0.28231   0.00000  Uiso   1.00
H181   H     0.25355   0.58162   0.33841   0.00000  Uiso   1.00
H182   H     0.19083   0.61025   0.35297   0.00000  Uiso   1.00
H183   H     0.19909   0.39320   0.40558   0.00000  Uiso   1.00
H184   H     0.02134   0.35278   0.14097   0.00000  Uiso   1.00
H185   H     0.05221   0.62279   0.14547   0.00000  Uiso   1.00
H186   H     0.09784   0.34807   0.14640   0.00000  Uiso   1.00
H187   H     0.27215   0.66465   0.26102   0.00000  Uiso   1.00
H188   H     0.15553   0.46243   0.20370   0.00000  Uiso   1.00
H189   H     0.28958   0.40107   0.47732   0.00000  Uiso   1.00
H190   H     0.20894   0.53547   0.08630   0.00000  Uiso   1.00
H191   H     0.31790   0.54867   0.43219   0.00000  Uiso   1.00
H192   H     0.11841   0.53310   0.07362   0.00000  Uiso   1.00
H193   H     0.02546   0.56393   0.03325   0.00000  Uiso   1.00
H194   H     0.10321   0.42079   0.36975   0.00000  Uiso   1.00
N195   N     0.14493   0.48556   0.23542   0.00000  Uiso   1.00
N196   N     0.18840   0.51444   0.26457   0.00000  Uiso   1.00
O197   O     0.29769   0.57963   0.25357   0.00000  Uiso   1.00
O198   O     0.06921   0.33739   0.21991   0.00000  Uiso   1.00
O199   O     0.05742   0.57038   0.24423   0.00000  Uiso   1.00
O200   O     0.31490   0.50691   0.33380   0.00000  Uiso   1.00
O201   O     0.07463   0.49766   0.32446   0.00000  Uiso   1.00
O202   O     0.27592   0.42962   0.25576   0.00000  Uiso   1.00
O203   O     0.03565   0.42037   0.24642   0.00000  Uiso   1.00
O204   O     0.25870   0.50234   0.17554   0.00000  Uiso   1.00
O205   O     0.01843   0.49309   0.16620   0.00000  Uiso   1.00
O206   O     0.17448   0.53919   0.30971   0.00000  Uiso   1.00
Zn207  Zn    0.27119   0.50618   0.25623   0.00000  Uiso   1.00
Zn208  Zn    0.06214   0.49382   0.24376   0.00000  Uiso   1.00
C209   C     0.34740   0.59784   0.24644   0.00000  Uiso   1.00
C210   C     0.38650   0.50130   0.41588   0.00000  Uiso   1.00
C211   C     0.35314   0.65123   0.23743   0.00000  Uiso   1.00
C212   C     0.36873   0.50128   0.35507   0.00000  Uiso   1.00
C213   C     0.64453   0.34729   0.24893   0.00000  Uiso   1.00
C214   C     0.65170   0.40181   0.24966   0.00000  Uiso   1.00
C215   C     0.63076   0.49606   0.14491   0.00000  Uiso   1.00
C216   C     0.60386   0.42943   0.00122   0.00000  Uiso   1.00
C217   C     0.60996   0.48559   0.08509   0.00000  Uiso   1.00
C218   C     0.35766   0.53136   0.44992   0.00000  Uiso   1.00
C219   C     0.38131   0.54120   0.00682   0.00000  Uiso   1.00
C220   C     0.46546   0.49441   0.49490   0.00000  Uiso   1.00
C221   C     0.43531   0.52393   0.02921   0.00000  Uiso   1.00
C222   C     0.54076   0.58701   0.32065   0.00000  Uiso   1.00
C223   C     0.39235   0.66467   0.16058   0.00000  Uiso   1.00
C224   C     0.43706   0.47775   0.43975   0.00000  Uiso   1.00
C225   C     0.52297   0.48108   0.01334   0.00000  Uiso   1.00
C226   C     0.54756   0.44433   0.48113   0.00000  Uiso   1.00
C227   C     0.51516   0.42242   0.43006   0.00000  Uiso   1.00
C228   C     0.46051   0.43900   0.40943   0.00000  Uiso   1.00
C229   C     0.55709   0.50426   0.06270   0.00000  Uiso   1.00
C230   C     0.63455   0.44908   0.05403   0.00000  Uiso   1.00
H231   H     0.34253   0.43421   0.07150   0.00000  Uiso   1.00
H232   H     0.53527   0.60949   0.28231   0.00000  Uiso   1.00
H233   H     0.58688   0.58162   0.33841   0.00000  Uiso   1.00
H234   H     0.52417   0.61025   0.35297   0.00000  Uiso   1.00
H235   H     0.53242   0.39320   0.40558   0.00000  Uiso   1.00
H236   H     0.35468   0.35278   0.14097   0.00000  Uiso   1.00
H237   H     0.38554   0.62279   0.14547   0.00000  Uiso   1.00
H238   H     0.43118   0.34807   0.14640   0.00000  Uiso   1.00
H239   H     0.60548   0.66465   0.26102   0.00000  Uiso   1.00
H240   H     0.48887   0.46243   0.20370   0.00000  Uiso   1.00
H241   H     0.62292   0.40107   0.47732   0.00000  Uiso   1.00
H242   H     0.54227   0.53547   0.08630   0.00000  Uiso   1.00
H243   H     0.65123   0.54867   0.43219   0.00000  Uiso   1.00
H244   H     0.45174   0.53310   0.07362   0.00000  Uiso   1.00
H245   H     0.35879   0.56393   0.03325   0.00000  Uiso   1.00
H246   H     0.43654   0.42079   0.36975   0.00000  Uiso   1.00
N247   N     0.47827   0.48556   0.23542   0.00000  Uiso   1.00
N248   N     0.52173   0.51444   0.26457   0.00000  Uiso   1.00
O249   O     0.63102   0.57963   0.25357   0.00000  Uiso   1.00
O250   O     0.40255   0.33739   0.21991   0.00000  Uiso   1.00
O251   O     0.39075   0.57038   0.24423   0.00000  Uiso   1.00
O252   O     0.64823   0.50691   0.33380   0.00000  Uiso   1.00
O253   O     0.40796   0.49766   0.32446   0.00000  Uiso   1.00
O254   O     0.60925   0.42962   0.25576   0.00000  Uiso   1.00
O255   O     0.36898   0.42037   0.24642   0.00000  Uiso   1.00
O256   O     0.59204   0.50234   0.17554   0.00000  Uiso   1.00
O257   O     0.35177   0.49309   0.16620   0.00000  Uiso   1.00
O258   O     0.50781   0.53919   0.30971   0.00000  Uiso   1.00
Zn259  Zn    0.60453   0.50618   0.25623   0.00000  Uiso   1.00
Zn260  Zn    0.39547   0.49382   0.24376   0.00000  Uiso   1.00
C261   C     0.68074   0.59784   0.24644   0.00000  Uiso   1.00
C262   C     0.71983   0.50130   0.41588   0.00000  Uiso   1.00
C263   C     0.68647   0.65123   0.23743   0.00000  Uiso   1.00
C264   C     0.70206   0.50128   0.35507   0.00000  Uiso   1.00
C265   C     0.97786   0.34729   0.24893   0.00000  Uiso   1.00
C266   C     0.98503   0.40181   0.24966   0.00000  Uiso   1.00
C267   C     0.96410   0.49606   0.14491   0.00000  Uiso   1.00
C268   C     0.93719   0.42943   0.00122   0.00000  Uiso   1.00
C269   C     0.94329   0.48559   0.08509   0.00000  Uiso   1.00
C270   C     0.69100   0.53136   0.44992   0.00000  Uiso   1.00
C271   C     0.71464   0.54120   0.00682   0.00000  Uiso   1.00
C272   C     0.79879   0.49441   0.49490   0.00000  Uiso   1.00
C273   C     0.76865   0.52393   0.02921   0.00000  Uiso   1.00
C274   C     0.87409   0.58701   0.32065   0.00000  Uiso   1.00
C275   C     0.72568   0.66467   0.16058   0.00000  Uiso   1.00
C276   C     0.77040   0.47775   0.43975   0.00000  Uiso   1.00
C277   C     0.85630   0.48108   0.01334   0.00000  Uiso   1.00
C278   C     0.88089   0.44433   0.48113   0.00000  Uiso   1.00
C279   C     0.84849   0.42242   0.43006   0.00000  Uiso   1.00
C280   C     0.79385   0.43900   0.40943   0.00000  Uiso   1.00
C281   C     0.89043   0.50426   0.06270   0.00000  Uiso   1.00
C282   C     0.96789   0.44908   0.05403   0.00000  Uiso   1.00
H283   H     0.67587   0.43421   0.07150   0.00000  Uiso   1.00
H284   H     0.86861   0.60949   0.28231   0.00000  Uiso   1.00
H285   H     0.92021   0.58162   0.33841   0.00000  Uiso   1.00
H286   H     0.85750   0.61025   0.35297   0.00000  Uiso   1.00
H287   H     0.86575   0.39320   0.40558   0.00000  Uiso   1.00
H288   H     0.68801   0.35278   0.14097   0.00000  Uiso   1.00
H289   H     0.71887   0.62279   0.14547   0.00000  Uiso   1.00
H290   H     0.76451   0.34807   0.14640   0.00000  Uiso   1.00
H291   H     0.93881   0.66465   0.26102   0.00000  Uiso   1.00
H292   H     0.82220   0.46243   0.20370   0.00000  Uiso   1.00
H293   H     0.95625   0.40107   0.47732   0.00000  Uiso   1.00
H294   H     0.87560   0.53547   0.08630   0.00000  Uiso   1.00
H295   H     0.98457   0.54867   0.43219   0.00000  Uiso   1.00
H296   H     0.78508   0.53310   0.07362   0.00000  Uiso   1.00
H297   H     0.69212   0.56393   0.03325   0.00000  Uiso   1.00
H298   H     0.76987   0.42079   0.36975   0.00000  Uiso   1.00
N299   N     0.81160   0.48556   0.23542   0.00000  Uiso   1.00
N300   N     0.85507   0.51444   0.26457   0.00000  Uiso   1.00
O301   O     0.96435   0.57963   0.25357   0.00000  Uiso   1.00
O302   O     0.73588   0.33739   0.21991   0.00000  Uiso   1.00
O303   O     0.72408   0.57038   0.24423   0.00000  Uiso   1.00
O304   O     0.98157   0.50691   0.33380   0.00000  Uiso   1.00
O305   O     0.74130   0.49766   0.32446   0.00000  Uiso   1.00
O306   O     0.94258   0.42962   0.25576   0.00000  Uiso   1.00
O307   O     0.70231   0.42037   0.24642   0.00000  Uiso   1.00
O308   O     0.92537   0.50234   0.17554   0.00000  Uiso   1.00
O309   O     0.68510   0.49309   0.16620   0.00000  Uiso   1.00
O310   O     0.84114   0.53919   0.30971   0.00000  Uiso   1.00
Zn311  Zn    0.93786   0.50618   0.25623   0.00000  Uiso   1.00
Zn312  Zn    0.72881   0.49382   0.24376   0.00000  Uiso   1.00
C313   C     0.01407   0.93117   0.24644   0.00000  Uiso   1.00
C314   C     0.05317   0.83464   0.41588   0.00000  Uiso   1.00
C315   C     0.01981   0.98457   0.23743   0.00000  Uiso   1.00
C316   C     0.03540   0.83461   0.35507   0.00000  Uiso   1.00
C317   C     0.31120   0.68062   0.24893   0.00000  Uiso   1.00
C318   C     0.31836   0.73514   0.24966   0.00000  Uiso   1.00
C319   C     0.29743   0.82940   0.14491   0.00000  Uiso   1.00
C320   C     0.27052   0.76276   0.00122   0.00000  Uiso   1.00
C321   C     0.27662   0.81893   0.08509   0.00000  Uiso   1.00
C322   C     0.02433   0.86469   0.44992   0.00000  Uiso   1.00
C323   C     0.04797   0.87453   0.00682   0.00000  Uiso   1.00
C324   C     0.13212   0.82774   0.49490   0.00000  Uiso   1.00
C325   C     0.10198   0.85726   0.02921   0.00000  Uiso   1.00
C326   C     0.20742   0.92034   0.32065   0.00000  Uiso   1.00
C327   C     0.05902   0.99801   0.16058   0.00000  Uiso   1.00
C328   C     0.10373   0.81108   0.43975   0.00000  Uiso   1.00
C329   C     0.18963   0.81441   0.01334   0.00000  Uiso   1.00
C330   C     0.21423   0.77767   0.48113   0.00000  Uiso   1.00
C331   C     0.18182   0.75576   0.43006   0.00000  Uiso   1.00
C332   C     0.12718   0.77234   0.40943   0.00000  Uiso   1.00
C333   C     0.22376   0.83759   0.06270   0.00000  Uiso   1.00
C334   C     0.30122   0.78242   0.05403   0.00000  Uiso   1.00
H335   H     0.00920   0.76754   0.07150   0.00000  Uiso   1.00
H336   H     0.20194   0.94282   0.28231   0.00000  Uiso   1.00
H337   H     0.25355   0.91495   0.33841   0.00000  Uiso   1.00
H338   H     0.19083   0.94359   0.35297   0.00000  Uiso   1.00
H339   H     0.19909   0.72654   0.40558   0.00000  Uiso   1.00
H340   H     0.02134   0.68611   0.14097   0.00000  Uiso   1.00
H341   H     0.05221   0.95613   0.14547   0.00000  Uiso   1.00
H342   H     0.09784   0.68140   0.14640   0.00000  Uiso   1.00
H343   H     0.27215   0.99798   0.26102   0.00000  Uiso   1.00
H344   H     0.15553   0.79577   0.20370   0.00000  Uiso   1.00
H345   H     0.28958   0.73440   0.47732   0.00000  Uiso   1.00
H346   H     0.20894   0.86880   0.08630   0.00000  Uiso   1.00
H347   H     0.31790   0.88200   0.43219   0.00000  Uiso   1.00
H348   H     0.11841   0.86643   0.07362   0.00000  Uiso   1.00
H349   H     0.02546   0.89727   0.03325   0.00000  Uiso   1.00
H350   H     0.10321   0.75413   0.36975   0.00000  Uiso   1.00
N351   N     0.14493   0.81890   0.23542   0.00000  Uiso   1.00
N352   N     0.18840   0.84777   0.26457   0.00000  Uiso   1.00
O353   O     0.29769   0.91296   0.25357   0.00000  Uiso   1.00
O354   O     0.06921   0.67072   0.21991   0.00000  Uiso   1.00
O355   O     0.05742   0.90371   0.24423   0.00000  Uiso   1.00
O356   O     0.31490   0.84024   0.33380   0.00000  Uiso   1.00
O357   O     0.07463   0.83099   0.32446   0.00000  Uiso   1.00
O358   O     0.27592   0.76296   0.25576   0.00000  Uiso   1.00
O359   O     0.03565   0.75371   0.24642   0.00000  Uiso   1.00
O360   O     0.25870   0.83567   0.17554   0.00000  Uiso   1.00
O361   O     0.01843   0.82642   0.16620   0.00000  Uiso   1.00
O362   O     0.17448   0.87252   0.30971   0.00000  Uiso   1.00
Zn363  Zn    0.27119   0.83951   0.25623   0.00000  Uiso   1.00
Zn364  Zn    0.06214   0.82716   0.24376   0.00000  Uiso   1.00
C365   C     0.34740   0.93117   0.24644   0.00000  Uiso   1.00
C366   C     0.38650   0.83464   0.41588   0.00000  Uiso   1.00
C367   C     0.35314   0.98457   0.23743   0.00000  Uiso   1.00
C368   C     0.36873   0.83461   0.35507   0.00000  Uiso   1.00
C369   C     0.64453   0.68062   0.24893   0.00000  Uiso   1.00
C370   C     0.65170   0.73514   0.24966   0.00000  Uiso   1.00
C371   C     0.63076   0.82940   0.14491   0.00000  Uiso   1.00
C372   C     0.60386   0.76276   0.00122   0.00000  Uiso   1.00
C373   C     0.60996   0.81893   0.08509   0.00000  Uiso   1.00
C374   C     0.35766   0.86469   0.44992   0.00000  Uiso   1.00
C375   C     0.38131   0.87453   0.00682   0.00000  Uiso   1.00
C376   C     0.46546   0.82774   0.49490   0.00000  Uiso   1.00
C377   C     0.43531   0.85726   0.02921   0.00000  Uiso   1.00
C378   C     0.54076   0.92034   0.32065   0.00000  Uiso   1.00
C379   C     0.39235   0.99801   0.16058   0.00000  Uiso   1.00
C380   C     0.43706   0.81108   0.43975   0.00000  Uiso   1.00
C381   C     0.52297   0.81441   0.01334   0.00000  Uiso   1.00
C382   C     0.54756   0.77767   0.48113   0.00000  Uiso   1.00
C383   C     0.51516   0.75576   0.43006   0.00000  Uiso   1.00
C384   C     0.46051   0.77234   0.40943   0.00000  Uiso   1.00
C385   C     0.55709   0.83759   0.06270   0.00000  Uiso   1.00
C386   C     0.63455   0.78242   0.05403   0.00000  Uiso   1.00
H387   H     0.34253   0.76754   0.07150   0.00000  Uiso   1.00
H388   H     0.53527   0.94282   0.28231   0.00000  Uiso   1.00
H389   H     0.58688   0.91495   0.33841   0.00000  Uiso   1.00
H390   H     0.52417   0.94359   0.35297   0.00000  Uiso   1.00
H391   H     0.53242   0.72654   0.40558   0.00000  Uiso   1.00
H392   H     0.35468   0.68611   0.14097   0.00000  Uiso   1.00
H393   H     0.38554   0.95613   0.14547   0.00000  Uiso   1.00
H394   H     0.43118   0.68140   0.14640   0.00000  Uiso   1.00
H395   H     0.60548   0.99798   0.26102   0.00000  Uiso   1.00
H396   H     0.48887   0.79577   0.20370   0.00000  Uiso   1.00
H397   H     0.62292   0.73440   0.47732   0.00000  Uiso   1.00
H398   H     0.54227   0.86880   0.08630   0.00000  Uiso   1.00
H399   H     0.65123   0.88200   0.43219   0.00000  Uiso   1.00
H400   H     0.45174   0.86643   0.07362   0.00000  Uiso   1.00
H401   H     0.35879   0.89727   0.03325   0.00000  Uiso   1.00
H402   H     0.43654   0.75413   0.36975   0.00000  Uiso   1.00
N403   N     0.47827   0.81890   0.23542   0.00000  Uiso   1.00
N404   N     0.52173   0.84777   0.26457   0.00000  Uiso   1.00
O405   O     0.63102   0.91296   0.25357   0.00000  Uiso   1.00
O406   O     0.40255   0.67072   0.21991   0.00000  Uiso   1.00
O407   O     0.39075   0.90371   0.24423   0.00000  Uiso   1.00
O408   O     0.64823   0.84024   0.33380   0.00000  Uiso   1.00
O409   O     0.40796   0.83099   0.32446   0.00000  Uiso   1.00
O410   O     0.60925   0.76296   0.25576   0.00000  Uiso   1.00
O411   O     0.36898   0.75371   0.24642   0.00000  Uiso   1.00
O412   O     0.59204   0.83567   0.17554   0.00000  Uiso   1.00
O413   O     0.35177   0.82642   0.16620   0.00000  Uiso   1.00
O414   O     0.50781   0.87252   0.30971   0.00000  Uiso   1.00
Zn415  Zn    0.60453   0.83951   0.25623   0.00000  Uiso   1.00
Zn416  Zn    0.39547   0.82716   0.24376   0.00000  Uiso   1.00
C417   C     0.68074   0.93117   0.24644   0.00000  Uiso   1.00
C418   C     0.71983   0.83464   0.41588   0.00000  Uiso   1.00
C419   C     0.68647   0.98457   0.23743   0.00000  Uiso   1.00
C420   C     0.70206   0.83461   0.35507   0.00000  Uiso   1.00
C421   C     0.97786   0.68062   0.24893   0.00000  Uiso   1.00
C422   C     0.98503   0.73514   0.24966   0.00000  Uiso   1.00
C423   C     0.96410   0.82940   0.14491   0.00000  Uiso   1.00
C424   C     0.93719   0.76276   0.00122   0.00000  Uiso   1.00
C425   C     0.94329   0.81893   0.08509   0.00000  Uiso   1.00
C426   C     0.69100   0.86469   0.44992   0.00000  Uiso   1.00
C427   C     0.71464   0.87453   0.00682   0.00000  Uiso   1.00
C428   C     0.79879   0.82774   0.49490   0.00000  Uiso   1.00
C429   C     0.76865   0.85726   0.02921   0.00000  Uiso   1.00
C430   C     0.87409   0.92034   0.32065   0.00000  Uiso   1.00
C431   C     0.72568   0.99801   0.16058   0.00000  Uiso   1.00
C432   C     0.77040   0.81108   0.43975   0.00000  Uiso   1.00
C433   C     0.85630   0.81441   0.01334   0.00000  Uiso   1.00
C434   C     0.88089   0.77767   0.48113   0.00000  Uiso   1.00
C435   C     0.84849   0.75576   0.43006   0.00000  Uiso   1.00
C436   C     0.79385   0.77234   0.40943   0.00000  Uiso   1.00
C437   C     0.89043   0.83759   0.06270   0.00000  Uiso   1.00
C438   C     0.96789   0.78242   0.05403   0.00000  Uiso   1.00
H439   H     0.67587   0.76754   0.07150   0.00000  Uiso   1.00
H440   H     0.86861   0.94282   0.28231   0.00000  Uiso   1.00
H441   H     0.92021   0.91495   0.33841   0.00000  Uiso   1.00
H442   H     0.85750   0.94359   0.35297   0.00000  Uiso   1.00
H443   H     0.86575   0.72654   0.40558   0.00000  Uiso   1.00
H444   H     0.68801   0.68611   0.14097   0.00000  Uiso   1.00
H445   H     0.71887   0.95613   0.14547   0.00000  Uiso   1.00
H446   H     0.76451   0.68140   0.14640   0.00000  Uiso   1.00
H447   H     0.93881   0.99798   0.26102   0.00000  Uiso   1.00
H448   H     0.82220   0.79577   0.20370   0.00000  Uiso   1.00
H449   H     0.95625   0.73440   0.47732   0.00000  Uiso   1.00
H450   H     0.87560   0.86880   0.08630   0.00000  Uiso   1.00
H451   H     0.98457   0.88200   0.43219   0.00000  Uiso   1.00
H452   H     0.78508   0.86643   0.07362   0.00000  Uiso   1.00
H453   H     0.69212   0.89727   0.03325   0.00000  Uiso   1.00
H454   H     0.76987   0.75413   0.36975   0.00000  Uiso   1.00
N455   N     0.81160   0.81890   0.23542   0.00000  Uiso   1.00
N456   N     0.85507   0.84777   0.26457   0.00000  Uiso   1.00
O457   O     0.96435   0.91296   0.25357   0.00000  Uiso   1.00
O458   O     0.73588   0.67072   0.21991   0.00000  Uiso   1.00
O459   O     0.72408   0.90371   0.24423   0.00000  Uiso   1.00
O460   O     0.98157   0.84024   0.33380   0.00000  Uiso   1.00
O461   O     0.74130   0.83099   0.32446   0.00000  Uiso   1.00
O462   O     0.94258   0.76296   0.25576   0.00000  Uiso   1.00
O463   O     0.70231   0.75371   0.24642   0.00000  Uiso   1.00
O464   O     0.92537   0.83567   0.17554   0.00000  Uiso   1.00
O465   O     0.68510   0.82642   0.16620   0.00000  Uiso   1.00
O466   O     0.84114   0.87252   0.30971   0.00000  Uiso   1.00
Zn467  Zn    0.93786   0.83951   0.25623   0.00000  Uiso   1.00
Zn468  Zn    0.72881   0.82716   0.24376   0.00000  Uiso   1.00
C469   C     0.01407   0.26450   0.74644   0.00000  Uiso   1.00
C470   C     0.05317   0.16797   0.91588   0.00000  Uiso   1.00
C471   C     0.01981   0.31790   0.73743   0.00000  Uiso   1.00
C472   C     0.03540   0.16795   0.85507   0.00000  Uiso   1.00
C473   C     0.31120   0.01396   0.74893   0.00000  Uiso   1.00
C474   C     0.31836   0.06848   0.74966   0.00000  Uiso   1.00
C475   C     0.29743   0.16273   0.64491   0.00000  Uiso   1.00
C476   C     0.27052   0.09609   0.50122   0.00000  Uiso   1.00
C477   C     0.27662   0.15226   0.58509   0.00000  Uiso   1.00
C478   C     0.02433   0.19802   0.94992   0.00000  Uiso   1.00
C479   C     0.04797   0.20787   0.50682   0.00000  Uiso   1.00
C480   C     0.13212   0.16107   0.99490   0.00000  Uiso   1.00
C481   C     0.10198   0.19059   0.52921   0.00000  Uiso   1.00
C482   C     0.20742   0.25368   0.82065   0.00000  Uiso   1.00
C483   C     0.05902   0.33134   0.66058   0.00000  Uiso   1.00
C484   C     0.10373   0.14442   0.93975   0.00000  Uiso   1.00
C485   C     0.18963   0.14775   0.51334   0.00000  Uiso   1.00
C486   C     0.21423   0.11100   0.98113   0.00000  Uiso   1.00
C487   C     0.18182   0.08909   0.93006   0.00000  Uiso   1.00
C488   C     0.12718   0.10567   0.90943   0.00000  Uiso   1.00
C489   C     0.22376   0.17092   0.56270   0.00000  Uiso   1.00
C490   C     0.30122   0.11575   0.55403   0.00000  Uiso   1.00
H491   H     0.00920   0.10088   0.57150   0.00000  Uiso   1.00
H492   H     0.20194   0.27616   0.78231   0.00000  Uiso   1.00
H493   H     0.25355   0.24828   0.83841   0.00000  Uiso   1.00
H494   H     0.19083   0.27692   0.85297   0.00000  Uiso   1.00
H495   H     0.19909   0.05987   0.90558   0.00000  Uiso   1.00
H496   H     0.02134   0.01944   0.64097   0.00000  Uiso   1.00
H497   H     0.05221   0.28946   0.64547   0.00000  Uiso   1.00
H498   H     0.09784   0.01474   0.64640   0.00000  Uiso   1.00
H499   H     0.27215   0.33132   0.76102   0.00000  Uiso   1.00
H500   H     0.15553   0.12910   0.70370   0.00000  Uiso   1.00
H501   H     0.28958   0.06774   0.97732   0.00000  Uiso   1.00
H502   H     0.20894   0.20214   0.58630   0.00000  Uiso   1.00
H503   H     0.31790   0.21534   0.93219   0.00000  Uiso   1.00
H504   H     0.11841   0.19976   0.57362   0.00000  Uiso   1.00
H505   H     0.02546   0.23060   0.53325   0.00000  Uiso   1.00
H506   H     0.10321   0.08746   0.86975   0.00000  Uiso   1.00
N507   N     0.14493   0.15223   0.73542   0.00000  Uiso   1.00
N508   N     0.18840   0.18110   0.76457   0.00000  Uiso   1.00
O509   O     0.29769   0.24629   0.75357   0.00000  Uiso   1.00
O510   O     0.06921   0.00406   0.71991   0.00000  Uiso   1.00
O511   O     0.05742   0.23704   0.74423   0.00000  Uiso   1.00
O512   O     0.31490   0.17358   0.83380   0.00000  Uiso   1.00
O513   O     0.07463   0.16433   0.82446   0.00000  Uiso   1.00
O514   O     0.27592   0.09629   0.75576   0.00000  Uiso   1.00
O515   O     0.03565   0.08704   0.74642   0.00000  Uiso   1.00
O516   O     0.25870   0.16901   0.67554   0.00000  Uiso   1.00
O517   O     0.01843   0.15976   0.66620   0.00000  Uiso   1.00
O518   O     0.17448   0.20585   0.80971   0.00000  Uiso   1.00
Zn519  Zn    0.27119   0.17284   0.75623   0.00000  Uiso   1.00
Zn520  Zn    0.06214   0.16049   0.74376   0.00000  Uiso   1.00
C521   C     0.34740   0.26450   0.74644   0.00000  Uiso   1.00
C522   C     0.38650   0.16797   0.91588   0.00000  Uiso   1.00
C523   C     0.35314   0.31790   0.73743   0.00000  Uiso   1.00
C524   C     0.36873   0.16795   0.85507   0.00000  Uiso   1.00
C525   C     0.64453   0.01396   0.74893   0.00000  Uiso   1.00
C526   C     0.65170   0.06848   0.74966   0.00000  Uiso   1.00
C527   C     0.63076   0.16273   0.64491   0.00000  Uiso   1.00
C528   C     0.60386   0.09609   0.50122   0.00000  Uiso   1.00
C529   C     0.60996   0.15226   0.58509   0.00000  Uiso   1.00
C530   C     0.35766   0.19802   0.94992   0.00000  Uiso   1.00
C531   C     0.38131   0.20787   0.50682   0.00000  Uiso   1.00
C532   C     0.46546   0.16107   0.99490   0.00000  Uiso   1.00
C533   C     0.43531   0.19059   0.52921   0.00000  Uiso   1.00
C534   C     0.54076   0.25368   0.82065   0.00000  Uiso   1.00
C535   C     0.39235   0.33134   0.66058   0.00000  Uiso   1.00
C536   C     0.43706   0.14442   0.93975   0.00000  Uiso   1.00
C537   C     0.52297   0.14775   0.51334   0.00000  Uiso   1.00
C538   C     0.54756   0.11100   0.98113   0.00000  Uiso   1.00
C539   C     0.51516   0.08909   0.93006   0.00000  Uiso   1.00
C540   C     0.46051   0.10567   0.90943   0.00000  Uiso   1.00
C541   C     0.55709   0.17092   0.56270   0.00000  Uiso   1.00
C542   C     0.63455   0.11575   0.55403   0.00000  Uiso   1.00
H543   H     0.34253   0.10088   0.57150   0.00000  Uiso   1.00
H544   H     0.53527   0.27616   0.78231   0.00000  Uiso   1.00
H545   H     0.58688   0.24828   0.83841   0.00000  Uiso   1.00
H546   H     0.52417   0.27692   0.85297   0.00000  Uiso   1.00
H547   H     0.53242   0.05987   0.90558   0.00000  Uiso   1.00
H548   H     0.35468   0.01944   0.64097   0.00000  Uiso   1.00
H549   H     0.38554   0.28946   0.64547   0.00000  Uiso   1.00
H550   H     0.43118   0.01474   0.64640   0.00000  Uiso   1.00
H551   H     0.60548   0.33132   0.76102   0.00000  Uiso   1.00
H552   H     0.48887   0.12910   0.70370   0.00000  Uiso   1.00
H553   H     0.62292   0.06774   0.97732   0.00000  Uiso   1.00
H554   H     0.54227   0.20214   0.58630   0.00000  Uiso   1.00
H555   H     0.65123   0.21534   0.93219   0.00000  Uiso   1.00
H556   H     0.45174   0.19976   0.57362   0.00000  Uiso   1.00
H557   H     0.35879   0.23060   0.53325   0.00000  Uiso   1.00
H558   H     0.43654   0.08746   0.86975   0.00000  Uiso   1.00
N559   N     0.47827   0.15223   0.73542   0.00000  Uiso   1.00
N560   N     0.52173   0.18110   0.76457   0.00000  Uiso   1.00
O561   O     0.63102   0.24629   0.75357   0.00000  Uiso   1.00
O562   O     0.40255   0.00406   0.71991   0.00000  Uiso   1.00
O563   O     0.39075   0.23704   0.74423   0.00000  Uiso   1.00
O564   O     0.64823   0.17358   0.83380   0.00000  Uiso   1.00
O565   O     0.40796   0.16433   0.82446   0.00000  Uiso   1.00
O566   O     0.60925   0.09629   0.75576   0.00000  Uiso   1.00
O567   O     0.36898   0.08704   0.74642   0.00000  Uiso   1.00
O568   O     0.59204   0.16901   0.67554   0.00000  Uiso   1.00
O569   O     0.35177   0.15976   0.66620   0.00000  Uiso   1.00
O570   O     0.50781   0.20585   0.80971   0.00000  Uiso   1.00
Zn571  Zn    0.60453   0.17284   0.75623   0.00000  Uiso   1.00
Zn572  Zn    0.39547   0.16049   0.74376   0.00000  Uiso   1.00
C573   C     0.68074   0.26450   0.74644   0.00000  Uiso   1.00
C574   C     0.71983   0.16797   0.91588   0.00000  Uiso   1.00
C575   C     0.68647   0.31790   0.73743   0.00000  Uiso   1.00
C576   C     0.70206   0.16795   0.85507   0.00000  Uiso   1.00
C577   C     0.97786   0.01396   0.74893   0.00000  Uiso   1.00
C578   C     0.98503   0.06848   0.74966   0.00000  Uiso   1.00
C579   C     0.96410   0.16273   0.64491   0.00000  Uiso   1.00
C580   C     0.93719   0.09609   0.50122   0.00000  Uiso   1.00
C581   C     0.94329   0.15226   0.58509   0.00000  Uiso   1.00
C582   C     0.69100   0.19802   0.94992   0.00000  Uiso   1.00
C583   C     0.71464   0.20787   0.50682   0.00000  Uiso   1.00
C584   C     0.79879   0.16107   0.99490   0.00000  Uiso   1.00
C585   C     0.76865   0.19059   0.52921   0.00000  Uiso   1.00
C586   C     0.87409   0.25368   0.82065   0.00000  Uiso   1.00
C587   C     0.72568   0.33134   0.66058   0.00000  Uiso   1.00
C588   C     0.77040   0.14442   0.93975   0.00000  Uiso   1.00
C589   C     0.85630   0.14775   0.51334   0.00000  Uiso   1.00
C590   C     0.88089   0.11100   0.98113   0.00000  Uiso   1.00
C591   C     0.84849   0.08909   0.93006   0.00000  Uiso   1.00
C592   C     0.79385   0.10567   0.90943   0.00000  Uiso   1.00
C593   C     0.89043   0.17092   0.56270   0.00000  Uiso   1.00
C594   C     0.96789   0.11575   0.55403   0.00000  Uiso   1.00
H595   H     0.67587   0.10088   0.57150   0.00000  Uiso   1.00
H596   H     0.86861   0.27616   0.78231   0.00000  Uiso   1.00
H597   H     0.92021   0.24828   0.83841   0.00000  Uiso   1.00
H598   H     0.85750   0.27692   0.85297   0.00000  Uiso   1.00
H599   H     0.86575   0.05987   0.90558   0.00000  Uiso   1.00
H600   H     0.68801   0.01944   0.64097   0.00000  Uiso   1.00
H601   H     0.71887   0.28946   0.64547   0.00000  Uiso   1.00
H602   H     0.76451   0.01474   0.64640   0.00000  Uiso   1.00
H603   H     0.93881   0.33132   0.76102   0.00000  Uiso   1.00
H604   H     0.82220   0.12910   0.70370   0.00000  Uiso   1.00
H605   H     0.95625   0.06774   0.97732   0.00000  Uiso   1.00
H606   H     0.87560   0.20214   0.58630   0.00000  Uiso   1.00
H607   H     0.98457   0.21534   0.93219   0.00000  Uiso   1.00
H608   H     0.78508   0.19976   0.57362   0.00000  Uiso   1.00
H609   H     0.69212   0.23060   0.53325   0.00000  Uiso   1.00
H610   H     0.76987   0.08746   0.86975   0.00000  Uiso   1.00
N611   N     0.81160   0.15223   0.73542   0.00000  Uiso   1.00
N612   N     0.85507   0.18110   0.76457   0.00000  Uiso   1.00
O613   O     0.96435   0.24629   0.75357   0.00000  Uiso   1.00
O614   O     0.73588   0.00406   0.71991   0.00000  Uiso   1.00
O615   O     0.72408   0.23704   0.74423   0.00000  Uiso   1.00
O616   O     0.98157   0.17358   0.83380   0.00000  Uiso   1.00
O617   O     0.74130   0.16433   0.82446   0.00000  Uiso   1.00
O618   O     0.94258   0.09629   0.75576   0.00000  Uiso   1.00
O619   O     0.70231   0.08704   0.74642   0.00000  Uiso   1.00
O620   O     0.92537   0.16901   0.67554   0.00000  Uiso   1.00
O621   O     0.68510   0.15976   0.66620   0.00000  Uiso   1.00
O622   O     0.84114   0.20585   0.80971   0.00000  Uiso   1.00
Zn623  Zn    0.93786   0.17284   0.75623   0.00000  Uiso   1.00
Zn624  Zn    0.72881   0.16049   0.74376   0.00000  Uiso   1.00
C625   C     0.01407   0.59784   0.74644   0.00000  Uiso   1.00
C626   C     0.05317   0.50130   0.91588   0.00000  Uiso   1.00
C627   C     0.01981   0.65123   0.73743   0.00000  Uiso   1.00
C628   C     0.03540   0.50128   0.85507   0.00000  Uiso   1.00
C629   C     0.31120   0.34729   0.74893   0.00000  Uiso   1.00
C630   C     0.31836   0.40181   0.74966   0.00000  Uiso   1.00
C631   C     0.29743   0.49606   0.64491   0.00000  Uiso   1.00
C632   C     0.27052   0.42943   0.50122   0.00000  Uiso   1.00
C633   C     0.27662   0.48559   0.58509   0.00000  Uiso   1.00
C634   C     0.02433   0.53136   0.94992   0.00000  Uiso   1.00
C635   C     0.04797   0.54120   0.50682   0.00000  Uiso   1.00
C636   C     0.13212   0.49441   0.99490   0.00000  Uiso   1.00
C637   C     0.10198   0.52393   0.52921   0.00000  Uiso   1.00
C638   C     0.20742   0.58701   0.82065   0.00000  Uiso   1.00
C639   C     0.05902   0.66467   0.66058   0.00000  Uiso   1.00
C640   C     0.10373   0.47775   0.93975   0.00000  Uiso   1.00
C641   C     0.18963   0.48108   0.51334   0.00000  Uiso   1.00
C642   C     0.21423   0.44433   0.98113   0.00000  Uiso   1.00
C643   C     0.18182   0.42242   0.93006   0.00000  Uiso   1.00
C644   C     0.12718   0.43900   0.90943   0.00000  Uiso   1.00
C645   C     0.22376   0.50426   0.56270   0.00000  Uiso   1.00
C646   C     0.30122   0.44908   0.55403   0.00000  Uiso   1.00
H647   H     0.00920   0.43421   0.57150   0.00000  Uiso   1.00
H648   H     0.20194   0.60949   0.78231   0.00000  Uiso   1.00
H649   H     0.25355   0.58162   0.83841   0.00000  Uiso   1.00
H650   H     0.19083   0.61025   0.85297   0.00000  Uiso   1.00
H651   H     0.19909   0.39320   0.90558   0.00000  Uiso   1.00
H652   H     0.02134   0.35278   0.64097   0.00000  Uiso   1.00
H653   H     0.05221   0.62279   0.64547   0.00000  Uiso   1.00
H654   H     0.09784   0.34807   0.64640   0.00000  Uiso   1.00
H655   H     0.27215   0.66465   0.76102   0.00000  Uiso   1.00
H656   H     0.15553   0.46243   0.70370   0.00000  Uiso   1.00
H657   H     0.28958   0.40107   0.97732   0.00000  Uiso   1.00
H658   H     0.20894   0.53547   0.58630   0.00000  Uiso   1.00
H659   H     0.31790   0.54867   0.93219   0.00000  Uiso   1.00
H660   H     0.11841   0.53310   0.57362   0.00000  Uiso   1.00
H661   H     0.02546   0.56393   0.53325   0.00000  Uiso   1.00
H662   H     0.10321   0.42079   0.86975   0.00000  Uiso   1.00
N663   N     0.14493   0.48556   0.73542   0.00000  Uiso   1.00
N664   N     0.18840   0.51444   0.76457   0.00000  Uiso   1.00
O665   O     0.29769   0.57963   0.75357   0.00000  Uiso   1.00
O666   O     0.06921   0.33739   0.71991   0.00000  Uiso   1.00
O667   O     0.05742   0.57038   0.74423   0.00000  Uiso   1.00
O668   O     0.31490   0.50691   0.83380   0.00000  Uiso   1.00
O669   O     0.07463   0.49766   0.82446   0.00000  Uiso   1.00
O670   O     0.27592   0.42962   0.75576   0.00000  Uiso   1.00
O671   O     0.03565   0.42037   0.74642   0.00000  Uiso   1.00
O672   O     0.25870   0.50234   0.67554   0.00000  Uiso   1.00
O673   O     0.01843   0.49309   0.66620   0.00000  Uiso   1.00
O674   O     0.17448   0.53919   0.80971   0.00000  Uiso   1.00
Zn675  Zn    0.27119   0.50618   0.75623   0.00000  Uiso   1.00
Zn676  Zn    0.06214   0.49382   0.74376   0.00000  Uiso   1.00
C677   C     0.34740   0.59784   0.74644   0.00000  Uiso   1.00
C678   C     0.38650   0.50130   0.91588   0.00000  Uiso   1.00
C679   C     0.35314   0.65123   0.73743   0.00000  Uiso   1.00
C680   C     0.36873   0.50128   0.85507   0.00000  Uiso   1.00
C681   C     0.64453   0.34729   0.74893   0.00000  Uiso   1.00
C682   C     0.65170   0.40181   0.74966   0.00000  Uiso   1.00
C683   C     0.63076   0.49606   0.64491   0.00000  Uiso   1.00
C684   C     0.60386   0.42943   0.50122   0.00000  Uiso   1.00
C685   C     0.60996   0.48559   0.58509   0.00000  Uiso   1.00
C686   C     0.35766   0.53136   0.94992   0.00000  Uiso   1.00
C687   C     0.38131   0.54120   0.50682   0.00000  Uiso   1.00
C688   C     0.46546   0.49441   0.99490   0.00000  Uiso   1.00
C689   C     0.43531   0.52393   0.52921   0.00000  Uiso   1.00
C690   C     0.54076   0.58701   0.82065   0.00000  Uiso   1.00
C691   C     0.39235   0.66467   0.66058   0.00000  Uiso   1.00
C692   C     0.43706   0.47775   0.93975   0.00000  Uiso   1.00
C693   C     0.52297   0.48108   0.51334   0.00000  Uiso   1.00
C694   C     0.54756   0.44433   0.98113   0.00000  Uiso   1.00
C695   C     0.51516   0.42242   0.93006   0.00000  Uiso   1.00
C696   C     0.46051   0.43900   0.90943   0.00000  Uiso   1.00
C697   C     0.55709   0.50426   0.56270   0.00000  Uiso   1.00
C698   C     0.63455   0.44908   0.55403   0.00000  Uiso   1.00
H699   H     0.34253   0.43421   0.57150   0.00000  Uiso   1.00
H700   H     0.53527   0.60949   0.78231   0.00000  Uiso   1.00
H701   H     0.58688   0.58162   0.83841   0.00000  Uiso   1.00
H702   H     0.52417   0.61025   0.85297   0.00000  Uiso   1.00
H703   H     0.53242   0.39320   0.90558   0.00000  Uiso   1.00
H704   H     0.35468   0.35278   0.64097   0.00000  Uiso   1.00
H705   H     0.38554   0.62279   0.64547   0.00000  Uiso   1.00
H706   H     0.43118   0.34807   0.64640   0.00000  Uiso   1.00
H707   H     0.60548   0.66465   0.76102   0.00000  Uiso   1.00
H708   H     0.48887   0.46243   0.70370   0.00000  Uiso   1.00
H709   H     0.62292   0.40107   0.97732   0.00000  Uiso   1.00
H710   H     0.54227   0.53547   0.58630   0.00000  Uiso   1.00
H711   H     0.65123   0.54867   0.93219   0.00000  Uiso   1.00
H712   H     0.45174   0.53310   0.57362   0.00000  Uiso   1.00
H713   H     0.35879   0.56393   0.53325   0.00000  Uiso   1.00
H714   H     0.43654   0.42079   0.86975   0.00000  Uiso   1.00
N715   N     0.47827   0.48556   0.73542   0.00000  Uiso   1.00
N716   N     0.52173   0.51444   0.76457   0.00000  Uiso   1.00
O717   O     0.63102   0.57963   0.75357   0.00000  Uiso   1.00
O718   O     0.40255   0.33739   0.71991   0.00000  Uiso   1.00
O719   O     0.39075   0.57038   0.74423   0.00000  Uiso   1.00
O720   O     0.64823   0.50691   0.83380   0.00000  Uiso   1.00
O721   O     0.40796   0.49766   0.82446   0.00000  Uiso   1.00
O722   O     0.60925   0.42962   0.75576   0.00000  Uiso   1.00
O723   O     0.36898   0.42037   0.74642   0.00000  Uiso   1.00
O724   O     0.59204   0.50234   0.67554   0.00000  Uiso   1.00
O725   O     0.35177   0.49309   0.66620   0.00000  Uiso   1.00
O726   O     0.50781   0.53919   0.80971   0.00000  Uiso   1.00
Zn727  Zn    0.60453   0.50618   0.75623   0.00000  Uiso   1.00
Zn728  Zn    0.39547   0.49382   0.74376   0.00000  Uiso   1.00
C729   C     0.68074   0.59784   0.74644   0.00000  Uiso   1.00
C730   C     0.71983   0.50130   0.91588   0.00000  Uiso   1.00
C731   C     0.68647   0.65123   0.73743   0.00000  Uiso   1.00
C732   C     0.70206   0.50128   0.85507   0.00000  Uiso   1.00
C733   C     0.97786   0.34729   0.74893   0.00000  Uiso   1.00
C734   C     0.98503   0.40181   0.74966   0.00000  Uiso   1.00
C735   C     0.96410   0.49606   0.64491   0.00000  Uiso   1.00
C736   C     0.93719   0.42943   0.50122   0.00000  Uiso   1.00
C737   C     0.94329   0.48559   0.58509   0.00000  Uiso   1.00
C738   C     0.69100   0.53136   0.94992   0.00000  Uiso   1.00
C739   C     0.71464   0.54120   0.50682   0.00000  Uiso   1.00
C740   C     0.79879   0.49441   0.99490   0.00000  Uiso   1.00
C741   C     0.76865   0.52393   0.52921   0.00000  Uiso   1.00
C742   C     0.87409   0.58701   0.82065   0.00000  Uiso   1.00
C743   C     0.72568   0.66467   0.66058   0.00000  Uiso   1.00
C744   C     0.77040   0.47775   0.93975   0.00000  Uiso   1.00
C745   C     0.85630   0.48108   0.51334   0.00000  Uiso   1.00
C746   C     0.88089   0.44433   0.98113   0.00000  Uiso   1.00
C747   C     0.84849   0.42242   0.93006   0.00000  Uiso   1.00
C748   C     0.79385   0.43900   0.90943   0.00000  Uiso   1.00
C749   C     0.89043   0.50426   0.56270   0.00000  Uiso   1.00
C750   C     0.96789   0.44908   0.55403   0.00000  Uiso   1.00
H751   H     0.67587   0.43421   0.57150   0.00000  Uiso   1.00
H752   H     0.86861   0.60949   0.78231   0.00000  Uiso   1.00
H753   H     0.92021   0.58162   0.83841   0.00000  Uiso   1.00
H754   H     0.85750   0.61025   0.85297   0.00000  Uiso   1.00
H755   H     0.86575   0.39320   0.90558   0.00000  Uiso   1.00
H756   H     0.68801   0.35278   0.64097   0.00000  Uiso   1.00
H757   H     0.71887   0.62279   0.64547   0.00000  Uiso   1.00
H758   H     0.76451   0.34807   0.64640   0.00000  Uiso   1.00
H759   H     0.93881   0.66465   0.76102   0.00000  Uiso   1.00
H760   H     0.82220   0.46243   0.70370   0.00000  Uiso   1.00
H761   H     0.95625   0.40107   0.97732   0.00000  Uiso   1.00
H762   H     0.87560   0.53547   0.58630   0.00000  Uiso   1.00
H763   H     0.98457   0.54867   0.93219   0.00000  Uiso   1.00
H764   H     0.78508   0.53310   0.57362   0.00000  Uiso   1.00
H765   H     0.69212   0.56393   0.53325   0.00000  Uiso   1.00
H766   H     0.76987   0.42079   0.86975   0.00000  Uiso   1.00
N767   N     0.81160   0.48556   0.73542   0.00000  Uiso   1.00
N768   N     0.85507   0.51444   0.76457   0.00000  Uiso   1.00
O769   O     0.96435   0.57963   0.75357   0.00000  Uiso   1.00
O770   O     0.73588   0.33739   0.71991   0.00000  Uiso   1.00
O771   O     0.72408   0.57038   0.74423   0.00000  Uiso   1.00
O772   O     0.98157   0.50691   0.83380   0.00000  Uiso   1.00
O773   O     0.74130   0.49766   0.82446   0.00000  Uiso   1.00
O774   O     0.94258   0.42962   0.75576   0.00000  Uiso   1.00
O775   O     0.70231   0.42037   0.74642   0.00000  Uiso   1.00
O776   O     0.92537   0.50234   0.67554   0.00000  Uiso   1.00
O777   O     0.68510   0.49309   0.66620   0.00000  Uiso   1.00
O778   O     0.84114   0.53919   0.80971   0.00000  Uiso   1.00
Zn779  Zn    0.93786   0.50618   0.75623   0.00000  Uiso   1.00
Zn780  Zn    0.72881   0.49382   0.74376   0.00000  Uiso   1.00
C781   C     0.01407   0.93117   0.74644   0.00000  Uiso   1.00
C782   C     0.05317   0.83464   0.91588   0.00000  Uiso   1.00
C783   C     0.01981   0.98457   0.73743   0.00000  Uiso   1.00
C784   C     0.03540   0.83461   0.85507   0.00000  Uiso   1.00
C785   C     0.31120   0.68062   0.74893   0.00000  Uiso   1.00
C786   C     0.31836   0.73514   0.74966   0.00000  Uiso   1.00
C787   C     0.29743   0.82940   0.64491   0.00000  Uiso   1.00
C788   C     0.27052   0.76276   0.50122   0.00000  Uiso   1.00
C789   C     0.27662   0.81893   0.58509   0.00000  Uiso   1.00
C790   C     0.02433   0.86469   0.94992   0.00000  Uiso   1.00
C791   C     0.04797   0.87453   0.50682   0.00000  Uiso   1.00
C792   C     0.13212   0.82774   0.99490   0.00000  Uiso   1.00
C793   C     0.10198   0.85726   0.52921   0.00000  Uiso   1.00
C794   C     0.20742   0.92034   0.82065   0.00000  Uiso   1.00
C795   C     0.05902   0.99801   0.66058   0.00000  Uiso   1.00
C796   C     0.10373   0.81108   0.93975   0.00000  Uiso   1.00
C797   C     0.18963   0.81441   0.51334   0.00000  Uiso   1.00
C798   C     0.21423   0.77767   0.98113   0.00000  Uiso   1.00
C799   C     0.18182   0.75576   0.93006   0.00000  Uiso   1.00
C800   C     0.12718   0.77234   0.90943   0.00000  Uiso   1.00
C801   C     0.22376   0.83759   0.56270   0.00000  Uiso   1.00
C802   C     0.30122   0.78242   0.55403   0.00000  Uiso   1.00
H803   H     0.00920   0.76754   0.57150   0.00000  Uiso   1.00
H804   H     0.20194   0.94282   0.78231   0.00000  Uiso   1.00
H805   H     0.25355   0.91495   0.83841   0.00000  Uiso   1.00
H806   H     0.19083   0.94359   0.85297   0.00000  Uiso   1.00
H807   H     0.19909   0.72654   0.90558   0.00000  Uiso   1.00
H808   H     0.02134   0.68611   0.64097   0.00000  Uiso   1.00
H809   H     0.05221   0.95613   0.64547   0.00000  Uiso   1.00
H810   H     0.09784   0.68140   0.64640   0.00000  Uiso   1.00
H811   H     0.27215   0.99798   0.76102   0.00000  Uiso   1.00
H812   H     0.15553   0.79577   0.70370   0.00000  Uiso   1.00
H813   H     0.28958   0.73440   0.97732   0.00000  Uiso   1.00
H814   H     0.20894   0.86880   0.58630   0.00000  Uiso   1.00
H815   H     0.31790   0.88200   0.93219   0.00000  Uiso   1.00
H816   H     0.11841   0.86643   0.57362   0.00000  Uiso   1.00
H817   H     0.02546   0.89727   0.53325   0.00000  Uiso   1.00
H818   H     0.10321   0.75413   0.86975   0.00000  Uiso   1.00
N819   N     0.14493   0.81890   0.73542   0.00000  Uiso   1.00
N820   N     0.18840   0.84777   0.76457   0.00000  Uiso   1.00
O821   O     0.29769   0.91296   0.75357   0.00000  Uiso   1.00
O822   O     0.06921   0.67072   0.71991   0.00000  Uiso   1.00
O823   O     0.05742   0.90371   0.74423   0.00000  Uiso   1.00
O824   O     0.31490   0.84024   0.83380   0.00000  Uiso   1.00
O825   O     0.07463   0.83099   0.82446   0.00000  Uiso   1.00
O826   O     0.27592   0.76296   0.75576   0.00000  Uiso   1.00
O827   O     0.03565   0.75371   0.74642   0.00000  Uiso   1.00
O828   O     0.25870   0.83567   0.67554   0.00000  Uiso   1.00
O829   O     0.01843   0.82642   0.66620   0.00000  Uiso   1.00
O830   O     0.17448   0.87252   0.80971   0.00000  Uiso   1.00
Zn831  Zn    0.27119   0.83951   0.75623   0.00000  Uiso   1.00
Zn832  Zn    0.06214   0.82716   0.74376   0.00000  Uiso   1.00
C833   C     0.34740   0.93117   0.74644   0.00000  Uiso   1.00
C834   C     0.38650   0.83464   0.91588   0.00000  Uiso   1.00
C835   C     0.35314   0.98457   0.73743   0.00000  Uiso   1.00
C836   C     0.36873   0.83461   0.85507   0.00000  Uiso   1.00
C837   C     0.64453   0.68062   0.74893   0.00000  Uiso   1.00
C838   C     0.65170   0.73514   0.74966   0.00000  Uiso   1.00
C839   C     0.63076   0.82940   0.64491   0.00000  Uiso   1.00
C840   C     0.60386   0.76276   0.50122   0.00000  Uiso   1.00
C841   C     0.60996   0.81893   0.58509   0.00000  Uiso   1.00
C842   C     0.35766   0.86469   0.94992   0.00000  Uiso   1.00
C843   C     0.38131   0.87453   0.50682   0.00000  Uiso   1.00
C844   C     0.46546   0.82774   0.99490   0.00000  Uiso   1.00
C845   C     0.43531   0.85726   0.52921   0.00000  Uiso   1.00
C846   C     0.54076   0.92034   0.82065   0.00000  Uiso   1.00
C847   C     0.39235   0.99801   0.66058   0.00000  Uiso   1.00
C848   C     0.43706   0.81108   0.93975   0.00000  Uiso   1.00
C849   C     0.52297   0.81441   0.51334   0.00000  Uiso   1.00
C850   C     0.54756   0.77767   0.98113   0.00000  Uiso   1.00
C851   C     0.51516   0.75576   0.93006   0.00000  Uiso   1.00
C852   C     0.46051   0.77234   0.90943   0.00000  Uiso   1.00
C853   C     0.55709   0.83759   0.56270   0.00000  Uiso   1.00
C854   C     0.63455   0.78242   0.55403   0.00000  Uiso   1.00
H855   H     0.34253   0.76754   0.57150   0.00000  Uiso   1.00
H856   H     0.53527   0.94282   0.78231   0.00000  Uiso   1.00
H857   H     0.58688   0.91495   0.83841   0.00000  Uiso   1.00
H858   H     0.52417   0.94359   0.85297   0.00000  Uiso   1.00
H859   H     0.53242   0.72654   0.90558   0.00000  Uiso   1.00
H860   H     0.35468   0.68611   0.64097   0.00000  Uiso   1.00
H861   H     0.38554   0.95613   0.64547   0.00000  Uiso   1.00
H862   H     0.43118   0.68140   0.64640   0.00000  Uiso   1.00
H863   H     0.60548   0.99798   0.76102   0.00000  Uiso   1.00
H864   H     0.48887   0.79577   0.70370   0.00000  Uiso   1.00
H865   H     0.62292   0.73440   0.97732   0.00000  Uiso   1.00
H866   H     0.54227   0.86880   0.58630   0.00000  Uiso   1.00
H867   H     0.65123   0.88200   0.93219   0.00000  Uiso   1.00
H868   H     0.45174   0.86643   0.57362   0.00000  Uiso   1.00
H869   H     0.35879   0.89727   0.53325   0.00000  Uiso   1.00
H870   H     0.43654   0.75413   0.86975   0.00000  Uiso   1.00
N871   N     0.47827   0.81890   0.73542   0.00000  Uiso   1.00
N872   N     0.52173   0.84777   0.76457   0.00000  Uiso   1.00
O873   O     0.63102   0.91296   0.75357   0.00000  Uiso   1.00
O874   O     0.40255   0.67072   0.71991   0.00000  Uiso   1.00
O875   O     0.39075   0.90371   0.74423   0.00000  Uiso   1.00
O876   O     0.64823   0.84024   0.83380   0.00000  Uiso   1.00
O877   O     0.40796   0.83099   0.82446   0.00000  Uiso   1.00
O878   O     0.60925   0.76296   0.75576   0.00000  Uiso   1.00
O879   O     0.36898   0.75371   0.74642   0.00000  Uiso   1.00
O880   O     0.59204   0.83567   0.67554   0.00000  Uiso   1.00
O881   O     0.35177   0.82642   0.66620   0.00000  Uiso   1.00
O882   O     0.50781   0.87252   0.80971   0.00000  Uiso   1.00
Zn883  Zn    0.60453   0.83951   0.75623   0.00000  Uiso   1.00
Zn884  Zn    0.39547   0.82716   0.74376   0.00000  Uiso   1.00
C885   C     0.68074   0.93117   0.74644   0.00000  Uiso   1.00
C886   C     0.71983   0.83464   0.91588   0.00000  Uiso   1.00
C887   C     0.68647   0.98457   0.73743   0.00000  Uiso   1.00
C888   C     0.70206   0.83461   0.85507   0.00000  Uiso   1.00
C889   C     0.97786   0.68062   0.74893   0.00000  Uiso   1.00
C890   C     0.98503   0.73514   0.74966   0.00000  Uiso   1.00
C891   C     0.96410   0.82940   0.64491   0.00000  Uiso   1.00
C892   C     0.93719   0.76276   0.50122   0.00000  Uiso   1.00
C893   C     0.94329   0.81893   0.58509   0.00000  Uiso   1.00
C894   C     0.69100   0.86469   0.94992   0.00000  Uiso   1.00
C895   C     0.71464   0.87453   0.50682   0.00000  Uiso   1.00
C896   C     0.79879   0.82774   0.99490   0.00000  Uiso   1.00
C897   C     0.76865   0.85726   0.52921   0.00000  Uiso   1.00
C898   C     0.87409   0.92034   0.82065   0.00000  Uiso   1.00
C899   C     0.72568   0.99801   0.66058   0.00000  Uiso   1.00
C900   C     0.77040   0.81108   0.93975   0.00000  Uiso   1.00
C901   C     0.85630   0.81441   0.51334   0.00000  Uiso   1.00
C902   C     0.88089   0.77767   0.98113   0.00000  Uiso   1.00
C903   C     0.84849   0.75576   0.93006   0.00000  Uiso   1.00
C904   C     0.79385   0.77234   0.90943   0.00000  Uiso   1.00
C905   C     0.89043   0.83759   0.56270   0.00000  Uiso   1.00
C906   C     0.96789   0.78242   0.55403   0.00000  Uiso   1.00
H907   H     0.67587   0.76754   0.57150   0.00000  Uiso   1.00
H908   H     0.86861   0.94282   0.78231   0.00000  Uiso   1.00
H909   H     0.92021   0.91495   0.83841   0.00000  Uiso   1.00
H910   H     0.85750   0.94359   0.85297   0.00000  Uiso   1.00
H911   H     0.86575   0.72654   0.90558   0.00000  Uiso   1.00
H912   H     0.68801   0.68611   0.64097   0.00000  Uiso   1.00
H913   H     0.71887   0.95613   0.64547   0.00000  Uiso   1.00
H914   H     0.76451   0.68140   0.64640   0.00000  Uiso   1.00
H915   H     0.93881   0.99798   0.76102   0.00000  Uiso   1.00
H916   H     0.82220   0.79577   0.70370   0.00000  Uiso   1.00
H917   H     0.95625   0.73440   0.97732   0.00000  Uiso   1.00
H918   H     0.87560   0.86880   0.58630   0.00000  Uiso   1.00
H919   H     0.98457   0.88200   0.93219   0.00000  Uiso   1.00
H920   H     0.78508   0.86643   0.57362   0.00000  Uiso   1.00
H921   H     0.69212   0.89727   0.53325   0.00000  Uiso   1.00
H922   H     0.76987   0.75413   0.86975   0.00000  Uiso   1.00
N923   N     0.81160   0.81890   0.73542   0.00000  Uiso   1.00
N924   N     0.85507   0.84777   0.76457   0.00000  Uiso   1.00
O925   O     0.96435   0.91296   0.75357   0.00000  Uiso   1.00
O926   O     0.73588   0.67072   0.71991   0.00000  Uiso   1.00
O927   O     0.72408   0.90371   0.74423   0.00000  Uiso   1.00
O928   O     0.98157   0.84024   0.83380   0.00000  Uiso   1.00
O929   O     0.74130   0.83099   0.82446   0.00000  Uiso   1.00
O930   O     0.94258   0.76296   0.75576   0.00000  Uiso   1.00
O931   O     0.70231   0.75371   0.74642   0.00000  Uiso   1.00
O932   O     0.92537   0.83567   0.67554   0.00000  Uiso   1.00
O933   O     0.68510   0.82642   0.66620   0.00000  Uiso   1.00
O934   O     0.84114   0.87252   0.80971   0.00000  Uiso   1.00
Zn935  Zn    0.93786   0.83951   0.75623   0.00000  Uiso   1.00
Zn936  Zn    0.72881   0.82716   0.74376   0.00000  Uiso   1.00
loop_
_geom_bond_atom_site_label_1
_geom_bond_atom_site_label_2
_geom_bond_distance
_geom_bond_site_symmetry_2
_ccdc_geom_bond_type
C1     O43     1.287   .     A
C1     C3      1.406   .     S
C1     O145    1.281   1_455 S
C2     C4      1.452   .     S
C2     C16     1.405   .     A
C2     C10     1.403   .     A
C3     C265    1.346   1_455 S
C3     O198    1.390   .     S
C4     O45     1.300   .     A
C4     O148    1.291   1_455 S
C5     C6      1.403   .     S
C5     C367    1.346   1_545 S
C5     H343    1.083   1_545 S
C6     O46     1.294   .     A
C6     O99     1.275   .     S
C7     O48     1.299   .     A
C7     C9      1.443   .     S
C7     O101    1.290   .     S
C8     C22     1.393   .     A
C8     C486    1.404   1_554 S
C8     H501    1.084   1_554 S
C9     C21     1.382   .     A
C9     C22     1.400   .     A
C10    C479    1.387   .     S
C10    H139    1.083   1_455 S
C11    C13     1.390   .     A
C11    H37     1.083   .     S
C11    C478    1.387   1_554 S
C12    C16     1.405   .     A
C12    C481    1.420   .     S
C12    C485    1.410   .     S
C13    H36     1.079   .     S
C13    C480    1.420   1_554 S
C14    H26     1.109   .     S
C14    O50     1.398   .     S
C14    H25     1.107   .     S
C14    H24     1.111   .     S
C15    H29     1.114   .     S
C15    H184    1.114   .     S
C15    H186    1.109   .     S
C15    O198    1.411   .     S
C16    C20     1.415   .     A
C17    C21     1.386   .     A
C17    C480    1.410   1_554 S
C17    C486    1.421   1_554 S
C18    C19     1.392   .     A
C18    C476    1.404   .     S
C18    C485    1.421   .     S
C19    C20     1.387   .     A
C19    H27     1.084   .     S
C20    H38     1.082   .     S
C21    H34     1.080   .     S
C22    H75     1.083   .     S
H23    C126    1.083   1_455 S
H28    C327    1.114   1_545 S
H30    C327    1.109   1_545 S
H31    C161    1.083   .     S
H32    N39     1.029   .     S
H33    C476    1.084   .     S
H35    C62     1.083   .     S
N39    N40     1.290   .     D
N39    Zn52    2.024   .     S
N40    Zn51    2.024   .     S
N40    O50     1.347   .     S
O41    Zn51    1.963   .     S
O41    C53     1.281   .     S
O42    C327    1.411   1_545 S
O42    C315    1.390   1_545 S
O43    Zn52    1.983   .     S
O44    Zn51    1.956   .     S
O44    C56     1.291   .     S
O45    Zn52    1.918   .     S
O46    Zn51    1.983   .     S
O47    Zn52    1.963   .     S
O47    C110    1.275   1_455 S
O48    Zn51    1.918   .     S
O49    Zn52    1.956   .     S
O49    C111    1.290   1_455 S
C53    O95     1.287   .     A
C53    C55     1.406   .     S
C54    C56     1.452   .     S
C54    C68     1.405   .     A
C54    C62     1.403   .     A
C55    C161    1.346   .     S
C55    O250    1.390   .     S
C56    O97     1.300   .     A
C57    C58     1.403   .     S
C57    C419    1.346   1_545 S
C57    H395    1.083   1_545 S
C58    O98     1.294   .     A
C58    O151    1.275   .     S
C59    O100    1.299   .     A
C59    C61     1.443   .     S
C59    O153    1.290   .     S
C60    C74     1.393   .     A
C60    C538    1.404   1_554 S
C60    H553    1.084   1_554 S
C61    C73     1.382   .     A
C61    C74     1.400   .     A
C62    C531    1.387   .     S
C63    C65     1.390   .     A
C63    H89     1.083   .     S
C63    C530    1.387   1_554 S
C64    C68     1.405   .     A
C64    C533    1.420   .     S
C64    C537    1.410   .     S
C65    H88     1.079   .     S
C65    C532    1.420   1_554 S
C66    H78     1.109   .     S
C66    O102    1.398   .     S
C66    H77     1.107   .     S
C66    H76     1.111   .     S
C67    H81     1.114   .     S
C67    H236    1.114   .     S
C67    H238    1.109   .     S
C67    O250    1.411   .     S
C68    C72     1.415   .     A
C69    C73     1.386   .     A
C69    C532    1.410   1_554 S
C69    C538    1.421   1_554 S
C70    C71     1.392   .     A
C70    C528    1.404   .     S
C70    C537    1.421   .     S
C71    C72     1.387   .     A
C71    H79     1.084   .     S
C72    H90     1.082   .     S
C73    H86     1.080   .     S
C74    H127    1.083   .     S
H80    C379    1.114   1_545 S
H82    C379    1.109   1_545 S
H83    C213    1.083   .     S
H84    N91     1.029   .     S
H85    C528    1.084   .     S
H87    C114    1.083   .     S
N91    N92     1.290   .     D
N91    Zn104   2.024   .     S
N92    Zn103   2.024   .     S
N92    O102    1.347   .     S
O93    Zn103   1.963   .     S
O93    C105    1.281   .     S
O94    C379    1.411   1_545 S
O94    C367    1.390   1_545 S
O95    Zn104   1.983   .     S
O96    Zn103   1.956   .     S
O96    C108    1.291   .     S
O97    Zn104   1.918   .     S
O98    Zn103   1.983   .     S
O99    Zn104   1.963   .     S
O100   Zn103   1.918   .     S
O101   Zn104   1.956   .     S
C105   O147    1.287   .     A
C105   C107    1.406   .     S
C106   C108    1.452   .     S
C106   C120    1.405   .     A
C106   C114    1.403   .     A
C107   C213    1.346   .     S
C107   O302    1.390   .     S
C108   O149    1.300   .     A
C109   C110    1.403   .     S
C109   C315    1.346   1_645 S
C109   H447    1.083   1_545 S
C110   O150    1.294   .     A
C110   O47     1.275   1_655 S
C111   O152    1.299   .     A
C111   C113    1.443   .     S
C111   O49     1.290   1_655 S
C112   C126    1.393   .     A
C112   C590    1.404   1_554 S
C112   H605    1.084   1_554 S
C113   C125    1.382   .     A
C113   C126    1.400   .     A
C114   C583    1.387   .     S
C115   C117    1.390   .     A
C115   H141    1.083   .     S
C115   C582    1.387   1_554 S
C116   C120    1.405   .     A
C116   C585    1.420   .     S
C116   C589    1.410   .     S
C117   H140    1.079   .     S
C117   C584    1.420   1_554 S
C118   H130    1.109   .     S
C118   O154    1.398   .     S
C118   H129    1.107   .     S
C118   H128    1.111   .     S
C119   H133    1.114   .     S
C119   H288    1.114   .     S
C119   H290    1.109   .     S
C119   O302    1.411   .     S
C120   C124    1.415   .     A
C121   C125    1.386   .     A
C121   C584    1.410   1_554 S
C121   C590    1.421   1_554 S
C122   C123    1.392   .     A
C122   C580    1.404   .     S
C122   C589    1.421   .     S
C123   C124    1.387   .     A
C123   H131    1.084   .     S
C124   H142    1.082   .     S
C125   H138    1.080   .     S
C126   H23     1.083   1_655 S
H132   C431    1.114   1_545 S
H134   C431    1.109   1_545 S
H135   C265    1.083   .     S
H136   N143    1.029   .     S
H137   C580    1.084   .     S
H139   C10     1.083   1_655 S
N143   N144    1.290   .     D
N143   Zn156   2.024   .     S
N144   Zn155   2.024   .     S
N144   O154    1.347   .     S
O145   Zn155   1.963   .     S
O145   C1      1.281   1_655 S
O146   C431    1.411   1_545 S
O146   C419    1.390   1_545 S
O147   Zn156   1.983   .     S
O148   Zn155   1.956   .     S
O148   C4      1.291   1_655 S
O149   Zn156   1.918   .     S
O150   Zn155   1.983   .     S
O151   Zn156   1.963   .     S
O152   Zn155   1.918   .     S
O153   Zn156   1.956   .     S
C157   O199    1.287   .     A
C157   C159    1.406   .     S
C157   O301    1.281   1_455 S
C158   C160    1.452   .     S
C158   C172    1.405   .     A
C158   C166    1.403   .     A
C159   C421    1.346   1_455 S
C159   O354    1.390   .     S
C160   O201    1.300   .     A
C160   O304    1.291   1_455 S
C161   C162    1.403   .     S
C162   O202    1.294   .     A
C162   O255    1.275   .     S
C163   O204    1.299   .     A
C163   C165    1.443   .     S
C163   O257    1.290   .     S
C164   C178    1.393   .     A
C164   C642    1.404   1_554 S
C164   H657    1.084   1_554 S
C165   C177    1.382   .     A
C165   C178    1.400   .     A
C166   C635    1.387   .     S
C166   H295    1.083   1_455 S
C167   C169    1.390   .     A
C167   H193    1.083   .     S
C167   C634    1.387   1_554 S
C168   C172    1.405   .     A
C168   C637    1.420   .     S
C168   C641    1.410   .     S
C169   H192    1.079   .     S
C169   C636    1.420   1_554 S
C170   H182    1.109   .     S
C170   O206    1.398   .     S
C170   H181    1.107   .     S
C170   H180    1.111   .     S
C171   H185    1.114   .     S
C171   H340    1.114   .     S
C171   H342    1.109   .     S
C171   O354    1.411   .     S
C172   C176    1.415   .     A
C173   C177    1.386   .     A
C173   C636    1.410   1_554 S
C173   C642    1.421   1_554 S
C174   C175    1.392   .     A
C174   C632    1.404   .     S
C174   C641    1.421   .     S
C175   C176    1.387   .     A
C175   H183    1.084   .     S
C176   H194    1.082   .     S
C177   H190    1.080   .     S
C178   H231    1.083   .     S
H179   C282    1.083   1_455 S
H187   C317    1.083   .     S
H188   N195    1.029   .     S
H189   C632    1.084   .     S
H191   C218    1.083   .     S
N195   N196    1.290   .     D
N195   Zn208   2.024   .     S
N196   Zn207   2.024   .     S
N196   O206    1.347   .     S
O197   Zn207   1.963   .     S
O197   C209    1.281   .     S
O199   Zn208   1.983   .     S
O200   Zn207   1.956   .     S
O200   C212    1.291   .     S
O201   Zn208   1.918   .     S
O202   Zn207   1.983   .     S
O203   Zn208   1.963   .     S
O203   C266    1.275   1_455 S
O204   Zn207   1.918   .     S
O205   Zn208   1.956   .     S
O205   C267    1.290   1_455 S
C209   O251    1.287   .     A
C209   C211    1.406   .     S
C210   C212    1.452   .     S
C210   C224    1.405   .     A
C210   C218    1.403   .     A
C211   C317    1.346   .     S
C211   O406    1.390   .     S
C212   O253    1.300   .     A
C213   C214    1.403   .     S
C214   O254    1.294   .     A
C214   O307    1.275   .     S
C215   O256    1.299   .     A
C215   C217    1.443   .     S
C215   O309    1.290   .     S
C216   C230    1.393   .     A
C216   C694    1.404   1_554 S
C216   H709    1.084   1_554 S
C217   C229    1.382   .     A
C217   C230    1.400   .     A
C218   C687    1.387   .     S
C219   C221    1.390   .     A
C219   H245    1.083   .     S
C219   C686    1.387   1_554 S
C220   C224    1.405   .     A
C220   C689    1.420   .     S
C220   C693    1.410   .     S
C221   H244    1.079   .     S
C221   C688    1.420   1_554 S
C222   H234    1.109   .     S
C222   O258    1.398   .     S
C222   H233    1.107   .     S
C222   H232    1.111   .     S
C223   H237    1.114   .     S
C223   H392    1.114   .     S
C223   H394    1.109   .     S
C223   O406    1.411   .     S
C224   C228    1.415   .     A
C225   C229    1.386   .     A
C225   C688    1.410   1_554 S
C225   C694    1.421   1_554 S
C226   C227    1.392   .     A
C226   C684    1.404   .     S
C226   C693    1.421   .     S
C227   C228    1.387   .     A
C227   H235    1.084   .     S
C228   H246    1.082   .     S
C229   H242    1.080   .     S
C230   H283    1.083   .     S
H239   C369    1.083   .     S
H240   N247    1.029   .     S
H241   C684    1.084   .     S
H243   C270    1.083   .     S
N247   N248    1.290   .     D
N247   Zn260   2.024   .     S
N248   Zn259   2.024   .     S
N248   O258    1.347   .     S
O249   Zn259   1.963   .     S
O249   C261    1.281   .     S
O251   Zn260   1.983   .     S
O252   Zn259   1.956   .     S
O252   C264    1.291   .     S
O253   Zn260   1.918   .     S
O254   Zn259   1.983   .     S
O255   Zn260   1.963   .     S
O256   Zn259   1.918   .     S
O257   Zn260   1.956   .     S
C261   O303    1.287   .     A
C261   C263    1.406   .     S
C262   C264    1.452   .     S
C262   C276    1.405   .     A
C262   C270    1.403   .     A
C263   C369    1.346   .     S
C263   O458    1.390   .     S
C264   O305    1.300   .     A
C265   C266    1.403   .     S
C265   C3      1.346   1_655 S
C266   O306    1.294   .     A
C266   O203    1.275   1_655 S
C267   O308    1.299   .     A
C267   C269    1.443   .     S
C267   O205    1.290   1_655 S
C268   C282    1.393   .     A
C268   C746    1.404   1_554 S
C268   H761    1.084   1_554 S
C269   C281    1.382   .     A
C269   C282    1.400   .     A
C270   C739    1.387   .     S
C271   C273    1.390   .     A
C271   H297    1.083   .     S
C271   C738    1.387   1_554 S
C272   C276    1.405   .     A
C272   C741    1.420   .     S
C272   C745    1.410   .     S
C273   H296    1.079   .     S
C273   C740    1.420   1_554 S
C274   H286    1.109   .     S
C274   O310    1.398   .     S
C274   H285    1.107   .     S
C274   H284    1.111   .     S
C275   H289    1.114   .     S
C275   H444    1.114   .     S
C275   H446    1.109   .     S
C275   O458    1.411   .     S
C276   C280    1.415   .     A
C277   C281    1.386   .     A
C277   C740    1.410   1_554 S
C277   C746    1.421   1_554 S
C278   C279    1.392   .     A
C278   C736    1.404   .     S
C278   C745    1.421   .     S
C279   C280    1.387   .     A
C279   H287    1.084   .     S
C280   H298    1.082   .     S
C281   H294    1.080   .     S
C282   H179    1.083   1_655 S
H291   C421    1.083   .     S
H292   N299    1.029   .     S
H293   C736    1.084   .     S
H295   C166    1.083   1_655 S
N299   N300    1.290   .     D
N299   Zn312   2.024   .     S
N300   Zn311   2.024   .     S
N300   O310    1.347   .     S
O301   Zn311   1.963   .     S
O301   C157    1.281   1_655 S
O303   Zn312   1.983   .     S
O304   Zn311   1.956   .     S
O304   C160    1.291   1_655 S
O305   Zn312   1.918   .     S
O306   Zn311   1.983   .     S
O307   Zn312   1.963   .     S
O308   Zn311   1.918   .     S
O309   Zn312   1.956   .     S
C313   O355    1.287   .     A
C313   C315    1.406   .     S
C313   O457    1.281   1_455 S
C314   C316    1.452   .     S
C314   C328    1.405   .     A
C314   C322    1.403   .     A
C315   C109    1.346   1_465 S
C315   O42     1.390   1_565 S
C316   O357    1.300   .     A
C316   O460    1.291   1_455 S
C317   C318    1.403   .     S
C318   O358    1.294   .     A
C318   O411    1.275   .     S
C319   O360    1.299   .     A
C319   C321    1.443   .     S
C319   O413    1.290   .     S
C320   C334    1.393   .     A
C320   C798    1.404   1_554 S
C320   H813    1.084   1_554 S
C321   C333    1.382   .     A
C321   C334    1.400   .     A
C322   C791    1.387   .     S
C322   H451    1.083   1_455 S
C323   C325    1.390   .     A
C323   H349    1.083   .     S
C323   C790    1.387   1_554 S
C324   C328    1.405   .     A
C324   C793    1.420   .     S
C324   C797    1.410   .     S
C325   H348    1.079   .     S
C325   C792    1.420   1_554 S
C326   H338    1.109   .     S
C326   O362    1.398   .     S
C326   H337    1.107   .     S
C326   H336    1.111   .     S
C327   H341    1.114   .     S
C327   H28     1.114   1_565 S
C327   H30     1.109   1_565 S
C327   O42     1.411   1_565 S
C328   C332    1.415   .     A
C329   C333    1.386   .     A
C329   C792    1.410   1_554 S
C329   C798    1.421   1_554 S
C330   C331    1.392   .     A
C330   C788    1.404   .     S
C330   C797    1.421   .     S
C331   C332    1.387   .     A
C331   H339    1.084   .     S
C332   H350    1.082   .     S
C333   H346    1.080   .     S
C334   H387    1.083   .     S
H335   C438    1.083   1_455 S
H343   C5      1.083   1_565 S
H344   N351    1.029   .     S
H345   C788    1.084   .     S
H347   C374    1.083   .     S
N351   N352    1.290   .     D
N351   Zn364   2.024   .     S
N352   Zn363   2.024   .     S
N352   O362    1.347   .     S
O353   Zn363   1.963   .     S
O353   C365    1.281   .     S
O355   Zn364   1.983   .     S
O356   Zn363   1.956   .     S
O356   C368    1.291   .     S
O357   Zn364   1.918   .     S
O358   Zn363   1.983   .     S
O359   Zn364   1.963   .     S
O359   C422    1.275   1_455 S
O360   Zn363   1.918   .     S
O361   Zn364   1.956   .     S
O361   C423    1.290   1_455 S
C365   O407    1.287   .     A
C365   C367    1.406   .     S
C366   C368    1.452   .     S
C366   C380    1.405   .     A
C366   C374    1.403   .     A
C367   C5      1.346   1_565 S
C367   O94     1.390   1_565 S
C368   O409    1.300   .     A
C369   C370    1.403   .     S
C370   O410    1.294   .     A
C370   O463    1.275   .     S
C371   O412    1.299   .     A
C371   C373    1.443   .     S
C371   O465    1.290   .     S
C372   C386    1.393   .     A
C372   C850    1.404   1_554 S
C372   H865    1.084   1_554 S
C373   C385    1.382   .     A
C373   C386    1.400   .     A
C374   C843    1.387   .     S
C375   C377    1.390   .     A
C375   H401    1.083   .     S
C375   C842    1.387   1_554 S
C376   C380    1.405   .     A
C376   C845    1.420   .     S
C376   C849    1.410   .     S
C377   H400    1.079   .     S
C377   C844    1.420   1_554 S
C378   H390    1.109   .     S
C378   O414    1.398   .     S
C378   H389    1.107   .     S
C378   H388    1.111   .     S
C379   H393    1.114   .     S
C379   H80     1.114   1_565 S
C379   H82     1.109   1_565 S
C379   O94     1.411   1_565 S
C380   C384    1.415   .     A
C381   C385    1.386   .     A
C381   C844    1.410   1_554 S
C381   C850    1.421   1_554 S
C382   C383    1.392   .     A
C382   C840    1.404   .     S
C382   C849    1.421   .     S
C383   C384    1.387   .     A
C383   H391    1.084   .     S
C384   H402    1.082   .     S
C385   H398    1.080   .     S
C386   H439    1.083   .     S
H395   C57     1.083   1_565 S
H396   N403    1.029   .     S
H397   C840    1.084   .     S
H399   C426    1.083   .     S
N403   N404    1.290   .     D
N403   Zn416   2.024   .     S
N404   Zn415   2.024   .     S
N404   O414    1.347   .     S
O405   Zn415   1.963   .     S
O405   C417    1.281   .     S
O407   Zn416   1.983   .     S
O408   Zn415   1.956   .     S
O408   C420    1.291   .     S
O409   Zn416   1.918   .     S
O410   Zn415   1.983   .     S
O411   Zn416   1.963   .     S
O412   Zn415   1.918   .     S
O413   Zn416   1.956   .     S
C417   O459    1.287   .     A
C417   C419    1.406   .     S
C418   C420    1.452   .     S
C418   C432    1.405   .     A
C418   C426    1.403   .     A
C419   C57     1.346   1_565 S
C419   O146    1.390   1_565 S
C420   O461    1.300   .     A
C421   C422    1.403   .     S
C421   C159    1.346   1_655 S
C422   O462    1.294   .     A
C422   O359    1.275   1_655 S
C423   O464    1.299   .     A
C423   C425    1.443   .     S
C423   O361    1.290   1_655 S
C424   C438    1.393   .     A
C424   C902    1.404   1_554 S
C424   H917    1.084   1_554 S
C425   C437    1.382   .     A
C425   C438    1.400   .     A
C426   C895    1.387   .     S
C427   C429    1.390   .     A
C427   H453    1.083   .     S
C427   C894    1.387   1_554 S
C428   C432    1.405   .     A
C428   C897    1.420   .     S
C428   C901    1.410   .     S
C429   H452    1.079   .     S
C429   C896    1.420   1_554 S
C430   H442    1.109   .     S
C430   O466    1.398   .     S
C430   H441    1.107   .     S
C430   H440    1.111   .     S
C431   H445    1.114   .     S
C431   H132    1.114   1_565 S
C431   H134    1.109   1_565 S
C431   O146    1.411   1_565 S
C432   C436    1.415   .     A
C433   C437    1.386   .     A
C433   C896    1.410   1_554 S
C433   C902    1.421   1_554 S
C434   C435    1.392   .     A
C434   C892    1.404   .     S
C434   C901    1.421   .     S
C435   C436    1.387   .     A
C435   H443    1.084   .     S
C436   H454    1.082   .     S
C437   H450    1.080   .     S
C438   H335    1.083   1_655 S
H447   C109    1.083   1_565 S
H448   N455    1.029   .     S
H449   C892    1.084   .     S
H451   C322    1.083   1_655 S
N455   N456    1.290   .     D
N455   Zn468   2.024   .     S
N456   Zn467   2.024   .     S
N456   O466    1.347   .     S
O457   Zn467   1.963   .     S
O457   C313    1.281   1_655 S
O459   Zn468   1.983   .     S
O460   Zn467   1.956   .     S
O460   C316    1.291   1_655 S
O461   Zn468   1.918   .     S
O462   Zn467   1.983   .     S
O463   Zn468   1.963   .     S
O464   Zn467   1.918   .     S
O465   Zn468   1.956   .     S
C469   O511    1.287   .     A
C469   C471    1.406   .     S
C469   O613    1.281   1_455 S
C470   C472    1.452   .     S
C470   C484    1.405   .     A
C470   C478    1.403   .     A
C471   C733    1.346   1_455 S
C471   O666    1.390   .     S
C472   O513    1.300   .     A
C472   O616    1.291   1_455 S
C473   C474    1.403   .     S
C473   C835    1.346   1_545 S
C473   H811    1.083   1_545 S
C474   O514    1.294   .     A
C474   O567    1.275   .     S
C475   O516    1.299   .     A
C475   C477    1.443   .     S
C475   O569    1.290   .     S
C476   C490    1.393   .     A
C477   C489    1.382   .     A
C477   C490    1.400   .     A
C478   C11     1.387   1_556 S
C478   H607    1.083   1_455 S
C479   C481    1.390   .     A
C479   H505    1.083   .     S
C480   C484    1.405   .     A
C480   C13     1.420   1_556 S
C480   C17     1.410   1_556 S
C481   H504    1.079   .     S
C482   H494    1.109   .     S
C482   O518    1.398   .     S
C482   H493    1.107   .     S
C482   H492    1.111   .     S
C483   H497    1.114   .     S
C483   H652    1.114   .     S
C483   H654    1.109   .     S
C483   O666    1.411   .     S
C484   C488    1.415   .     A
C485   C489    1.386   .     A
C486   C487    1.392   .     A
C486   C8      1.404   1_556 S
C486   C17     1.421   1_556 S
C487   C488    1.387   .     A
C487   H495    1.084   .     S
C488   H506    1.082   .     S
C489   H502    1.080   .     S
C490   H543    1.083   .     S
H491   C594    1.083   1_455 S
H496   C795    1.114   1_545 S
H498   C795    1.109   1_545 S
H499   C629    1.083   .     S
H500   N507    1.029   .     S
H501   C8      1.084   1_556 S
H503   C530    1.083   .     S
N507   N508    1.290   .     D
N507   Zn520   2.024   .     S
N508   Zn519   2.024   .     S
N508   O518    1.347   .     S
O509   Zn519   1.963   .     S
O509   C521    1.281   .     S
O510   C795    1.411   1_545 S
O510   C783    1.390   1_545 S
O511   Zn520   1.983   .     S
O512   Zn519   1.956   .     S
O512   C524    1.291   .     S
O513   Zn520   1.918   .     S
O514   Zn519   1.983   .     S
O515   Zn520   1.963   .     S
O515   C578    1.275   1_455 S
O516   Zn519   1.918   .     S
O517   Zn520   1.956   .     S
O517   C579    1.290   1_455 S
C521   O563    1.287   .     A
C521   C523    1.406   .     S
C522   C524    1.452   .     S
C522   C536    1.405   .     A
C522   C530    1.403   .     A
C523   C629    1.346   .     S
C523   O718    1.390   .     S
C524   O565    1.300   .     A
C525   C526    1.403   .     S
C525   C887    1.346   1_545 S
C525   H863    1.083   1_545 S
C526   O566    1.294   .     A
C526   O619    1.275   .     S
C527   O568    1.299   .     A
C527   C529    1.443   .     S
C527   O621    1.290   .     S
C528   C542    1.393   .     A
C529   C541    1.382   .     A
C529   C542    1.400   .     A
C530   C63     1.387   1_556 S
C531   C533    1.390   .     A
C531   H557    1.083   .     S
C532   C536    1.405   .     A
C532   C65     1.420   1_556 S
C532   C69     1.410   1_556 S
C533   H556    1.079   .     S
C534   H546    1.109   .     S
C534   O570    1.398   .     S
C534   H545    1.107   .     S
C534   H544    1.111   .     S
C535   H549    1.114   .     S
C535   H704    1.114   .     S
C535   H706    1.109   .     S
C535   O718    1.411   .     S
C536   C540    1.415   .     A
C537   C541    1.386   .     A
C538   C539    1.392   .     A
C538   C60     1.404   1_556 S
C538   C69     1.421   1_556 S
C539   C540    1.387   .     A
C539   H547    1.084   .     S
C540   H558    1.082   .     S
C541   H554    1.080   .     S
C542   H595    1.083   .     S
H548   C847    1.114   1_545 S
H550   C847    1.109   1_545 S
H551   C681    1.083   .     S
H552   N559    1.029   .     S
H553   C60     1.084   1_556 S
H555   C582    1.083   .     S
N559   N560    1.290   .     D
N559   Zn572   2.024   .     S
N560   Zn571   2.024   .     S
N560   O570    1.347   .     S
O561   Zn571   1.963   .     S
O561   C573    1.281   .     S
O562   C847    1.411   1_545 S
O562   C835    1.390   1_545 S
O563   Zn572   1.983   .     S
O564   Zn571   1.956   .     S
O564   C576    1.291   .     S
O565   Zn572   1.918   .     S
O566   Zn571   1.983   .     S
O567   Zn572   1.963   .     S
O568   Zn571   1.918   .     S
O569   Zn572   1.956   .     S
C573   O615    1.287   .     A
C573   C575    1.406   .     S
C574   C576    1.452   .     S
C574   C588    1.405   .     A
C574   C582    1.403   .     A
C575   C681    1.346   .     S
C575   O770    1.390   .     S
C576   O617    1.300   .     A
C577   C578    1.403   .     S
C577   C783    1.346   1_645 S
C577   H915    1.083   1_545 S
C578   O618    1.294   .     A
C578   O515    1.275   1_655 S
C579   O620    1.299   .     A
C579   C581    1.443   .     S
C579   O517    1.290   1_655 S
C580   C594    1.393   .     A
C581   C593    1.382   .     A
C581   C594    1.400   .     A
C582   C115    1.387   1_556 S
C583   C585    1.390   .     A
C583   H609    1.083   .     S
C584   C588    1.405   .     A
C584   C117    1.420   1_556 S
C584   C121    1.410   1_556 S
C585   H608    1.079   .     S
C586   H598    1.109   .     S
C586   O622    1.398   .     S
C586   H597    1.107   .     S
C586   H596    1.111   .     S
C587   H601    1.114   .     S
C587   H756    1.114   .     S
C587   H758    1.109   .     S
C587   O770    1.411   .     S
C588   C592    1.415   .     A
C589   C593    1.386   .     A
C590   C591    1.392   .     A
C590   C112    1.404   1_556 S
C590   C121    1.421   1_556 S
C591   C592    1.387   .     A
C591   H599    1.084   .     S
C592   H610    1.082   .     S
C593   H606    1.080   .     S
C594   H491    1.083   1_655 S
H600   C899    1.114   1_545 S
H602   C899    1.109   1_545 S
H603   C733    1.083   .     S
H604   N611    1.029   .     S
H605   C112    1.084   1_556 S
H607   C478    1.083   1_655 S
N611   N612    1.290   .     D
N611   Zn624   2.024   .     S
N612   Zn623   2.024   .     S
N612   O622    1.347   .     S
O613   Zn623   1.963   .     S
O613   C469    1.281   1_655 S
O614   C899    1.411   1_545 S
O614   C887    1.390   1_545 S
O615   Zn624   1.983   .     S
O616   Zn623   1.956   .     S
O616   C472    1.291   1_655 S
O617   Zn624   1.918   .     S
O618   Zn623   1.983   .     S
O619   Zn624   1.963   .     S
O620   Zn623   1.918   .     S
O621   Zn624   1.956   .     S
C625   O667    1.287   .     A
C625   C627    1.406   .     S
C625   O769    1.281   1_455 S
C626   C628    1.452   .     S
C626   C640    1.405   .     A
C626   C634    1.403   .     A
C627   C889    1.346   1_455 S
C627   O822    1.390   .     S
C628   O669    1.300   .     A
C628   O772    1.291   1_455 S
C629   C630    1.403   .     S
C630   O670    1.294   .     A
C630   O723    1.275   .     S
C631   O672    1.299   .     A
C631   C633    1.443   .     S
C631   O725    1.290   .     S
C632   C646    1.393   .     A
C633   C645    1.382   .     A
C633   C646    1.400   .     A
C634   C167    1.387   1_556 S
C634   H763    1.083   1_455 S
C635   C637    1.390   .     A
C635   H661    1.083   .     S
C636   C640    1.405   .     A
C636   C169    1.420   1_556 S
C636   C173    1.410   1_556 S
C637   H660    1.079   .     S
C638   H650    1.109   .     S
C638   O674    1.398   .     S
C638   H649    1.107   .     S
C638   H648    1.111   .     S
C639   H653    1.114   .     S
C639   H808    1.114   .     S
C639   H810    1.109   .     S
C639   O822    1.411   .     S
C640   C644    1.415   .     A
C641   C645    1.386   .     A
C642   C643    1.392   .     A
C642   C164    1.404   1_556 S
C642   C173    1.421   1_556 S
C643   C644    1.387   .     A
C643   H651    1.084   .     S
C644   H662    1.082   .     S
C645   H658    1.080   .     S
C646   H699    1.083   .     S
H647   C750    1.083   1_455 S
H655   C785    1.083   .     S
H656   N663    1.029   .     S
H657   C164    1.084   1_556 S
H659   C686    1.083   .     S
N663   N664    1.290   .     D
N663   Zn676   2.024   .     S
N664   Zn675   2.024   .     S
N664   O674    1.347   .     S
O665   Zn675   1.963   .     S
O665   C677    1.281   .     S
O667   Zn676   1.983   .     S
O668   Zn675   1.956   .     S
O668   C680    1.291   .     S
O669   Zn676   1.918   .     S
O670   Zn675   1.983   .     S
O671   Zn676   1.963   .     S
O671   C734    1.275   1_455 S
O672   Zn675   1.918   .     S
O673   Zn676   1.956   .     S
O673   C735    1.290   1_455 S
C677   O719    1.287   .     A
C677   C679    1.406   .     S
C678   C680    1.452   .     S
C678   C692    1.405   .     A
C678   C686    1.403   .     A
C679   C785    1.346   .     S
C679   O874    1.390   .     S
C680   O721    1.300   .     A
C681   C682    1.403   .     S
C682   O722    1.294   .     A
C682   O775    1.275   .     S
C683   O724    1.299   .     A
C683   C685    1.443   .     S
C683   O777    1.290   .     S
C684   C698    1.393   .     A
C685   C697    1.382   .     A
C685   C698    1.400   .     A
C686   C219    1.387   1_556 S
C687   C689    1.390   .     A
C687   H713    1.083   .     S
C688   C692    1.405   .     A
C688   C221    1.420   1_556 S
C688   C225    1.410   1_556 S
C689   H712    1.079   .     S
C690   H702    1.109   .     S
C690   O726    1.398   .     S
C690   H701    1.107   .     S
C690   H700    1.111   .     S
C691   H705    1.114   .     S
C691   H860    1.114   .     S
C691   H862    1.109   .     S
C691   O874    1.411   .     S
C692   C696    1.415   .     A
C693   C697    1.386   .     A
C694   C695    1.392   .     A
C694   C216    1.404   1_556 S
C694   C225    1.421   1_556 S
C695   C696    1.387   .     A
C695   H703    1.084   .     S
C696   H714    1.082   .     S
C697   H710    1.080   .     S
C698   H751    1.083   .     S
H707   C837    1.083   .     S
H708   N715    1.029   .     S
H709   C216    1.084   1_556 S
H711   C738    1.083   .     S
N715   N716    1.290   .     D
N715   Zn728   2.024   .     S
N716   Zn727   2.024   .     S
N716   O726    1.347   .     S
O717   Zn727   1.963   .     S
O717   C729    1.281   .     S
O719   Zn728   1.983   .     S
O720   Zn727   1.956   .     S
O720   C732    1.291   .     S
O721   Zn728   1.918   .     S
O722   Zn727   1.983   .     S
O723   Zn728   1.963   .     S
O724   Zn727   1.918   .     S
O725   Zn728   1.956   .     S
C729   O771    1.287   .     A
C729   C731    1.406   .     S
C730   C732    1.452   .     S
C730   C744    1.405   .     A
C730   C738    1.403   .     A
C731   C837    1.346   .     S
C731   O926    1.390   .     S
C732   O773    1.300   .     A
C733   C734    1.403   .     S
C733   C471    1.346   1_655 S
C734   O774    1.294   .     A
C734   O671    1.275   1_655 S
C735   O776    1.299   .     A
C735   C737    1.443   .     S
C735   O673    1.290   1_655 S
C736   C750    1.393   .     A
C737   C749    1.382   .     A
C737   C750    1.400   .     A
C738   C271    1.387   1_556 S
C739   C741    1.390   .     A
C739   H765    1.083   .     S
C740   C744    1.405   .     A
C740   C273    1.420   1_556 S
C740   C277    1.410   1_556 S
C741   H764    1.079   .     S
C742   H754    1.109   .     S
C742   O778    1.398   .     S
C742   H753    1.107   .     S
C742   H752    1.111   .     S
C743   H757    1.114   .     S
C743   H912    1.114   .     S
C743   H914    1.109   .     S
C743   O926    1.411   .     S
C744   C748    1.415   .     A
C745   C749    1.386   .     A
C746   C747    1.392   .     A
C746   C268    1.404   1_556 S
C746   C277    1.421   1_556 S
C747   C748    1.387   .     A
C747   H755    1.084   .     S
C748   H766    1.082   .     S
C749   H762    1.080   .     S
C750   H647    1.083   1_655 S
H759   C889    1.083   .     S
H760   N767    1.029   .     S
H761   C268    1.084   1_556 S
H763   C634    1.083   1_655 S
N767   N768    1.290   .     D
N767   Zn780   2.024   .     S
N768   Zn779   2.024   .     S
N768   O778    1.347   .     S
O769   Zn779   1.963   .     S
O769   C625    1.281   1_655 S
O771   Zn780   1.983   .     S
O772   Zn779   1.956   .     S
O772   C628    1.291   1_655 S
O773   Zn780   1.918   .     S
O774   Zn779   1.983   .     S
O775   Zn780   1.963   .     S
O776   Zn779   1.918   .     S
O777   Zn780   1.956   .     S
C781   O823    1.287   .     A
C781   C783    1.406   .     S
C781   O925    1.281   1_455 S
C782   C784    1.452   .     S
C782   C796    1.405   .     A
C782   C790    1.403   .     A
C783   C577    1.346   1_465 S
C783   O510    1.390   1_565 S
C784   O825    1.300   .     A
C784   O928    1.291   1_455 S
C785   C786    1.403   .     S
C786   O826    1.294   .     A
C786   O879    1.275   .     S
C787   O828    1.299   .     A
C787   C789    1.443   .     S
C787   O881    1.290   .     S
C788   C802    1.393   .     A
C789   C801    1.382   .     A
C789   C802    1.400   .     A
C790   C323    1.387   1_556 S
C790   H919    1.083   1_455 S
C791   C793    1.390   .     A
C791   H817    1.083   .     S
C792   C796    1.405   .     A
C792   C325    1.420   1_556 S
C792   C329    1.410   1_556 S
C793   H816    1.079   .     S
C794   H806    1.109   .     S
C794   O830    1.398   .     S
C794   H805    1.107   .     S
C794   H804    1.111   .     S
C795   H809    1.114   .     S
C795   H496    1.114   1_565 S
C795   H498    1.109   1_565 S
C795   O510    1.411   1_565 S
C796   C800    1.415   .     A
C797   C801    1.386   .     A
C798   C799    1.392   .     A
C798   C320    1.404   1_556 S
C798   C329    1.421   1_556 S
C799   C800    1.387   .     A
C799   H807    1.084   .     S
C800   H818    1.082   .     S
C801   H814    1.080   .     S
C802   H855    1.083   .     S
H803   C906    1.083   1_455 S
H811   C473    1.083   1_565 S
H812   N819    1.029   .     S
H813   C320    1.084   1_556 S
H815   C842    1.083   .     S
N819   N820    1.290   .     D
N819   Zn832   2.024   .     S
N820   Zn831   2.024   .     S
N820   O830    1.347   .     S
O821   Zn831   1.963   .     S
O821   C833    1.281   .     S
O823   Zn832   1.983   .     S
O824   Zn831   1.956   .     S
O824   C836    1.291   .     S
O825   Zn832   1.918   .     S
O826   Zn831   1.983   .     S
O827   Zn832   1.963   .     S
O827   C890    1.275   1_455 S
O828   Zn831   1.918   .     S
O829   Zn832   1.956   .     S
O829   C891    1.290   1_455 S
C833   O875    1.287   .     A
C833   C835    1.406   .     S
C834   C836    1.452   .     S
C834   C848    1.405   .     A
C834   C842    1.403   .     A
C835   C473    1.346   1_565 S
C835   O562    1.390   1_565 S
C836   O877    1.300   .     A
C837   C838    1.403   .     S
C838   O878    1.294   .     A
C838   O931    1.275   .     S
C839   O880    1.299   .     A
C839   C841    1.443   .     S
C839   O933    1.290   .     S
C840   C854    1.393   .     A
C841   C853    1.382   .     A
C841   C854    1.400   .     A
C842   C375    1.387   1_556 S
C843   C845    1.390   .     A
C843   H869    1.083   .     S
C844   C848    1.405   .     A
C844   C377    1.420   1_556 S
C844   C381    1.410   1_556 S
C845   H868    1.079   .     S
C846   H858    1.109   .     S
C846   O882    1.398   .     S
C846   H857    1.107   .     S
C846   H856    1.111   .     S
C847   H861    1.114   .     S
C847   H548    1.114   1_565 S
C847   H550    1.109   1_565 S
C847   O562    1.411   1_565 S
C848   C852    1.415   .     A
C849   C853    1.386   .     A
C850   C851    1.392   .     A
C850   C372    1.404   1_556 S
C850   C381    1.421   1_556 S
C851   C852    1.387   .     A
C851   H859    1.084   .     S
C852   H870    1.082   .     S
C853   H866    1.080   .     S
C854   H907    1.083   .     S
H863   C525    1.083   1_565 S
H864   N871    1.029   .     S
H865   C372    1.084   1_556 S
H867   C894    1.083   .     S
N871   N872    1.290   .     D
N871   Zn884   2.024   .     S
N872   Zn883   2.024   .     S
N872   O882    1.347   .     S
O873   Zn883   1.963   .     S
O873   C885    1.281   .     S
O875   Zn884   1.983   .     S
O876   Zn883   1.956   .     S
O876   C888    1.291   .     S
O877   Zn884   1.918   .     S
O878   Zn883   1.983   .     S
O879   Zn884   1.963   .     S
O880   Zn883   1.918   .     S
O881   Zn884   1.956   .     S
C885   O927    1.287   .     A
C885   C887    1.406   .     S
C886   C888    1.452   .     S
C886   C900    1.405   .     A
C886   C894    1.403   .     A
C887   C525    1.346   1_565 S
C887   O614    1.390   1_565 S
C888   O929    1.300   .     A
C889   C890    1.403   .     S
C889   C627    1.346   1_655 S
C890   O930    1.294   .     A
C890   O827    1.275   1_655 S
C891   O932    1.299   .     A
C891   C893    1.443   .     S
C891   O829    1.290   1_655 S
C892   C906    1.393   .     A
C893   C905    1.382   .     A
C893   C906    1.400   .     A
C894   C427    1.387   1_556 S
C895   C897    1.390   .     A
C895   H921    1.083   .     S
C896   C900    1.405   .     A
C896   C429    1.420   1_556 S
C896   C433    1.410   1_556 S
C897   H920    1.079   .     S
C898   H910    1.109   .     S
C898   O934    1.398   .     S
C898   H909    1.107   .     S
C898   H908    1.111   .     S
C899   H913    1.114   .     S
C899   H600    1.114   1_565 S
C899   H602    1.109   1_565 S
C899   O614    1.411   1_565 S
C900   C904    1.415   .     A
C901   C905    1.386   .     A
C902   C903    1.392   .     A
C902   C424    1.404   1_556 S
C902   C433    1.421   1_556 S
C903   C904    1.387   .     A
C903   H911    1.084   .     S
C904   H922    1.082   .     S
C905   H918    1.080   .     S
C906   H803    1.083   1_655 S
H915   C577    1.083   1_565 S
H916   N923    1.029   .     S
H917   C424    1.084   1_556 S
H919   C790    1.083   1_655 S
N923   N924    1.290   .     D
N923   Zn936   2.024   .     S
N924   Zn935   2.024   .     S
N924   O934    1.347   .     S
O925   Zn935   1.963   .     S
O925   C781    1.281   1_655 S
O927   Zn936   1.983   .     S
O928   Zn935   1.956   .     S
O928   C784    1.291   1_655 S
O929   Zn936   1.918   .     S
O930   Zn935   1.983   .     S
O931   Zn936   1.963   .     S
O932   Zn935   1.918   .     S
O933   Zn936   1.956   .     S
