data_str_m3_o1_o2_pcu_sym.118
_audit_creation_date              2020-01-03
_audit_creation_method            'Materials Studio'
_symmetry_space_group_name_H-M    'P1'
_symmetry_Int_Tables_number       1
_symmetry_cell_setting            triclinic
loop_
_symmetry_equiv_pos_as_xyz
  x,y,z
_cell_length_a                    32.1639
_cell_length_b                    29.8164
_cell_length_c                    30.0071
_cell_angle_alpha                 90.0000
_cell_angle_beta                  92.2032
_cell_angle_gamma                 90.0000
loop_
_atom_site_label
_atom_site_type_symbol
_atom_site_fract_x
_atom_site_fract_y
_atom_site_fract_z
_atom_site_U_iso_or_equiv
_atom_site_adp_type
_atom_site_occupancy
C1     C     0.08672   0.16668   0.24995   0.00000  Uiso   1.00
C2     C     0.24661   0.16668   0.25005   0.00000  Uiso   1.00
C3     C     0.16655   0.16668   0.16403   0.00000  Uiso   1.00
C4     C     0.16678   0.16668   0.33597   0.00000  Uiso   1.00
C5     C     0.19413   0.02390   0.27724   0.00000  Uiso   1.00
C6     C     0.14177   0.30934   0.22012   0.00000  Uiso   1.00
C7     C     0.13920   0.02390   0.22275   0.00000  Uiso   1.00
C8     C     0.19156   0.30934   0.27988   0.00000  Uiso   1.00
C9     C     0.02128   0.12585   0.25010   0.00000  Uiso   1.00
C10    C     0.31204   0.20764   0.25005   0.00000  Uiso   1.00
C11    C     0.31205   0.12585   0.24990   0.00000  Uiso   1.00
C12    C     0.02129   0.20764   0.24995   0.00000  Uiso   1.00
C13    C     0.18086   0.20466   0.04775   0.00000  Uiso   1.00
C14    C     0.18116   0.12913   0.45357   0.00000  Uiso   1.00
C15    C     0.15247   0.20466   0.45225   0.00000  Uiso   1.00
C16    C     0.15218   0.12913   0.04643   0.00000  Uiso   1.00
C17    C     0.18057   0.20470   0.09374   0.00000  Uiso   1.00
C18    C     0.18093   0.12892   0.40756   0.00000  Uiso   1.00
C19    C     0.15277   0.20470   0.40626   0.00000  Uiso   1.00
C20    C     0.15240   0.12892   0.09244   0.00000  Uiso   1.00
C21    C     0.16650   0.16676   0.11610   0.00000  Uiso   1.00
C22    C     0.16683   0.16676   0.38390   0.00000  Uiso   1.00
C23    C     0.16658   0.16692   0.02407   0.00000  Uiso   1.00
C24    C     0.16676   0.16692   0.47593   0.00000  Uiso   1.00
C25    C     0.29082   0.16673   0.25000   0.00000  Uiso   1.00
C26    C     0.04251   0.16673   0.25000   0.00000  Uiso   1.00
H27    H     0.19261   0.23380   0.03072   0.00000  Uiso   1.00
H28    H     0.19286   0.10004   0.47169   0.00000  Uiso   1.00
H29    H     0.14073   0.23380   0.46928   0.00000  Uiso   1.00
H30    H     0.14048   0.10004   0.02831   0.00000  Uiso   1.00
H31    H     0.19186   0.23403   0.11177   0.00000  Uiso   1.00
H32    H     0.19221   0.09952   0.39062   0.00000  Uiso   1.00
H33    H     0.14147   0.23403   0.38823   0.00000  Uiso   1.00
H34    H     0.14113   0.09952   0.10938   0.00000  Uiso   1.00
H35    H     0.03737   0.09395   0.25036   0.00000  Uiso   1.00
H36    H     0.29592   0.23955   0.25012   0.00000  Uiso   1.00
H37    H     0.29596   0.09395   0.24964   0.00000  Uiso   1.00
H38    H     0.03742   0.23955   0.24988   0.00000  Uiso   1.00
N39    N     0.16667   0.28573   0.25000   0.00000  Uiso   1.00
N40    N     0.16667   0.04760   0.25000   0.00000  Uiso   1.00
O41    O     0.10559   0.20487   0.25000   0.00000  Uiso   1.00
O42    O     0.22774   0.12846   0.25000   0.00000  Uiso   1.00
O43    O     0.22774   0.20487   0.25000   0.00000  Uiso   1.00
O44    O     0.10559   0.12846   0.25000   0.00000  Uiso   1.00
O45    O     0.16666   0.20489   0.18453   0.00000  Uiso   1.00
O46    O     0.16667   0.12845   0.31547   0.00000  Uiso   1.00
O47    O     0.16667   0.20489   0.31547   0.00000  Uiso   1.00
O48    O     0.16666   0.12845   0.18453   0.00000  Uiso   1.00
Zn49   Zn    0.16667   0.21771   0.25000   0.00000  Uiso   1.00
Zn50   Zn    0.16667   0.11563   0.25000   0.00000  Uiso   1.00
C51    C     0.22795   0.04784   0.30240   0.00000  Uiso   1.00
H52    H     0.22324   0.08049   0.31641   0.00000  Uiso   1.00
O53    O     0.26256   0.03124   0.30701   0.00000  Uiso   1.00
C54    C     0.11901   0.28516   0.18364   0.00000  Uiso   1.00
H55    H     0.10336   0.25396   0.18951   0.00000  Uiso   1.00
O56    O     0.11809   0.30001   0.14568   0.00000  Uiso   1.00
C57    C     0.10539   0.04784   0.19760   0.00000  Uiso   1.00
H58    H     0.11010   0.08049   0.18359   0.00000  Uiso   1.00
O59    O     0.07078   0.03124   0.19299   0.00000  Uiso   1.00
C60    C     0.21432   0.28516   0.31636   0.00000  Uiso   1.00
H61    H     0.22997   0.25396   0.31049   0.00000  Uiso   1.00
O62    O     0.21525   0.30001   0.35432   0.00000  Uiso   1.00
C63    C     0.42005   0.16668   0.24995   0.00000  Uiso   1.00
C64    C     0.57995   0.16668   0.25005   0.00000  Uiso   1.00
C65    C     0.49989   0.16668   0.16403   0.00000  Uiso   1.00
C66    C     0.50011   0.16668   0.33597   0.00000  Uiso   1.00
C67    C     0.52747   0.02390   0.27724   0.00000  Uiso   1.00
C68    C     0.47511   0.30934   0.22012   0.00000  Uiso   1.00
C69    C     0.47253   0.02390   0.22275   0.00000  Uiso   1.00
C70    C     0.52489   0.30934   0.27988   0.00000  Uiso   1.00
C71    C     0.35462   0.12585   0.25010   0.00000  Uiso   1.00
C72    C     0.64537   0.20764   0.25005   0.00000  Uiso   1.00
C73    C     0.64538   0.12585   0.24990   0.00000  Uiso   1.00
C74    C     0.35463   0.20764   0.24995   0.00000  Uiso   1.00
C75    C     0.51419   0.20466   0.04775   0.00000  Uiso   1.00
C76    C     0.51449   0.12913   0.45357   0.00000  Uiso   1.00
C77    C     0.48581   0.20466   0.45225   0.00000  Uiso   1.00
C78    C     0.48551   0.12913   0.04643   0.00000  Uiso   1.00
C79    C     0.51390   0.20470   0.09374   0.00000  Uiso   1.00
C80    C     0.51426   0.12892   0.40756   0.00000  Uiso   1.00
C81    C     0.48610   0.20470   0.40626   0.00000  Uiso   1.00
C82    C     0.48574   0.12892   0.09244   0.00000  Uiso   1.00
C83    C     0.49983   0.16676   0.11610   0.00000  Uiso   1.00
C84    C     0.50017   0.16676   0.38390   0.00000  Uiso   1.00
C85    C     0.49991   0.16692   0.02407   0.00000  Uiso   1.00
C86    C     0.50009   0.16692   0.47593   0.00000  Uiso   1.00
C87    C     0.62415   0.16673   0.25000   0.00000  Uiso   1.00
C88    C     0.37585   0.16673   0.25000   0.00000  Uiso   1.00
H89    H     0.52594   0.23380   0.03072   0.00000  Uiso   1.00
H90    H     0.52619   0.10004   0.47169   0.00000  Uiso   1.00
H91    H     0.47406   0.23380   0.46928   0.00000  Uiso   1.00
H92    H     0.47381   0.10004   0.02831   0.00000  Uiso   1.00
H93    H     0.52520   0.23403   0.11177   0.00000  Uiso   1.00
H94    H     0.52554   0.09952   0.39062   0.00000  Uiso   1.00
H95    H     0.47480   0.23403   0.38823   0.00000  Uiso   1.00
H96    H     0.47446   0.09952   0.10938   0.00000  Uiso   1.00
H97    H     0.37070   0.09395   0.25036   0.00000  Uiso   1.00
H98    H     0.62925   0.23955   0.25012   0.00000  Uiso   1.00
H99    H     0.62930   0.09395   0.24964   0.00000  Uiso   1.00
H100   H     0.37075   0.23955   0.24988   0.00000  Uiso   1.00
N101   N     0.50000   0.28573   0.25000   0.00000  Uiso   1.00
N102   N     0.50000   0.04760   0.25000   0.00000  Uiso   1.00
O103   O     0.43892   0.20487   0.25000   0.00000  Uiso   1.00
O104   O     0.56108   0.12846   0.25000   0.00000  Uiso   1.00
O105   O     0.56108   0.20487   0.25000   0.00000  Uiso   1.00
O106   O     0.43892   0.12846   0.25000   0.00000  Uiso   1.00
O107   O     0.50000   0.20489   0.18453   0.00000  Uiso   1.00
O108   O     0.50000   0.12845   0.31547   0.00000  Uiso   1.00
O109   O     0.50000   0.20489   0.31547   0.00000  Uiso   1.00
O110   O     0.50000   0.12845   0.18453   0.00000  Uiso   1.00
Zn111  Zn    0.50000   0.21771   0.25000   0.00000  Uiso   1.00
Zn112  Zn    0.50000   0.11563   0.25000   0.00000  Uiso   1.00
C113   C     0.56128   0.04784   0.30240   0.00000  Uiso   1.00
H114   H     0.55657   0.08049   0.31641   0.00000  Uiso   1.00
O115   O     0.59589   0.03124   0.30701   0.00000  Uiso   1.00
C116   C     0.45235   0.28516   0.18364   0.00000  Uiso   1.00
H117   H     0.43670   0.25396   0.18951   0.00000  Uiso   1.00
O118   O     0.45142   0.30001   0.14568   0.00000  Uiso   1.00
C119   C     0.43872   0.04784   0.19760   0.00000  Uiso   1.00
H120   H     0.44343   0.08049   0.18359   0.00000  Uiso   1.00
O121   O     0.40411   0.03124   0.19299   0.00000  Uiso   1.00
C122   C     0.54765   0.28516   0.31636   0.00000  Uiso   1.00
H123   H     0.56330   0.25396   0.31049   0.00000  Uiso   1.00
O124   O     0.54858   0.30001   0.35432   0.00000  Uiso   1.00
C125   C     0.75339   0.16668   0.24995   0.00000  Uiso   1.00
C126   C     0.91328   0.16668   0.25005   0.00000  Uiso   1.00
C127   C     0.83322   0.16668   0.16403   0.00000  Uiso   1.00
C128   C     0.83345   0.16668   0.33597   0.00000  Uiso   1.00
C129   C     0.86080   0.02390   0.27724   0.00000  Uiso   1.00
C130   C     0.80844   0.30934   0.22012   0.00000  Uiso   1.00
C131   C     0.80587   0.02390   0.22275   0.00000  Uiso   1.00
C132   C     0.85823   0.30934   0.27988   0.00000  Uiso   1.00
C133   C     0.68795   0.12585   0.25010   0.00000  Uiso   1.00
C134   C     0.97871   0.20764   0.25005   0.00000  Uiso   1.00
C135   C     0.97872   0.12585   0.24990   0.00000  Uiso   1.00
C136   C     0.68796   0.20764   0.24995   0.00000  Uiso   1.00
C137   C     0.84753   0.20466   0.04775   0.00000  Uiso   1.00
C138   C     0.84783   0.12913   0.45357   0.00000  Uiso   1.00
C139   C     0.81914   0.20466   0.45225   0.00000  Uiso   1.00
C140   C     0.81884   0.12913   0.04643   0.00000  Uiso   1.00
C141   C     0.84723   0.20470   0.09374   0.00000  Uiso   1.00
C142   C     0.84760   0.12892   0.40756   0.00000  Uiso   1.00
C143   C     0.81943   0.20470   0.40626   0.00000  Uiso   1.00
C144   C     0.81907   0.12892   0.09244   0.00000  Uiso   1.00
C145   C     0.83317   0.16676   0.11610   0.00000  Uiso   1.00
C146   C     0.83350   0.16676   0.38390   0.00000  Uiso   1.00
C147   C     0.83324   0.16692   0.02407   0.00000  Uiso   1.00
C148   C     0.83342   0.16692   0.47593   0.00000  Uiso   1.00
C149   C     0.95749   0.16673   0.25000   0.00000  Uiso   1.00
C150   C     0.70918   0.16673   0.25000   0.00000  Uiso   1.00
H151   H     0.85927   0.23380   0.03072   0.00000  Uiso   1.00
H152   H     0.85952   0.10004   0.47169   0.00000  Uiso   1.00
H153   H     0.80739   0.23380   0.46928   0.00000  Uiso   1.00
H154   H     0.80715   0.10004   0.02831   0.00000  Uiso   1.00
H155   H     0.85853   0.23403   0.11177   0.00000  Uiso   1.00
H156   H     0.85888   0.09952   0.39062   0.00000  Uiso   1.00
H157   H     0.80814   0.23403   0.38823   0.00000  Uiso   1.00
H158   H     0.80779   0.09952   0.10938   0.00000  Uiso   1.00
H159   H     0.70404   0.09395   0.25036   0.00000  Uiso   1.00
H160   H     0.96258   0.23955   0.25012   0.00000  Uiso   1.00
H161   H     0.96263   0.09395   0.24964   0.00000  Uiso   1.00
H162   H     0.70408   0.23955   0.24988   0.00000  Uiso   1.00
N163   N     0.83333   0.28573   0.25000   0.00000  Uiso   1.00
N164   N     0.83333   0.04760   0.25000   0.00000  Uiso   1.00
O165   O     0.77226   0.20487   0.25000   0.00000  Uiso   1.00
O166   O     0.89441   0.12846   0.25000   0.00000  Uiso   1.00
O167   O     0.89441   0.20487   0.25000   0.00000  Uiso   1.00
O168   O     0.77226   0.12846   0.25000   0.00000  Uiso   1.00
O169   O     0.83333   0.20489   0.18453   0.00000  Uiso   1.00
O170   O     0.83334   0.12845   0.31547   0.00000  Uiso   1.00
O171   O     0.83334   0.20489   0.31547   0.00000  Uiso   1.00
O172   O     0.83333   0.12845   0.18453   0.00000  Uiso   1.00
Zn173  Zn    0.83333   0.21771   0.25000   0.00000  Uiso   1.00
Zn174  Zn    0.83333   0.11563   0.25000   0.00000  Uiso   1.00
C175   C     0.89461   0.04784   0.30240   0.00000  Uiso   1.00
H176   H     0.88990   0.08049   0.31641   0.00000  Uiso   1.00
O177   O     0.92922   0.03124   0.30701   0.00000  Uiso   1.00
C178   C     0.78568   0.28516   0.18364   0.00000  Uiso   1.00
H179   H     0.77003   0.25396   0.18951   0.00000  Uiso   1.00
O180   O     0.78475   0.30001   0.14568   0.00000  Uiso   1.00
C181   C     0.77205   0.04784   0.19760   0.00000  Uiso   1.00
H182   H     0.77676   0.08049   0.18359   0.00000  Uiso   1.00
O183   O     0.73744   0.03124   0.19299   0.00000  Uiso   1.00
C184   C     0.88099   0.28516   0.31636   0.00000  Uiso   1.00
H185   H     0.89664   0.25396   0.31049   0.00000  Uiso   1.00
O186   O     0.88191   0.30001   0.35432   0.00000  Uiso   1.00
C187   C     0.08672   0.50001   0.24995   0.00000  Uiso   1.00
C188   C     0.24661   0.50001   0.25005   0.00000  Uiso   1.00
C189   C     0.16655   0.50001   0.16403   0.00000  Uiso   1.00
C190   C     0.16678   0.50001   0.33597   0.00000  Uiso   1.00
C191   C     0.19413   0.35723   0.27724   0.00000  Uiso   1.00
C192   C     0.14177   0.64268   0.22012   0.00000  Uiso   1.00
C193   C     0.13920   0.35723   0.22275   0.00000  Uiso   1.00
C194   C     0.19156   0.64268   0.27988   0.00000  Uiso   1.00
C195   C     0.02128   0.45918   0.25010   0.00000  Uiso   1.00
C196   C     0.31204   0.54097   0.25005   0.00000  Uiso   1.00
C197   C     0.31205   0.45918   0.24990   0.00000  Uiso   1.00
C198   C     0.02129   0.54097   0.24995   0.00000  Uiso   1.00
C199   C     0.18086   0.53800   0.04775   0.00000  Uiso   1.00
C200   C     0.18116   0.46246   0.45357   0.00000  Uiso   1.00
C201   C     0.15247   0.53800   0.45225   0.00000  Uiso   1.00
C202   C     0.15218   0.46246   0.04643   0.00000  Uiso   1.00
C203   C     0.18057   0.53804   0.09374   0.00000  Uiso   1.00
C204   C     0.18093   0.46226   0.40756   0.00000  Uiso   1.00
C205   C     0.15277   0.53804   0.40626   0.00000  Uiso   1.00
C206   C     0.15240   0.46226   0.09244   0.00000  Uiso   1.00
C207   C     0.16650   0.50009   0.11610   0.00000  Uiso   1.00
C208   C     0.16683   0.50009   0.38390   0.00000  Uiso   1.00
C209   C     0.16658   0.50025   0.02407   0.00000  Uiso   1.00
C210   C     0.16676   0.50025   0.47593   0.00000  Uiso   1.00
C211   C     0.29082   0.50006   0.25000   0.00000  Uiso   1.00
C212   C     0.04251   0.50006   0.25000   0.00000  Uiso   1.00
H213   H     0.19261   0.56714   0.03072   0.00000  Uiso   1.00
H214   H     0.19286   0.43337   0.47169   0.00000  Uiso   1.00
H215   H     0.14073   0.56714   0.46928   0.00000  Uiso   1.00
H216   H     0.14048   0.43337   0.02831   0.00000  Uiso   1.00
H217   H     0.19186   0.56736   0.11177   0.00000  Uiso   1.00
H218   H     0.19221   0.43285   0.39062   0.00000  Uiso   1.00
H219   H     0.14147   0.56736   0.38823   0.00000  Uiso   1.00
H220   H     0.14113   0.43285   0.10938   0.00000  Uiso   1.00
H221   H     0.03737   0.42728   0.25036   0.00000  Uiso   1.00
H222   H     0.29592   0.57288   0.25012   0.00000  Uiso   1.00
H223   H     0.29596   0.42729   0.24964   0.00000  Uiso   1.00
H224   H     0.03742   0.57288   0.24988   0.00000  Uiso   1.00
N225   N     0.16667   0.61907   0.25000   0.00000  Uiso   1.00
N226   N     0.16667   0.38093   0.25000   0.00000  Uiso   1.00
O227   O     0.10559   0.53821   0.25000   0.00000  Uiso   1.00
O228   O     0.22774   0.46179   0.25000   0.00000  Uiso   1.00
O229   O     0.22774   0.53821   0.25000   0.00000  Uiso   1.00
O230   O     0.10559   0.46179   0.25000   0.00000  Uiso   1.00
O231   O     0.16666   0.53822   0.18453   0.00000  Uiso   1.00
O232   O     0.16667   0.46178   0.31547   0.00000  Uiso   1.00
O233   O     0.16667   0.53822   0.31547   0.00000  Uiso   1.00
O234   O     0.16666   0.46178   0.18453   0.00000  Uiso   1.00
Zn235  Zn    0.16667   0.55104   0.25000   0.00000  Uiso   1.00
Zn236  Zn    0.16667   0.44896   0.25000   0.00000  Uiso   1.00
C237   C     0.22795   0.38118   0.30240   0.00000  Uiso   1.00
H238   H     0.22324   0.41383   0.31641   0.00000  Uiso   1.00
O239   O     0.26256   0.36457   0.30701   0.00000  Uiso   1.00
C240   C     0.11901   0.61850   0.18364   0.00000  Uiso   1.00
H241   H     0.10336   0.58729   0.18951   0.00000  Uiso   1.00
O242   O     0.11809   0.63334   0.14568   0.00000  Uiso   1.00
C243   C     0.10539   0.38118   0.19760   0.00000  Uiso   1.00
H244   H     0.11010   0.41383   0.18359   0.00000  Uiso   1.00
O245   O     0.07078   0.36457   0.19299   0.00000  Uiso   1.00
C246   C     0.21432   0.61850   0.31636   0.00000  Uiso   1.00
H247   H     0.22997   0.58729   0.31049   0.00000  Uiso   1.00
O248   O     0.21525   0.63334   0.35432   0.00000  Uiso   1.00
C249   C     0.42005   0.50001   0.24995   0.00000  Uiso   1.00
C250   C     0.57995   0.50001   0.25005   0.00000  Uiso   1.00
C251   C     0.49989   0.50001   0.16403   0.00000  Uiso   1.00
C252   C     0.50011   0.50001   0.33597   0.00000  Uiso   1.00
C253   C     0.52747   0.35723   0.27724   0.00000  Uiso   1.00
C254   C     0.47511   0.64268   0.22012   0.00000  Uiso   1.00
C255   C     0.47253   0.35723   0.22275   0.00000  Uiso   1.00
C256   C     0.52489   0.64268   0.27988   0.00000  Uiso   1.00
C257   C     0.35462   0.45918   0.25010   0.00000  Uiso   1.00
C258   C     0.64537   0.54097   0.25005   0.00000  Uiso   1.00
C259   C     0.64538   0.45918   0.24990   0.00000  Uiso   1.00
C260   C     0.35463   0.54097   0.24995   0.00000  Uiso   1.00
C261   C     0.51419   0.53800   0.04775   0.00000  Uiso   1.00
C262   C     0.51449   0.46246   0.45357   0.00000  Uiso   1.00
C263   C     0.48581   0.53800   0.45225   0.00000  Uiso   1.00
C264   C     0.48551   0.46246   0.04643   0.00000  Uiso   1.00
C265   C     0.51390   0.53804   0.09374   0.00000  Uiso   1.00
C266   C     0.51426   0.46226   0.40756   0.00000  Uiso   1.00
C267   C     0.48610   0.53804   0.40626   0.00000  Uiso   1.00
C268   C     0.48574   0.46226   0.09244   0.00000  Uiso   1.00
C269   C     0.49983   0.50009   0.11610   0.00000  Uiso   1.00
C270   C     0.50017   0.50009   0.38390   0.00000  Uiso   1.00
C271   C     0.49991   0.50025   0.02407   0.00000  Uiso   1.00
C272   C     0.50009   0.50025   0.47593   0.00000  Uiso   1.00
C273   C     0.62415   0.50006   0.25000   0.00000  Uiso   1.00
C274   C     0.37585   0.50006   0.25000   0.00000  Uiso   1.00
H275   H     0.52594   0.56714   0.03072   0.00000  Uiso   1.00
H276   H     0.52619   0.43337   0.47169   0.00000  Uiso   1.00
H277   H     0.47406   0.56714   0.46928   0.00000  Uiso   1.00
H278   H     0.47381   0.43337   0.02831   0.00000  Uiso   1.00
H279   H     0.52520   0.56736   0.11177   0.00000  Uiso   1.00
H280   H     0.52554   0.43285   0.39062   0.00000  Uiso   1.00
H281   H     0.47480   0.56736   0.38823   0.00000  Uiso   1.00
H282   H     0.47446   0.43285   0.10938   0.00000  Uiso   1.00
H283   H     0.37070   0.42728   0.25036   0.00000  Uiso   1.00
H284   H     0.62925   0.57288   0.25012   0.00000  Uiso   1.00
H285   H     0.62930   0.42729   0.24964   0.00000  Uiso   1.00
H286   H     0.37075   0.57288   0.24988   0.00000  Uiso   1.00
N287   N     0.50000   0.61907   0.25000   0.00000  Uiso   1.00
N288   N     0.50000   0.38093   0.25000   0.00000  Uiso   1.00
O289   O     0.43892   0.53821   0.25000   0.00000  Uiso   1.00
O290   O     0.56108   0.46179   0.25000   0.00000  Uiso   1.00
O291   O     0.56108   0.53821   0.25000   0.00000  Uiso   1.00
O292   O     0.43892   0.46179   0.25000   0.00000  Uiso   1.00
O293   O     0.50000   0.53822   0.18453   0.00000  Uiso   1.00
O294   O     0.50000   0.46178   0.31547   0.00000  Uiso   1.00
O295   O     0.50000   0.53822   0.31547   0.00000  Uiso   1.00
O296   O     0.50000   0.46178   0.18453   0.00000  Uiso   1.00
Zn297  Zn    0.50000   0.55104   0.25000   0.00000  Uiso   1.00
Zn298  Zn    0.50000   0.44896   0.25000   0.00000  Uiso   1.00
C299   C     0.56128   0.38118   0.30240   0.00000  Uiso   1.00
H300   H     0.55657   0.41383   0.31641   0.00000  Uiso   1.00
O301   O     0.59589   0.36457   0.30701   0.00000  Uiso   1.00
C302   C     0.45235   0.61850   0.18364   0.00000  Uiso   1.00
H303   H     0.43670   0.58729   0.18951   0.00000  Uiso   1.00
O304   O     0.45142   0.63334   0.14568   0.00000  Uiso   1.00
C305   C     0.43872   0.38118   0.19760   0.00000  Uiso   1.00
H306   H     0.44343   0.41383   0.18359   0.00000  Uiso   1.00
O307   O     0.40411   0.36457   0.19299   0.00000  Uiso   1.00
C308   C     0.54765   0.61850   0.31636   0.00000  Uiso   1.00
H309   H     0.56330   0.58729   0.31049   0.00000  Uiso   1.00
O310   O     0.54858   0.63334   0.35432   0.00000  Uiso   1.00
C311   C     0.75339   0.50001   0.24995   0.00000  Uiso   1.00
C312   C     0.91328   0.50001   0.25005   0.00000  Uiso   1.00
C313   C     0.83322   0.50001   0.16403   0.00000  Uiso   1.00
C314   C     0.83345   0.50001   0.33597   0.00000  Uiso   1.00
C315   C     0.86080   0.35723   0.27724   0.00000  Uiso   1.00
C316   C     0.80844   0.64268   0.22012   0.00000  Uiso   1.00
C317   C     0.80587   0.35723   0.22275   0.00000  Uiso   1.00
C318   C     0.85823   0.64268   0.27988   0.00000  Uiso   1.00
C319   C     0.68795   0.45918   0.25010   0.00000  Uiso   1.00
C320   C     0.97871   0.54097   0.25005   0.00000  Uiso   1.00
C321   C     0.97872   0.45918   0.24990   0.00000  Uiso   1.00
C322   C     0.68796   0.54097   0.24995   0.00000  Uiso   1.00
C323   C     0.84753   0.53800   0.04775   0.00000  Uiso   1.00
C324   C     0.84783   0.46246   0.45357   0.00000  Uiso   1.00
C325   C     0.81914   0.53800   0.45225   0.00000  Uiso   1.00
C326   C     0.81884   0.46246   0.04643   0.00000  Uiso   1.00
C327   C     0.84723   0.53804   0.09374   0.00000  Uiso   1.00
C328   C     0.84760   0.46226   0.40756   0.00000  Uiso   1.00
C329   C     0.81943   0.53804   0.40626   0.00000  Uiso   1.00
C330   C     0.81907   0.46226   0.09244   0.00000  Uiso   1.00
C331   C     0.83317   0.50009   0.11610   0.00000  Uiso   1.00
C332   C     0.83350   0.50009   0.38390   0.00000  Uiso   1.00
C333   C     0.83324   0.50025   0.02407   0.00000  Uiso   1.00
C334   C     0.83342   0.50025   0.47593   0.00000  Uiso   1.00
C335   C     0.95749   0.50006   0.25000   0.00000  Uiso   1.00
C336   C     0.70918   0.50006   0.25000   0.00000  Uiso   1.00
H337   H     0.85927   0.56714   0.03072   0.00000  Uiso   1.00
H338   H     0.85952   0.43337   0.47169   0.00000  Uiso   1.00
H339   H     0.80739   0.56714   0.46928   0.00000  Uiso   1.00
H340   H     0.80715   0.43337   0.02831   0.00000  Uiso   1.00
H341   H     0.85853   0.56736   0.11177   0.00000  Uiso   1.00
H342   H     0.85888   0.43285   0.39062   0.00000  Uiso   1.00
H343   H     0.80814   0.56736   0.38823   0.00000  Uiso   1.00
H344   H     0.80779   0.43285   0.10938   0.00000  Uiso   1.00
H345   H     0.70404   0.42728   0.25036   0.00000  Uiso   1.00
H346   H     0.96258   0.57288   0.25012   0.00000  Uiso   1.00
H347   H     0.96263   0.42729   0.24964   0.00000  Uiso   1.00
H348   H     0.70408   0.57288   0.24988   0.00000  Uiso   1.00
N349   N     0.83333   0.61907   0.25000   0.00000  Uiso   1.00
N350   N     0.83333   0.38093   0.25000   0.00000  Uiso   1.00
O351   O     0.77226   0.53821   0.25000   0.00000  Uiso   1.00
O352   O     0.89441   0.46179   0.25000   0.00000  Uiso   1.00
O353   O     0.89441   0.53821   0.25000   0.00000  Uiso   1.00
O354   O     0.77226   0.46179   0.25000   0.00000  Uiso   1.00
O355   O     0.83333   0.53822   0.18453   0.00000  Uiso   1.00
O356   O     0.83334   0.46178   0.31547   0.00000  Uiso   1.00
O357   O     0.83334   0.53822   0.31547   0.00000  Uiso   1.00
O358   O     0.83333   0.46178   0.18453   0.00000  Uiso   1.00
Zn359  Zn    0.83333   0.55104   0.25000   0.00000  Uiso   1.00
Zn360  Zn    0.83333   0.44896   0.25000   0.00000  Uiso   1.00
C361   C     0.89461   0.38118   0.30240   0.00000  Uiso   1.00
H362   H     0.88990   0.41383   0.31641   0.00000  Uiso   1.00
O363   O     0.92922   0.36457   0.30701   0.00000  Uiso   1.00
C364   C     0.78568   0.61850   0.18364   0.00000  Uiso   1.00
H365   H     0.77003   0.58729   0.18951   0.00000  Uiso   1.00
O366   O     0.78475   0.63334   0.14568   0.00000  Uiso   1.00
C367   C     0.77205   0.38118   0.19760   0.00000  Uiso   1.00
H368   H     0.77676   0.41383   0.18359   0.00000  Uiso   1.00
O369   O     0.73744   0.36457   0.19299   0.00000  Uiso   1.00
C370   C     0.88099   0.61850   0.31636   0.00000  Uiso   1.00
H371   H     0.89664   0.58729   0.31049   0.00000  Uiso   1.00
O372   O     0.88191   0.63334   0.35432   0.00000  Uiso   1.00
C373   C     0.08672   0.83334   0.24995   0.00000  Uiso   1.00
C374   C     0.24661   0.83334   0.25005   0.00000  Uiso   1.00
C375   C     0.16655   0.83334   0.16403   0.00000  Uiso   1.00
C376   C     0.16678   0.83334   0.33597   0.00000  Uiso   1.00
C377   C     0.19413   0.69057   0.27724   0.00000  Uiso   1.00
C378   C     0.14177   0.97601   0.22012   0.00000  Uiso   1.00
C379   C     0.13920   0.69057   0.22275   0.00000  Uiso   1.00
C380   C     0.19156   0.97601   0.27988   0.00000  Uiso   1.00
C381   C     0.02128   0.79252   0.25010   0.00000  Uiso   1.00
C382   C     0.31204   0.87431   0.25005   0.00000  Uiso   1.00
C383   C     0.31205   0.79252   0.24990   0.00000  Uiso   1.00
C384   C     0.02129   0.87431   0.24995   0.00000  Uiso   1.00
C385   C     0.18086   0.87133   0.04775   0.00000  Uiso   1.00
C386   C     0.18116   0.79580   0.45357   0.00000  Uiso   1.00
C387   C     0.15247   0.87133   0.45225   0.00000  Uiso   1.00
C388   C     0.15218   0.79580   0.04643   0.00000  Uiso   1.00
C389   C     0.18057   0.87137   0.09374   0.00000  Uiso   1.00
C390   C     0.18093   0.79559   0.40756   0.00000  Uiso   1.00
C391   C     0.15277   0.87137   0.40626   0.00000  Uiso   1.00
C392   C     0.15240   0.79559   0.09244   0.00000  Uiso   1.00
C393   C     0.16650   0.83342   0.11610   0.00000  Uiso   1.00
C394   C     0.16683   0.83342   0.38390   0.00000  Uiso   1.00
C395   C     0.16658   0.83358   0.02407   0.00000  Uiso   1.00
C396   C     0.16676   0.83358   0.47593   0.00000  Uiso   1.00
C397   C     0.29082   0.83339   0.25000   0.00000  Uiso   1.00
C398   C     0.04251   0.83339   0.25000   0.00000  Uiso   1.00
H399   H     0.19261   0.90047   0.03072   0.00000  Uiso   1.00
H400   H     0.19286   0.76670   0.47169   0.00000  Uiso   1.00
H401   H     0.14073   0.90047   0.46928   0.00000  Uiso   1.00
H402   H     0.14048   0.76670   0.02831   0.00000  Uiso   1.00
H403   H     0.19186   0.90070   0.11177   0.00000  Uiso   1.00
H404   H     0.19221   0.76619   0.39062   0.00000  Uiso   1.00
H405   H     0.14147   0.90070   0.38823   0.00000  Uiso   1.00
H406   H     0.14113   0.76618   0.10938   0.00000  Uiso   1.00
H407   H     0.03737   0.76062   0.25036   0.00000  Uiso   1.00
H408   H     0.29592   0.90622   0.25012   0.00000  Uiso   1.00
H409   H     0.29596   0.76062   0.24964   0.00000  Uiso   1.00
H410   H     0.03742   0.90622   0.24988   0.00000  Uiso   1.00
N411   N     0.16667   0.95240   0.25000   0.00000  Uiso   1.00
N412   N     0.16667   0.71427   0.25000   0.00000  Uiso   1.00
O413   O     0.10559   0.87154   0.25000   0.00000  Uiso   1.00
O414   O     0.22774   0.79513   0.25000   0.00000  Uiso   1.00
O415   O     0.22774   0.87154   0.25000   0.00000  Uiso   1.00
O416   O     0.10559   0.79513   0.25000   0.00000  Uiso   1.00
O417   O     0.16666   0.87155   0.18453   0.00000  Uiso   1.00
O418   O     0.16667   0.79511   0.31547   0.00000  Uiso   1.00
O419   O     0.16667   0.87155   0.31547   0.00000  Uiso   1.00
O420   O     0.16666   0.79511   0.18453   0.00000  Uiso   1.00
Zn421  Zn    0.16667   0.88437   0.25000   0.00000  Uiso   1.00
Zn422  Zn    0.16667   0.78229   0.25000   0.00000  Uiso   1.00
C423   C     0.22795   0.71451   0.30240   0.00000  Uiso   1.00
H424   H     0.22324   0.74716   0.31641   0.00000  Uiso   1.00
O425   O     0.26256   0.69790   0.30701   0.00000  Uiso   1.00
C426   C     0.11901   0.95183   0.18364   0.00000  Uiso   1.00
H427   H     0.10336   0.92062   0.18951   0.00000  Uiso   1.00
O428   O     0.11809   0.96667   0.14568   0.00000  Uiso   1.00
C429   C     0.10539   0.71451   0.19760   0.00000  Uiso   1.00
H430   H     0.11010   0.74716   0.18359   0.00000  Uiso   1.00
O431   O     0.07078   0.69790   0.19299   0.00000  Uiso   1.00
C432   C     0.21432   0.95183   0.31636   0.00000  Uiso   1.00
H433   H     0.22997   0.92062   0.31049   0.00000  Uiso   1.00
O434   O     0.21525   0.96667   0.35432   0.00000  Uiso   1.00
C435   C     0.42005   0.83334   0.24995   0.00000  Uiso   1.00
C436   C     0.57995   0.83334   0.25005   0.00000  Uiso   1.00
C437   C     0.49989   0.83334   0.16403   0.00000  Uiso   1.00
C438   C     0.50011   0.83334   0.33597   0.00000  Uiso   1.00
C439   C     0.52747   0.69057   0.27724   0.00000  Uiso   1.00
C440   C     0.47511   0.97601   0.22012   0.00000  Uiso   1.00
C441   C     0.47253   0.69057   0.22275   0.00000  Uiso   1.00
C442   C     0.52489   0.97601   0.27988   0.00000  Uiso   1.00
C443   C     0.35462   0.79252   0.25010   0.00000  Uiso   1.00
C444   C     0.64537   0.87431   0.25005   0.00000  Uiso   1.00
C445   C     0.64538   0.79252   0.24990   0.00000  Uiso   1.00
C446   C     0.35463   0.87431   0.24995   0.00000  Uiso   1.00
C447   C     0.51419   0.87133   0.04775   0.00000  Uiso   1.00
C448   C     0.51449   0.79580   0.45357   0.00000  Uiso   1.00
C449   C     0.48581   0.87133   0.45225   0.00000  Uiso   1.00
C450   C     0.48551   0.79580   0.04643   0.00000  Uiso   1.00
C451   C     0.51390   0.87137   0.09374   0.00000  Uiso   1.00
C452   C     0.51426   0.79559   0.40756   0.00000  Uiso   1.00
C453   C     0.48610   0.87137   0.40626   0.00000  Uiso   1.00
C454   C     0.48574   0.79559   0.09244   0.00000  Uiso   1.00
C455   C     0.49983   0.83342   0.11610   0.00000  Uiso   1.00
C456   C     0.50017   0.83342   0.38390   0.00000  Uiso   1.00
C457   C     0.49991   0.83358   0.02407   0.00000  Uiso   1.00
C458   C     0.50009   0.83358   0.47593   0.00000  Uiso   1.00
C459   C     0.62415   0.83339   0.25000   0.00000  Uiso   1.00
C460   C     0.37585   0.83339   0.25000   0.00000  Uiso   1.00
H461   H     0.52594   0.90047   0.03072   0.00000  Uiso   1.00
H462   H     0.52619   0.76670   0.47169   0.00000  Uiso   1.00
H463   H     0.47406   0.90047   0.46928   0.00000  Uiso   1.00
H464   H     0.47381   0.76670   0.02831   0.00000  Uiso   1.00
H465   H     0.52520   0.90070   0.11177   0.00000  Uiso   1.00
H466   H     0.52554   0.76619   0.39062   0.00000  Uiso   1.00
H467   H     0.47480   0.90070   0.38823   0.00000  Uiso   1.00
H468   H     0.47446   0.76618   0.10938   0.00000  Uiso   1.00
H469   H     0.37070   0.76062   0.25036   0.00000  Uiso   1.00
H470   H     0.62925   0.90622   0.25012   0.00000  Uiso   1.00
H471   H     0.62930   0.76062   0.24964   0.00000  Uiso   1.00
H472   H     0.37075   0.90622   0.24988   0.00000  Uiso   1.00
N473   N     0.50000   0.95240   0.25000   0.00000  Uiso   1.00
N474   N     0.50000   0.71427   0.25000   0.00000  Uiso   1.00
O475   O     0.43892   0.87154   0.25000   0.00000  Uiso   1.00
O476   O     0.56108   0.79513   0.25000   0.00000  Uiso   1.00
O477   O     0.56108   0.87154   0.25000   0.00000  Uiso   1.00
O478   O     0.43892   0.79513   0.25000   0.00000  Uiso   1.00
O479   O     0.50000   0.87155   0.18453   0.00000  Uiso   1.00
O480   O     0.50000   0.79511   0.31547   0.00000  Uiso   1.00
O481   O     0.50000   0.87155   0.31547   0.00000  Uiso   1.00
O482   O     0.50000   0.79511   0.18453   0.00000  Uiso   1.00
Zn483  Zn    0.50000   0.88437   0.25000   0.00000  Uiso   1.00
Zn484  Zn    0.50000   0.78229   0.25000   0.00000  Uiso   1.00
C485   C     0.56128   0.71451   0.30240   0.00000  Uiso   1.00
H486   H     0.55657   0.74716   0.31641   0.00000  Uiso   1.00
O487   O     0.59589   0.69790   0.30701   0.00000  Uiso   1.00
C488   C     0.45235   0.95183   0.18364   0.00000  Uiso   1.00
H489   H     0.43670   0.92062   0.18951   0.00000  Uiso   1.00
O490   O     0.45142   0.96667   0.14568   0.00000  Uiso   1.00
C491   C     0.43872   0.71451   0.19760   0.00000  Uiso   1.00
H492   H     0.44343   0.74716   0.18359   0.00000  Uiso   1.00
O493   O     0.40411   0.69790   0.19299   0.00000  Uiso   1.00
C494   C     0.54765   0.95183   0.31636   0.00000  Uiso   1.00
H495   H     0.56330   0.92062   0.31049   0.00000  Uiso   1.00
O496   O     0.54858   0.96667   0.35432   0.00000  Uiso   1.00
C497   C     0.75339   0.83334   0.24995   0.00000  Uiso   1.00
C498   C     0.91328   0.83334   0.25005   0.00000  Uiso   1.00
C499   C     0.83322   0.83334   0.16403   0.00000  Uiso   1.00
C500   C     0.83345   0.83334   0.33597   0.00000  Uiso   1.00
C501   C     0.86080   0.69057   0.27724   0.00000  Uiso   1.00
C502   C     0.80844   0.97601   0.22012   0.00000  Uiso   1.00
C503   C     0.80587   0.69057   0.22275   0.00000  Uiso   1.00
C504   C     0.85823   0.97601   0.27988   0.00000  Uiso   1.00
C505   C     0.68795   0.79252   0.25010   0.00000  Uiso   1.00
C506   C     0.97871   0.87431   0.25005   0.00000  Uiso   1.00
C507   C     0.97872   0.79252   0.24990   0.00000  Uiso   1.00
C508   C     0.68796   0.87431   0.24995   0.00000  Uiso   1.00
C509   C     0.84753   0.87133   0.04775   0.00000  Uiso   1.00
C510   C     0.84783   0.79580   0.45357   0.00000  Uiso   1.00
C511   C     0.81914   0.87133   0.45225   0.00000  Uiso   1.00
C512   C     0.81884   0.79580   0.04643   0.00000  Uiso   1.00
C513   C     0.84723   0.87137   0.09374   0.00000  Uiso   1.00
C514   C     0.84760   0.79559   0.40756   0.00000  Uiso   1.00
C515   C     0.81943   0.87137   0.40626   0.00000  Uiso   1.00
C516   C     0.81907   0.79559   0.09244   0.00000  Uiso   1.00
C517   C     0.83317   0.83342   0.11610   0.00000  Uiso   1.00
C518   C     0.83350   0.83342   0.38390   0.00000  Uiso   1.00
C519   C     0.83324   0.83358   0.02407   0.00000  Uiso   1.00
C520   C     0.83342   0.83358   0.47593   0.00000  Uiso   1.00
C521   C     0.95749   0.83339   0.25000   0.00000  Uiso   1.00
C522   C     0.70918   0.83339   0.25000   0.00000  Uiso   1.00
H523   H     0.85927   0.90047   0.03072   0.00000  Uiso   1.00
H524   H     0.85952   0.76670   0.47169   0.00000  Uiso   1.00
H525   H     0.80739   0.90047   0.46928   0.00000  Uiso   1.00
H526   H     0.80715   0.76670   0.02831   0.00000  Uiso   1.00
H527   H     0.85853   0.90070   0.11177   0.00000  Uiso   1.00
H528   H     0.85888   0.76619   0.39062   0.00000  Uiso   1.00
H529   H     0.80814   0.90070   0.38823   0.00000  Uiso   1.00
H530   H     0.80779   0.76618   0.10938   0.00000  Uiso   1.00
H531   H     0.70404   0.76062   0.25036   0.00000  Uiso   1.00
H532   H     0.96258   0.90622   0.25012   0.00000  Uiso   1.00
H533   H     0.96263   0.76062   0.24964   0.00000  Uiso   1.00
H534   H     0.70408   0.90622   0.24988   0.00000  Uiso   1.00
N535   N     0.83333   0.95240   0.25000   0.00000  Uiso   1.00
N536   N     0.83333   0.71427   0.25000   0.00000  Uiso   1.00
O537   O     0.77226   0.87154   0.25000   0.00000  Uiso   1.00
O538   O     0.89441   0.79513   0.25000   0.00000  Uiso   1.00
O539   O     0.89441   0.87154   0.25000   0.00000  Uiso   1.00
O540   O     0.77226   0.79513   0.25000   0.00000  Uiso   1.00
O541   O     0.83333   0.87155   0.18453   0.00000  Uiso   1.00
O542   O     0.83334   0.79511   0.31547   0.00000  Uiso   1.00
O543   O     0.83334   0.87155   0.31547   0.00000  Uiso   1.00
O544   O     0.83333   0.79511   0.18453   0.00000  Uiso   1.00
Zn545  Zn    0.83333   0.88437   0.25000   0.00000  Uiso   1.00
Zn546  Zn    0.83333   0.78229   0.25000   0.00000  Uiso   1.00
C547   C     0.89461   0.71451   0.30240   0.00000  Uiso   1.00
H548   H     0.88990   0.74716   0.31641   0.00000  Uiso   1.00
O549   O     0.92922   0.69790   0.30701   0.00000  Uiso   1.00
C550   C     0.78568   0.95183   0.18364   0.00000  Uiso   1.00
H551   H     0.77003   0.92062   0.18951   0.00000  Uiso   1.00
O552   O     0.78475   0.96667   0.14568   0.00000  Uiso   1.00
C553   C     0.77205   0.71451   0.19760   0.00000  Uiso   1.00
H554   H     0.77676   0.74716   0.18359   0.00000  Uiso   1.00
O555   O     0.73744   0.69790   0.19299   0.00000  Uiso   1.00
C556   C     0.88099   0.95183   0.31636   0.00000  Uiso   1.00
H557   H     0.89664   0.92062   0.31049   0.00000  Uiso   1.00
O558   O     0.88191   0.96667   0.35432   0.00000  Uiso   1.00
C559   C     0.08672   0.16668   0.74995   0.00000  Uiso   1.00
C560   C     0.24661   0.16668   0.75005   0.00000  Uiso   1.00
C561   C     0.16655   0.16668   0.66403   0.00000  Uiso   1.00
C562   C     0.16678   0.16668   0.83597   0.00000  Uiso   1.00
C563   C     0.19413   0.02390   0.77724   0.00000  Uiso   1.00
C564   C     0.14177   0.30934   0.72012   0.00000  Uiso   1.00
C565   C     0.13920   0.02390   0.72275   0.00000  Uiso   1.00
C566   C     0.19156   0.30934   0.77988   0.00000  Uiso   1.00
C567   C     0.02128   0.12585   0.75010   0.00000  Uiso   1.00
C568   C     0.31204   0.20764   0.75005   0.00000  Uiso   1.00
C569   C     0.31205   0.12585   0.74990   0.00000  Uiso   1.00
C570   C     0.02129   0.20764   0.74995   0.00000  Uiso   1.00
C571   C     0.18086   0.20466   0.54775   0.00000  Uiso   1.00
C572   C     0.18116   0.12913   0.95357   0.00000  Uiso   1.00
C573   C     0.15247   0.20466   0.95225   0.00000  Uiso   1.00
C574   C     0.15218   0.12913   0.54643   0.00000  Uiso   1.00
C575   C     0.18057   0.20470   0.59374   0.00000  Uiso   1.00
C576   C     0.18093   0.12892   0.90756   0.00000  Uiso   1.00
C577   C     0.15277   0.20470   0.90626   0.00000  Uiso   1.00
C578   C     0.15240   0.12892   0.59244   0.00000  Uiso   1.00
C579   C     0.16650   0.16676   0.61610   0.00000  Uiso   1.00
C580   C     0.16683   0.16676   0.88390   0.00000  Uiso   1.00
C581   C     0.16658   0.16692   0.52407   0.00000  Uiso   1.00
C582   C     0.16676   0.16692   0.97593   0.00000  Uiso   1.00
C583   C     0.29082   0.16673   0.75000   0.00000  Uiso   1.00
C584   C     0.04251   0.16673   0.75000   0.00000  Uiso   1.00
H585   H     0.19261   0.23380   0.53072   0.00000  Uiso   1.00
H586   H     0.19286   0.10004   0.97169   0.00000  Uiso   1.00
H587   H     0.14073   0.23380   0.96928   0.00000  Uiso   1.00
H588   H     0.14048   0.10004   0.52831   0.00000  Uiso   1.00
H589   H     0.19186   0.23403   0.61177   0.00000  Uiso   1.00
H590   H     0.19221   0.09952   0.89062   0.00000  Uiso   1.00
H591   H     0.14147   0.23403   0.88823   0.00000  Uiso   1.00
H592   H     0.14113   0.09952   0.60938   0.00000  Uiso   1.00
H593   H     0.03737   0.09395   0.75036   0.00000  Uiso   1.00
H594   H     0.29592   0.23955   0.75012   0.00000  Uiso   1.00
H595   H     0.29596   0.09395   0.74964   0.00000  Uiso   1.00
H596   H     0.03742   0.23955   0.74988   0.00000  Uiso   1.00
N597   N     0.16667   0.28573   0.75000   0.00000  Uiso   1.00
N598   N     0.16667   0.04760   0.75000   0.00000  Uiso   1.00
O599   O     0.10559   0.20487   0.75000   0.00000  Uiso   1.00
O600   O     0.22774   0.12846   0.75000   0.00000  Uiso   1.00
O601   O     0.22774   0.20487   0.75000   0.00000  Uiso   1.00
O602   O     0.10559   0.12846   0.75000   0.00000  Uiso   1.00
O603   O     0.16666   0.20489   0.68453   0.00000  Uiso   1.00
O604   O     0.16667   0.12845   0.81547   0.00000  Uiso   1.00
O605   O     0.16667   0.20489   0.81547   0.00000  Uiso   1.00
O606   O     0.16666   0.12845   0.68453   0.00000  Uiso   1.00
Zn607  Zn    0.16667   0.21771   0.75000   0.00000  Uiso   1.00
Zn608  Zn    0.16667   0.11563   0.75000   0.00000  Uiso   1.00
C609   C     0.22795   0.04784   0.80240   0.00000  Uiso   1.00
H610   H     0.22324   0.08049   0.81641   0.00000  Uiso   1.00
O611   O     0.26256   0.03124   0.80701   0.00000  Uiso   1.00
C612   C     0.11901   0.28516   0.68364   0.00000  Uiso   1.00
H613   H     0.10336   0.25396   0.68951   0.00000  Uiso   1.00
O614   O     0.11809   0.30001   0.64568   0.00000  Uiso   1.00
C615   C     0.10539   0.04784   0.69760   0.00000  Uiso   1.00
H616   H     0.11010   0.08049   0.68359   0.00000  Uiso   1.00
O617   O     0.07078   0.03124   0.69299   0.00000  Uiso   1.00
C618   C     0.21432   0.28516   0.81636   0.00000  Uiso   1.00
H619   H     0.22997   0.25396   0.81049   0.00000  Uiso   1.00
O620   O     0.21525   0.30001   0.85432   0.00000  Uiso   1.00
C621   C     0.42005   0.16668   0.74995   0.00000  Uiso   1.00
C622   C     0.57995   0.16668   0.75005   0.00000  Uiso   1.00
C623   C     0.49989   0.16668   0.66403   0.00000  Uiso   1.00
C624   C     0.50011   0.16668   0.83597   0.00000  Uiso   1.00
C625   C     0.52747   0.02390   0.77724   0.00000  Uiso   1.00
C626   C     0.47511   0.30934   0.72012   0.00000  Uiso   1.00
C627   C     0.47253   0.02390   0.72275   0.00000  Uiso   1.00
C628   C     0.52489   0.30934   0.77988   0.00000  Uiso   1.00
C629   C     0.35462   0.12585   0.75010   0.00000  Uiso   1.00
C630   C     0.64537   0.20764   0.75005   0.00000  Uiso   1.00
C631   C     0.64538   0.12585   0.74990   0.00000  Uiso   1.00
C632   C     0.35463   0.20764   0.74995   0.00000  Uiso   1.00
C633   C     0.51419   0.20466   0.54775   0.00000  Uiso   1.00
C634   C     0.51449   0.12913   0.95357   0.00000  Uiso   1.00
C635   C     0.48581   0.20466   0.95225   0.00000  Uiso   1.00
C636   C     0.48551   0.12913   0.54643   0.00000  Uiso   1.00
C637   C     0.51390   0.20470   0.59374   0.00000  Uiso   1.00
C638   C     0.51426   0.12892   0.90756   0.00000  Uiso   1.00
C639   C     0.48610   0.20470   0.90626   0.00000  Uiso   1.00
C640   C     0.48574   0.12892   0.59244   0.00000  Uiso   1.00
C641   C     0.49983   0.16676   0.61610   0.00000  Uiso   1.00
C642   C     0.50017   0.16676   0.88390   0.00000  Uiso   1.00
C643   C     0.49991   0.16692   0.52407   0.00000  Uiso   1.00
C644   C     0.50009   0.16692   0.97593   0.00000  Uiso   1.00
C645   C     0.62415   0.16673   0.75000   0.00000  Uiso   1.00
C646   C     0.37585   0.16673   0.75000   0.00000  Uiso   1.00
H647   H     0.52594   0.23380   0.53072   0.00000  Uiso   1.00
H648   H     0.52619   0.10004   0.97169   0.00000  Uiso   1.00
H649   H     0.47406   0.23380   0.96928   0.00000  Uiso   1.00
H650   H     0.47381   0.10004   0.52831   0.00000  Uiso   1.00
H651   H     0.52520   0.23403   0.61177   0.00000  Uiso   1.00
H652   H     0.52554   0.09952   0.89062   0.00000  Uiso   1.00
H653   H     0.47480   0.23403   0.88823   0.00000  Uiso   1.00
H654   H     0.47446   0.09952   0.60938   0.00000  Uiso   1.00
H655   H     0.37070   0.09395   0.75036   0.00000  Uiso   1.00
H656   H     0.62925   0.23955   0.75012   0.00000  Uiso   1.00
H657   H     0.62930   0.09395   0.74964   0.00000  Uiso   1.00
H658   H     0.37075   0.23955   0.74988   0.00000  Uiso   1.00
N659   N     0.50000   0.28573   0.75000   0.00000  Uiso   1.00
N660   N     0.50000   0.04760   0.75000   0.00000  Uiso   1.00
O661   O     0.43892   0.20487   0.75000   0.00000  Uiso   1.00
O662   O     0.56108   0.12846   0.75000   0.00000  Uiso   1.00
O663   O     0.56108   0.20487   0.75000   0.00000  Uiso   1.00
O664   O     0.43892   0.12846   0.75000   0.00000  Uiso   1.00
O665   O     0.50000   0.20489   0.68453   0.00000  Uiso   1.00
O666   O     0.50000   0.12845   0.81547   0.00000  Uiso   1.00
O667   O     0.50000   0.20489   0.81547   0.00000  Uiso   1.00
O668   O     0.50000   0.12845   0.68453   0.00000  Uiso   1.00
Zn669  Zn    0.50000   0.21771   0.75000   0.00000  Uiso   1.00
Zn670  Zn    0.50000   0.11563   0.75000   0.00000  Uiso   1.00
C671   C     0.56128   0.04784   0.80240   0.00000  Uiso   1.00
H672   H     0.55657   0.08049   0.81641   0.00000  Uiso   1.00
O673   O     0.59589   0.03124   0.80701   0.00000  Uiso   1.00
C674   C     0.45235   0.28516   0.68364   0.00000  Uiso   1.00
H675   H     0.43670   0.25396   0.68951   0.00000  Uiso   1.00
O676   O     0.45142   0.30001   0.64568   0.00000  Uiso   1.00
C677   C     0.43872   0.04784   0.69760   0.00000  Uiso   1.00
H678   H     0.44343   0.08049   0.68359   0.00000  Uiso   1.00
O679   O     0.40411   0.03124   0.69299   0.00000  Uiso   1.00
C680   C     0.54765   0.28516   0.81636   0.00000  Uiso   1.00
H681   H     0.56330   0.25396   0.81049   0.00000  Uiso   1.00
O682   O     0.54858   0.30001   0.85432   0.00000  Uiso   1.00
C683   C     0.75339   0.16668   0.74995   0.00000  Uiso   1.00
C684   C     0.91328   0.16668   0.75005   0.00000  Uiso   1.00
C685   C     0.83322   0.16668   0.66403   0.00000  Uiso   1.00
C686   C     0.83345   0.16668   0.83597   0.00000  Uiso   1.00
C687   C     0.86080   0.02390   0.77724   0.00000  Uiso   1.00
C688   C     0.80844   0.30934   0.72012   0.00000  Uiso   1.00
C689   C     0.80587   0.02390   0.72275   0.00000  Uiso   1.00
C690   C     0.85823   0.30934   0.77988   0.00000  Uiso   1.00
C691   C     0.68795   0.12585   0.75010   0.00000  Uiso   1.00
C692   C     0.97871   0.20764   0.75005   0.00000  Uiso   1.00
C693   C     0.97872   0.12585   0.74990   0.00000  Uiso   1.00
C694   C     0.68796   0.20764   0.74995   0.00000  Uiso   1.00
C695   C     0.84753   0.20466   0.54775   0.00000  Uiso   1.00
C696   C     0.84783   0.12913   0.95357   0.00000  Uiso   1.00
C697   C     0.81914   0.20466   0.95225   0.00000  Uiso   1.00
C698   C     0.81884   0.12913   0.54643   0.00000  Uiso   1.00
C699   C     0.84723   0.20470   0.59374   0.00000  Uiso   1.00
C700   C     0.84760   0.12892   0.90756   0.00000  Uiso   1.00
C701   C     0.81943   0.20470   0.90626   0.00000  Uiso   1.00
C702   C     0.81907   0.12892   0.59244   0.00000  Uiso   1.00
C703   C     0.83317   0.16676   0.61610   0.00000  Uiso   1.00
C704   C     0.83350   0.16676   0.88390   0.00000  Uiso   1.00
C705   C     0.83324   0.16692   0.52407   0.00000  Uiso   1.00
C706   C     0.83342   0.16692   0.97593   0.00000  Uiso   1.00
C707   C     0.95749   0.16673   0.75000   0.00000  Uiso   1.00
C708   C     0.70918   0.16673   0.75000   0.00000  Uiso   1.00
H709   H     0.85927   0.23380   0.53072   0.00000  Uiso   1.00
H710   H     0.85952   0.10004   0.97169   0.00000  Uiso   1.00
H711   H     0.80739   0.23380   0.96928   0.00000  Uiso   1.00
H712   H     0.80715   0.10004   0.52831   0.00000  Uiso   1.00
H713   H     0.85853   0.23403   0.61177   0.00000  Uiso   1.00
H714   H     0.85888   0.09952   0.89062   0.00000  Uiso   1.00
H715   H     0.80814   0.23403   0.88823   0.00000  Uiso   1.00
H716   H     0.80779   0.09952   0.60938   0.00000  Uiso   1.00
H717   H     0.70404   0.09395   0.75036   0.00000  Uiso   1.00
H718   H     0.96258   0.23955   0.75012   0.00000  Uiso   1.00
H719   H     0.96263   0.09395   0.74964   0.00000  Uiso   1.00
H720   H     0.70408   0.23955   0.74988   0.00000  Uiso   1.00
N721   N     0.83333   0.28573   0.75000   0.00000  Uiso   1.00
N722   N     0.83333   0.04760   0.75000   0.00000  Uiso   1.00
O723   O     0.77226   0.20487   0.75000   0.00000  Uiso   1.00
O724   O     0.89441   0.12846   0.75000   0.00000  Uiso   1.00
O725   O     0.89441   0.20487   0.75000   0.00000  Uiso   1.00
O726   O     0.77226   0.12846   0.75000   0.00000  Uiso   1.00
O727   O     0.83333   0.20489   0.68453   0.00000  Uiso   1.00
O728   O     0.83334   0.12845   0.81547   0.00000  Uiso   1.00
O729   O     0.83334   0.20489   0.81547   0.00000  Uiso   1.00
O730   O     0.83333   0.12845   0.68453   0.00000  Uiso   1.00
Zn731  Zn    0.83333   0.21771   0.75000   0.00000  Uiso   1.00
Zn732  Zn    0.83333   0.11563   0.75000   0.00000  Uiso   1.00
C733   C     0.89461   0.04784   0.80240   0.00000  Uiso   1.00
H734   H     0.88990   0.08049   0.81641   0.00000  Uiso   1.00
O735   O     0.92922   0.03124   0.80701   0.00000  Uiso   1.00
C736   C     0.78568   0.28516   0.68364   0.00000  Uiso   1.00
H737   H     0.77003   0.25396   0.68951   0.00000  Uiso   1.00
O738   O     0.78475   0.30001   0.64568   0.00000  Uiso   1.00
C739   C     0.77205   0.04784   0.69760   0.00000  Uiso   1.00
H740   H     0.77676   0.08049   0.68359   0.00000  Uiso   1.00
O741   O     0.73744   0.03124   0.69299   0.00000  Uiso   1.00
C742   C     0.88099   0.28516   0.81636   0.00000  Uiso   1.00
H743   H     0.89664   0.25396   0.81049   0.00000  Uiso   1.00
O744   O     0.88191   0.30001   0.85432   0.00000  Uiso   1.00
C745   C     0.08672   0.50001   0.74995   0.00000  Uiso   1.00
C746   C     0.24661   0.50001   0.75005   0.00000  Uiso   1.00
C747   C     0.16655   0.50001   0.66403   0.00000  Uiso   1.00
C748   C     0.16678   0.50001   0.83597   0.00000  Uiso   1.00
C749   C     0.19413   0.35723   0.77724   0.00000  Uiso   1.00
C750   C     0.14177   0.64268   0.72012   0.00000  Uiso   1.00
C751   C     0.13920   0.35723   0.72275   0.00000  Uiso   1.00
C752   C     0.19156   0.64268   0.77988   0.00000  Uiso   1.00
C753   C     0.02128   0.45918   0.75010   0.00000  Uiso   1.00
C754   C     0.31204   0.54097   0.75005   0.00000  Uiso   1.00
C755   C     0.31205   0.45918   0.74990   0.00000  Uiso   1.00
C756   C     0.02129   0.54097   0.74995   0.00000  Uiso   1.00
C757   C     0.18086   0.53800   0.54775   0.00000  Uiso   1.00
C758   C     0.18116   0.46246   0.95357   0.00000  Uiso   1.00
C759   C     0.15247   0.53800   0.95225   0.00000  Uiso   1.00
C760   C     0.15218   0.46246   0.54643   0.00000  Uiso   1.00
C761   C     0.18057   0.53804   0.59374   0.00000  Uiso   1.00
C762   C     0.18093   0.46226   0.90756   0.00000  Uiso   1.00
C763   C     0.15277   0.53804   0.90626   0.00000  Uiso   1.00
C764   C     0.15240   0.46226   0.59244   0.00000  Uiso   1.00
C765   C     0.16650   0.50009   0.61610   0.00000  Uiso   1.00
C766   C     0.16683   0.50009   0.88390   0.00000  Uiso   1.00
C767   C     0.16658   0.50025   0.52407   0.00000  Uiso   1.00
C768   C     0.16676   0.50025   0.97593   0.00000  Uiso   1.00
C769   C     0.29082   0.50006   0.75000   0.00000  Uiso   1.00
C770   C     0.04251   0.50006   0.75000   0.00000  Uiso   1.00
H771   H     0.19261   0.56714   0.53072   0.00000  Uiso   1.00
H772   H     0.19286   0.43337   0.97169   0.00000  Uiso   1.00
H773   H     0.14073   0.56714   0.96928   0.00000  Uiso   1.00
H774   H     0.14048   0.43337   0.52831   0.00000  Uiso   1.00
H775   H     0.19186   0.56736   0.61177   0.00000  Uiso   1.00
H776   H     0.19221   0.43285   0.89062   0.00000  Uiso   1.00
H777   H     0.14147   0.56736   0.88823   0.00000  Uiso   1.00
H778   H     0.14113   0.43285   0.60938   0.00000  Uiso   1.00
H779   H     0.03737   0.42728   0.75036   0.00000  Uiso   1.00
H780   H     0.29592   0.57288   0.75012   0.00000  Uiso   1.00
H781   H     0.29596   0.42729   0.74964   0.00000  Uiso   1.00
H782   H     0.03742   0.57288   0.74988   0.00000  Uiso   1.00
N783   N     0.16667   0.61907   0.75000   0.00000  Uiso   1.00
N784   N     0.16667   0.38093   0.75000   0.00000  Uiso   1.00
O785   O     0.10559   0.53821   0.75000   0.00000  Uiso   1.00
O786   O     0.22774   0.46179   0.75000   0.00000  Uiso   1.00
O787   O     0.22774   0.53821   0.75000   0.00000  Uiso   1.00
O788   O     0.10559   0.46179   0.75000   0.00000  Uiso   1.00
O789   O     0.16666   0.53822   0.68453   0.00000  Uiso   1.00
O790   O     0.16667   0.46178   0.81547   0.00000  Uiso   1.00
O791   O     0.16667   0.53822   0.81547   0.00000  Uiso   1.00
O792   O     0.16666   0.46178   0.68453   0.00000  Uiso   1.00
Zn793  Zn    0.16667   0.55104   0.75000   0.00000  Uiso   1.00
Zn794  Zn    0.16667   0.44896   0.75000   0.00000  Uiso   1.00
C795   C     0.22795   0.38118   0.80240   0.00000  Uiso   1.00
H796   H     0.22324   0.41383   0.81641   0.00000  Uiso   1.00
O797   O     0.26256   0.36457   0.80701   0.00000  Uiso   1.00
C798   C     0.11901   0.61850   0.68364   0.00000  Uiso   1.00
H799   H     0.10336   0.58729   0.68951   0.00000  Uiso   1.00
O800   O     0.11809   0.63334   0.64568   0.00000  Uiso   1.00
C801   C     0.10539   0.38118   0.69760   0.00000  Uiso   1.00
H802   H     0.11010   0.41383   0.68359   0.00000  Uiso   1.00
O803   O     0.07078   0.36457   0.69299   0.00000  Uiso   1.00
C804   C     0.21432   0.61850   0.81636   0.00000  Uiso   1.00
H805   H     0.22997   0.58729   0.81049   0.00000  Uiso   1.00
O806   O     0.21525   0.63334   0.85432   0.00000  Uiso   1.00
C807   C     0.42005   0.50001   0.74995   0.00000  Uiso   1.00
C808   C     0.57995   0.50001   0.75005   0.00000  Uiso   1.00
C809   C     0.49989   0.50001   0.66403   0.00000  Uiso   1.00
C810   C     0.50011   0.50001   0.83597   0.00000  Uiso   1.00
C811   C     0.52747   0.35723   0.77724   0.00000  Uiso   1.00
C812   C     0.47511   0.64268   0.72012   0.00000  Uiso   1.00
C813   C     0.47253   0.35723   0.72275   0.00000  Uiso   1.00
C814   C     0.52489   0.64268   0.77988   0.00000  Uiso   1.00
C815   C     0.35462   0.45918   0.75010   0.00000  Uiso   1.00
C816   C     0.64537   0.54097   0.75005   0.00000  Uiso   1.00
C817   C     0.64538   0.45918   0.74990   0.00000  Uiso   1.00
C818   C     0.35463   0.54097   0.74995   0.00000  Uiso   1.00
C819   C     0.51419   0.53800   0.54775   0.00000  Uiso   1.00
C820   C     0.51449   0.46246   0.95357   0.00000  Uiso   1.00
C821   C     0.48581   0.53800   0.95225   0.00000  Uiso   1.00
C822   C     0.48551   0.46246   0.54643   0.00000  Uiso   1.00
C823   C     0.51390   0.53804   0.59374   0.00000  Uiso   1.00
C824   C     0.51426   0.46226   0.90756   0.00000  Uiso   1.00
C825   C     0.48610   0.53804   0.90626   0.00000  Uiso   1.00
C826   C     0.48574   0.46226   0.59244   0.00000  Uiso   1.00
C827   C     0.49983   0.50009   0.61610   0.00000  Uiso   1.00
C828   C     0.50017   0.50009   0.88390   0.00000  Uiso   1.00
C829   C     0.49991   0.50025   0.52407   0.00000  Uiso   1.00
C830   C     0.50009   0.50025   0.97593   0.00000  Uiso   1.00
C831   C     0.62415   0.50006   0.75000   0.00000  Uiso   1.00
C832   C     0.37585   0.50006   0.75000   0.00000  Uiso   1.00
H833   H     0.52594   0.56714   0.53072   0.00000  Uiso   1.00
H834   H     0.52619   0.43337   0.97169   0.00000  Uiso   1.00
H835   H     0.47406   0.56714   0.96928   0.00000  Uiso   1.00
H836   H     0.47381   0.43337   0.52831   0.00000  Uiso   1.00
H837   H     0.52520   0.56736   0.61177   0.00000  Uiso   1.00
H838   H     0.52554   0.43285   0.89062   0.00000  Uiso   1.00
H839   H     0.47480   0.56736   0.88823   0.00000  Uiso   1.00
H840   H     0.47446   0.43285   0.60938   0.00000  Uiso   1.00
H841   H     0.37070   0.42728   0.75036   0.00000  Uiso   1.00
H842   H     0.62925   0.57288   0.75012   0.00000  Uiso   1.00
H843   H     0.62930   0.42729   0.74964   0.00000  Uiso   1.00
H844   H     0.37075   0.57288   0.74988   0.00000  Uiso   1.00
N845   N     0.50000   0.61907   0.75000   0.00000  Uiso   1.00
N846   N     0.50000   0.38093   0.75000   0.00000  Uiso   1.00
O847   O     0.43892   0.53821   0.75000   0.00000  Uiso   1.00
O848   O     0.56108   0.46179   0.75000   0.00000  Uiso   1.00
O849   O     0.56108   0.53821   0.75000   0.00000  Uiso   1.00
O850   O     0.43892   0.46179   0.75000   0.00000  Uiso   1.00
O851   O     0.50000   0.53822   0.68453   0.00000  Uiso   1.00
O852   O     0.50000   0.46178   0.81547   0.00000  Uiso   1.00
O853   O     0.50000   0.53822   0.81547   0.00000  Uiso   1.00
O854   O     0.50000   0.46178   0.68453   0.00000  Uiso   1.00
Zn855  Zn    0.50000   0.55104   0.75000   0.00000  Uiso   1.00
Zn856  Zn    0.50000   0.44896   0.75000   0.00000  Uiso   1.00
C857   C     0.56128   0.38118   0.80240   0.00000  Uiso   1.00
H858   H     0.55657   0.41383   0.81641   0.00000  Uiso   1.00
O859   O     0.59589   0.36457   0.80701   0.00000  Uiso   1.00
C860   C     0.45235   0.61850   0.68364   0.00000  Uiso   1.00
H861   H     0.43670   0.58729   0.68951   0.00000  Uiso   1.00
O862   O     0.45142   0.63334   0.64568   0.00000  Uiso   1.00
C863   C     0.43872   0.38118   0.69760   0.00000  Uiso   1.00
H864   H     0.44343   0.41383   0.68359   0.00000  Uiso   1.00
O865   O     0.40411   0.36457   0.69299   0.00000  Uiso   1.00
C866   C     0.54765   0.61850   0.81636   0.00000  Uiso   1.00
H867   H     0.56330   0.58729   0.81049   0.00000  Uiso   1.00
O868   O     0.54858   0.63334   0.85432   0.00000  Uiso   1.00
C869   C     0.75339   0.50001   0.74995   0.00000  Uiso   1.00
C870   C     0.91328   0.50001   0.75005   0.00000  Uiso   1.00
C871   C     0.83322   0.50001   0.66403   0.00000  Uiso   1.00
C872   C     0.83345   0.50001   0.83597   0.00000  Uiso   1.00
C873   C     0.86080   0.35723   0.77724   0.00000  Uiso   1.00
C874   C     0.80844   0.64268   0.72012   0.00000  Uiso   1.00
C875   C     0.80587   0.35723   0.72275   0.00000  Uiso   1.00
C876   C     0.85823   0.64268   0.77988   0.00000  Uiso   1.00
C877   C     0.68795   0.45918   0.75010   0.00000  Uiso   1.00
C878   C     0.97871   0.54097   0.75005   0.00000  Uiso   1.00
C879   C     0.97872   0.45918   0.74990   0.00000  Uiso   1.00
C880   C     0.68796   0.54097   0.74995   0.00000  Uiso   1.00
C881   C     0.84753   0.53800   0.54775   0.00000  Uiso   1.00
C882   C     0.84783   0.46246   0.95357   0.00000  Uiso   1.00
C883   C     0.81914   0.53800   0.95225   0.00000  Uiso   1.00
C884   C     0.81884   0.46246   0.54643   0.00000  Uiso   1.00
C885   C     0.84723   0.53804   0.59374   0.00000  Uiso   1.00
C886   C     0.84760   0.46226   0.90756   0.00000  Uiso   1.00
C887   C     0.81943   0.53804   0.90626   0.00000  Uiso   1.00
C888   C     0.81907   0.46226   0.59244   0.00000  Uiso   1.00
C889   C     0.83317   0.50009   0.61610   0.00000  Uiso   1.00
C890   C     0.83350   0.50009   0.88390   0.00000  Uiso   1.00
C891   C     0.83324   0.50025   0.52407   0.00000  Uiso   1.00
C892   C     0.83342   0.50025   0.97593   0.00000  Uiso   1.00
C893   C     0.95749   0.50006   0.75000   0.00000  Uiso   1.00
C894   C     0.70918   0.50006   0.75000   0.00000  Uiso   1.00
H895   H     0.85927   0.56714   0.53072   0.00000  Uiso   1.00
H896   H     0.85952   0.43337   0.97169   0.00000  Uiso   1.00
H897   H     0.80739   0.56714   0.96928   0.00000  Uiso   1.00
H898   H     0.80715   0.43337   0.52831   0.00000  Uiso   1.00
H899   H     0.85853   0.56736   0.61177   0.00000  Uiso   1.00
H900   H     0.85888   0.43285   0.89062   0.00000  Uiso   1.00
H901   H     0.80814   0.56736   0.88823   0.00000  Uiso   1.00
H902   H     0.80779   0.43285   0.60938   0.00000  Uiso   1.00
H903   H     0.70404   0.42728   0.75036   0.00000  Uiso   1.00
H904   H     0.96258   0.57288   0.75012   0.00000  Uiso   1.00
H905   H     0.96263   0.42729   0.74964   0.00000  Uiso   1.00
H906   H     0.70408   0.57288   0.74988   0.00000  Uiso   1.00
N907   N     0.83333   0.61907   0.75000   0.00000  Uiso   1.00
N908   N     0.83333   0.38093   0.75000   0.00000  Uiso   1.00
O909   O     0.77226   0.53821   0.75000   0.00000  Uiso   1.00
O910   O     0.89441   0.46179   0.75000   0.00000  Uiso   1.00
O911   O     0.89441   0.53821   0.75000   0.00000  Uiso   1.00
O912   O     0.77226   0.46179   0.75000   0.00000  Uiso   1.00
O913   O     0.83333   0.53822   0.68453   0.00000  Uiso   1.00
O914   O     0.83334   0.46178   0.81547   0.00000  Uiso   1.00
O915   O     0.83334   0.53822   0.81547   0.00000  Uiso   1.00
O916   O     0.83333   0.46178   0.68453   0.00000  Uiso   1.00
Zn917  Zn    0.83333   0.55104   0.75000   0.00000  Uiso   1.00
Zn918  Zn    0.83333   0.44896   0.75000   0.00000  Uiso   1.00
C919   C     0.89461   0.38118   0.80240   0.00000  Uiso   1.00
H920   H     0.88990   0.41383   0.81641   0.00000  Uiso   1.00
O921   O     0.92922   0.36457   0.80701   0.00000  Uiso   1.00
C922   C     0.78568   0.61850   0.68364   0.00000  Uiso   1.00
H923   H     0.77003   0.58729   0.68951   0.00000  Uiso   1.00
O924   O     0.78475   0.63334   0.64568   0.00000  Uiso   1.00
C925   C     0.77205   0.38118   0.69760   0.00000  Uiso   1.00
H926   H     0.77676   0.41383   0.68359   0.00000  Uiso   1.00
O927   O     0.73744   0.36457   0.69299   0.00000  Uiso   1.00
C928   C     0.88099   0.61850   0.81636   0.00000  Uiso   1.00
H929   H     0.89664   0.58729   0.81049   0.00000  Uiso   1.00
O930   O     0.88191   0.63334   0.85432   0.00000  Uiso   1.00
C931   C     0.08672   0.83334   0.74995   0.00000  Uiso   1.00
C932   C     0.24661   0.83334   0.75005   0.00000  Uiso   1.00
C933   C     0.16655   0.83334   0.66403   0.00000  Uiso   1.00
C934   C     0.16678   0.83334   0.83597   0.00000  Uiso   1.00
C935   C     0.19413   0.69057   0.77724   0.00000  Uiso   1.00
C936   C     0.14177   0.97601   0.72012   0.00000  Uiso   1.00
C937   C     0.13920   0.69057   0.72275   0.00000  Uiso   1.00
C938   C     0.19156   0.97601   0.77988   0.00000  Uiso   1.00
C939   C     0.02128   0.79252   0.75010   0.00000  Uiso   1.00
C940   C     0.31204   0.87431   0.75005   0.00000  Uiso   1.00
C941   C     0.31205   0.79252   0.74990   0.00000  Uiso   1.00
C942   C     0.02129   0.87431   0.74995   0.00000  Uiso   1.00
C943   C     0.18086   0.87133   0.54775   0.00000  Uiso   1.00
C944   C     0.18116   0.79580   0.95357   0.00000  Uiso   1.00
C945   C     0.15247   0.87133   0.95225   0.00000  Uiso   1.00
C946   C     0.15218   0.79580   0.54643   0.00000  Uiso   1.00
C947   C     0.18057   0.87137   0.59374   0.00000  Uiso   1.00
C948   C     0.18093   0.79559   0.90756   0.00000  Uiso   1.00
C949   C     0.15277   0.87137   0.90626   0.00000  Uiso   1.00
C950   C     0.15240   0.79559   0.59244   0.00000  Uiso   1.00
C951   C     0.16650   0.83342   0.61610   0.00000  Uiso   1.00
C952   C     0.16683   0.83342   0.88390   0.00000  Uiso   1.00
C953   C     0.16658   0.83358   0.52407   0.00000  Uiso   1.00
C954   C     0.16676   0.83358   0.97593   0.00000  Uiso   1.00
C955   C     0.29082   0.83339   0.75000   0.00000  Uiso   1.00
C956   C     0.04251   0.83339   0.75000   0.00000  Uiso   1.00
H957   H     0.19261   0.90047   0.53072   0.00000  Uiso   1.00
H958   H     0.19286   0.76670   0.97169   0.00000  Uiso   1.00
H959   H     0.14073   0.90047   0.96928   0.00000  Uiso   1.00
H960   H     0.14048   0.76670   0.52831   0.00000  Uiso   1.00
H961   H     0.19186   0.90070   0.61177   0.00000  Uiso   1.00
H962   H     0.19221   0.76619   0.89062   0.00000  Uiso   1.00
H963   H     0.14147   0.90070   0.88823   0.00000  Uiso   1.00
H964   H     0.14113   0.76618   0.60938   0.00000  Uiso   1.00
H965   H     0.03737   0.76062   0.75036   0.00000  Uiso   1.00
H966   H     0.29592   0.90622   0.75012   0.00000  Uiso   1.00
H967   H     0.29596   0.76062   0.74964   0.00000  Uiso   1.00
H968   H     0.03742   0.90622   0.74988   0.00000  Uiso   1.00
N969   N     0.16667   0.95240   0.75000   0.00000  Uiso   1.00
N970   N     0.16667   0.71427   0.75000   0.00000  Uiso   1.00
O971   O     0.10559   0.87154   0.75000   0.00000  Uiso   1.00
O972   O     0.22774   0.79513   0.75000   0.00000  Uiso   1.00
O973   O     0.22774   0.87154   0.75000   0.00000  Uiso   1.00
O974   O     0.10559   0.79513   0.75000   0.00000  Uiso   1.00
O975   O     0.16666   0.87155   0.68453   0.00000  Uiso   1.00
O976   O     0.16667   0.79511   0.81547   0.00000  Uiso   1.00
O977   O     0.16667   0.87155   0.81547   0.00000  Uiso   1.00
O978   O     0.16666   0.79511   0.68453   0.00000  Uiso   1.00
Zn979  Zn    0.16667   0.88437   0.75000   0.00000  Uiso   1.00
Zn980  Zn    0.16667   0.78229   0.75000   0.00000  Uiso   1.00
C981   C     0.22795   0.71451   0.80240   0.00000  Uiso   1.00
H982   H     0.22324   0.74716   0.81641   0.00000  Uiso   1.00
O983   O     0.26256   0.69790   0.80701   0.00000  Uiso   1.00
C984   C     0.11901   0.95183   0.68364   0.00000  Uiso   1.00
H985   H     0.10336   0.92062   0.68951   0.00000  Uiso   1.00
O986   O     0.11809   0.96667   0.64568   0.00000  Uiso   1.00
C987   C     0.10539   0.71451   0.69760   0.00000  Uiso   1.00
H988   H     0.11010   0.74716   0.68359   0.00000  Uiso   1.00
O989   O     0.07078   0.69790   0.69299   0.00000  Uiso   1.00
C990   C     0.21432   0.95183   0.81636   0.00000  Uiso   1.00
H991   H     0.22997   0.92062   0.81049   0.00000  Uiso   1.00
O992   O     0.21525   0.96667   0.85432   0.00000  Uiso   1.00
C993   C     0.42005   0.83334   0.74995   0.00000  Uiso   1.00
C994   C     0.57995   0.83334   0.75005   0.00000  Uiso   1.00
C995   C     0.49989   0.83334   0.66403   0.00000  Uiso   1.00
C996   C     0.50011   0.83334   0.83597   0.00000  Uiso   1.00
C997   C     0.52747   0.69057   0.77724   0.00000  Uiso   1.00
C998   C     0.47511   0.97601   0.72012   0.00000  Uiso   1.00
C999   C     0.47253   0.69057   0.72275   0.00000  Uiso   1.00
C1000  C     0.52489   0.97601   0.77988   0.00000  Uiso   1.00
C1001  C     0.35462   0.79252   0.75010   0.00000  Uiso   1.00
C1002  C     0.64537   0.87431   0.75005   0.00000  Uiso   1.00
C1003  C     0.64538   0.79252   0.74990   0.00000  Uiso   1.00
C1004  C     0.35463   0.87431   0.74995   0.00000  Uiso   1.00
C1005  C     0.51419   0.87133   0.54775   0.00000  Uiso   1.00
C1006  C     0.51449   0.79580   0.95357   0.00000  Uiso   1.00
C1007  C     0.48581   0.87133   0.95225   0.00000  Uiso   1.00
C1008  C     0.48551   0.79580   0.54643   0.00000  Uiso   1.00
C1009  C     0.51390   0.87137   0.59374   0.00000  Uiso   1.00
C1010  C     0.51426   0.79559   0.90756   0.00000  Uiso   1.00
C1011  C     0.48610   0.87137   0.90626   0.00000  Uiso   1.00
C1012  C     0.48574   0.79559   0.59244   0.00000  Uiso   1.00
C1013  C     0.49983   0.83342   0.61610   0.00000  Uiso   1.00
C1014  C     0.50017   0.83342   0.88390   0.00000  Uiso   1.00
C1015  C     0.49991   0.83358   0.52407   0.00000  Uiso   1.00
C1016  C     0.50009   0.83358   0.97593   0.00000  Uiso   1.00
C1017  C     0.62415   0.83339   0.75000   0.00000  Uiso   1.00
C1018  C     0.37585   0.83339   0.75000   0.00000  Uiso   1.00
H1019  H     0.52594   0.90047   0.53072   0.00000  Uiso   1.00
H1020  H     0.52619   0.76670   0.97169   0.00000  Uiso   1.00
H1021  H     0.47406   0.90047   0.96928   0.00000  Uiso   1.00
H1022  H     0.47381   0.76670   0.52831   0.00000  Uiso   1.00
H1023  H     0.52520   0.90070   0.61177   0.00000  Uiso   1.00
H1024  H     0.52554   0.76619   0.89062   0.00000  Uiso   1.00
H1025  H     0.47480   0.90070   0.88823   0.00000  Uiso   1.00
H1026  H     0.47446   0.76618   0.60938   0.00000  Uiso   1.00
H1027  H     0.37070   0.76062   0.75036   0.00000  Uiso   1.00
H1028  H     0.62925   0.90622   0.75012   0.00000  Uiso   1.00
H1029  H     0.62930   0.76062   0.74964   0.00000  Uiso   1.00
H1030  H     0.37075   0.90622   0.74988   0.00000  Uiso   1.00
N1031  N     0.50000   0.95240   0.75000   0.00000  Uiso   1.00
N1032  N     0.50000   0.71427   0.75000   0.00000  Uiso   1.00
O1033  O     0.43892   0.87154   0.75000   0.00000  Uiso   1.00
O1034  O     0.56108   0.79513   0.75000   0.00000  Uiso   1.00
O1035  O     0.56108   0.87154   0.75000   0.00000  Uiso   1.00
O1036  O     0.43892   0.79513   0.75000   0.00000  Uiso   1.00
O1037  O     0.50000   0.87155   0.68453   0.00000  Uiso   1.00
O1038  O     0.50000   0.79511   0.81547   0.00000  Uiso   1.00
O1039  O     0.50000   0.87155   0.81547   0.00000  Uiso   1.00
O1040  O     0.50000   0.79511   0.68453   0.00000  Uiso   1.00
Zn1041 Zn    0.50000   0.88437   0.75000   0.00000  Uiso   1.00
Zn1042 Zn    0.50000   0.78229   0.75000   0.00000  Uiso   1.00
C1043  C     0.56128   0.71451   0.80240   0.00000  Uiso   1.00
H1044  H     0.55657   0.74716   0.81641   0.00000  Uiso   1.00
O1045  O     0.59589   0.69790   0.80701   0.00000  Uiso   1.00
C1046  C     0.45235   0.95183   0.68364   0.00000  Uiso   1.00
H1047  H     0.43670   0.92062   0.68951   0.00000  Uiso   1.00
O1048  O     0.45142   0.96667   0.64568   0.00000  Uiso   1.00
C1049  C     0.43872   0.71451   0.69760   0.00000  Uiso   1.00
H1050  H     0.44343   0.74716   0.68359   0.00000  Uiso   1.00
O1051  O     0.40411   0.69790   0.69299   0.00000  Uiso   1.00
C1052  C     0.54765   0.95183   0.81636   0.00000  Uiso   1.00
H1053  H     0.56330   0.92062   0.81049   0.00000  Uiso   1.00
O1054  O     0.54858   0.96667   0.85432   0.00000  Uiso   1.00
C1055  C     0.75339   0.83334   0.74995   0.00000  Uiso   1.00
C1056  C     0.91328   0.83334   0.75005   0.00000  Uiso   1.00
C1057  C     0.83322   0.83334   0.66403   0.00000  Uiso   1.00
C1058  C     0.83345   0.83334   0.83597   0.00000  Uiso   1.00
C1059  C     0.86080   0.69057   0.77724   0.00000  Uiso   1.00
C1060  C     0.80844   0.97601   0.72012   0.00000  Uiso   1.00
C1061  C     0.80587   0.69057   0.72275   0.00000  Uiso   1.00
C1062  C     0.85823   0.97601   0.77988   0.00000  Uiso   1.00
C1063  C     0.68795   0.79252   0.75010   0.00000  Uiso   1.00
C1064  C     0.97871   0.87431   0.75005   0.00000  Uiso   1.00
C1065  C     0.97872   0.79252   0.74990   0.00000  Uiso   1.00
C1066  C     0.68796   0.87431   0.74995   0.00000  Uiso   1.00
C1067  C     0.84753   0.87133   0.54775   0.00000  Uiso   1.00
C1068  C     0.84783   0.79580   0.95357   0.00000  Uiso   1.00
C1069  C     0.81914   0.87133   0.95225   0.00000  Uiso   1.00
C1070  C     0.81884   0.79580   0.54643   0.00000  Uiso   1.00
C1071  C     0.84723   0.87137   0.59374   0.00000  Uiso   1.00
C1072  C     0.84760   0.79559   0.90756   0.00000  Uiso   1.00
C1073  C     0.81943   0.87137   0.90626   0.00000  Uiso   1.00
C1074  C     0.81907   0.79559   0.59244   0.00000  Uiso   1.00
C1075  C     0.83317   0.83342   0.61610   0.00000  Uiso   1.00
C1076  C     0.83350   0.83342   0.88390   0.00000  Uiso   1.00
C1077  C     0.83324   0.83358   0.52407   0.00000  Uiso   1.00
C1078  C     0.83342   0.83358   0.97593   0.00000  Uiso   1.00
C1079  C     0.95749   0.83339   0.75000   0.00000  Uiso   1.00
C1080  C     0.70918   0.83339   0.75000   0.00000  Uiso   1.00
H1081  H     0.85927   0.90047   0.53072   0.00000  Uiso   1.00
H1082  H     0.85952   0.76670   0.97169   0.00000  Uiso   1.00
H1083  H     0.80739   0.90047   0.96928   0.00000  Uiso   1.00
H1084  H     0.80715   0.76670   0.52831   0.00000  Uiso   1.00
H1085  H     0.85853   0.90070   0.61177   0.00000  Uiso   1.00
H1086  H     0.85888   0.76619   0.89062   0.00000  Uiso   1.00
H1087  H     0.80814   0.90070   0.88823   0.00000  Uiso   1.00
H1088  H     0.80779   0.76618   0.60938   0.00000  Uiso   1.00
H1089  H     0.70404   0.76062   0.75036   0.00000  Uiso   1.00
H1090  H     0.96258   0.90622   0.75012   0.00000  Uiso   1.00
H1091  H     0.96263   0.76062   0.74964   0.00000  Uiso   1.00
H1092  H     0.70408   0.90622   0.74988   0.00000  Uiso   1.00
N1093  N     0.83333   0.95240   0.75000   0.00000  Uiso   1.00
N1094  N     0.83333   0.71427   0.75000   0.00000  Uiso   1.00
O1095  O     0.77226   0.87154   0.75000   0.00000  Uiso   1.00
O1096  O     0.89441   0.79513   0.75000   0.00000  Uiso   1.00
O1097  O     0.89441   0.87154   0.75000   0.00000  Uiso   1.00
O1098  O     0.77226   0.79513   0.75000   0.00000  Uiso   1.00
O1099  O     0.83333   0.87155   0.68453   0.00000  Uiso   1.00
O1100  O     0.83334   0.79511   0.81547   0.00000  Uiso   1.00
O1101  O     0.83334   0.87155   0.81547   0.00000  Uiso   1.00
O1102  O     0.83333   0.79511   0.68453   0.00000  Uiso   1.00
Zn1103 Zn    0.83333   0.88437   0.75000   0.00000  Uiso   1.00
Zn1104 Zn    0.83333   0.78229   0.75000   0.00000  Uiso   1.00
C1105  C     0.89461   0.71451   0.80240   0.00000  Uiso   1.00
H1106  H     0.88990   0.74716   0.81641   0.00000  Uiso   1.00
O1107  O     0.92922   0.69790   0.80701   0.00000  Uiso   1.00
C1108  C     0.78568   0.95183   0.68364   0.00000  Uiso   1.00
H1109  H     0.77003   0.92062   0.68951   0.00000  Uiso   1.00
O1110  O     0.78475   0.96667   0.64568   0.00000  Uiso   1.00
C1111  C     0.77205   0.71451   0.69760   0.00000  Uiso   1.00
H1112  H     0.77676   0.74716   0.68359   0.00000  Uiso   1.00
O1113  O     0.73744   0.69790   0.69299   0.00000  Uiso   1.00
C1114  C     0.88099   0.95183   0.81636   0.00000  Uiso   1.00
H1115  H     0.89664   0.92062   0.81049   0.00000  Uiso   1.00
O1116  O     0.88191   0.96667   0.85432   0.00000  Uiso   1.00
loop_
_geom_bond_atom_site_label_1
_geom_bond_atom_site_label_2
_geom_bond_distance
_geom_bond_site_symmetry_2
_ccdc_geom_bond_type
C1     O44     1.291   .     A
C1     C26     1.422   .     S
C1     O41     1.290   .     A
C2     O43     1.290   .     A
C2     O42     1.291   .     A
C2     C25     1.422   .     S
C3     O45     1.295   .     A
C3     C21     1.438   .     S
C3     O48     1.295   .     A
C4     C22     1.438   .     S
C4     O46     1.295   .     A
C4     O47     1.295   .     A
C5     N40     1.376   .     A
C5     C51     1.483   .     S
C5     C380    1.433   1_545 S
C6     N39     1.373   .     A
C6     C54     1.481   .     S
C6     C193    1.433   .     S
C7     N40     1.376   .     A
C7     C57     1.483   .     S
C7     C378    1.433   1_545 S
C8     N39     1.373   .     A
C8     C60     1.481   .     S
C8     C191    1.433   .     S
C9     C26     1.397   .     A
C9     H35     1.083   .     S
C9     C135    1.369   1_455 S
C10    C25     1.398   .     A
C10    H36     1.084   .     S
C10    C74     1.370   .     S
C11    C25     1.397   .     A
C11    H37     1.083   .     S
C11    C71     1.369   .     S
C12    H38     1.084   .     S
C12    C26     1.398   .     A
C12    C134    1.370   1_455 S
C13    C17     1.380   .     A
C13    C23     1.399   .     A
C13    H27     1.083   .     S
C14    C18     1.380   .     A
C14    C24     1.399   .     A
C14    H28     1.083   .     S
C15    H29     1.083   .     S
C15    C19     1.380   .     A
C15    C24     1.399   .     A
C16    C23     1.399   .     A
C16    C20     1.380   .     A
C16    H30     1.083   .     S
C17    H31     1.084   .     S
C17    C21     1.399   .     A
C18    H32     1.083   .     S
C18    C22     1.399   .     A
C19    C22     1.399   .     A
C19    H33     1.084   .     S
C20    H34     1.083   .     S
C20    C21     1.399   .     A
C23    C582    1.445   1_554 S
C24    C581    1.445   .     S
N39    Zn49    2.028   .     S
N40    Zn50    2.028   .     S
O41    Zn49    2.001   .     S
O42    Zn50    2.001   .     S
O43    Zn49    2.001   .     S
O44    Zn50    2.001   .     S
O45    Zn49    2.001   .     S
O46    Zn50    2.001   .     S
O47    Zn49    2.001   .     S
O48    Zn50    2.001   .     S
C51    H52     1.073   .     S
C51    O53     1.221   .     D
C54    O56     1.221   .     D
C54    H55     1.076   .     S
C57    H58     1.073   .     S
C57    O59     1.221   .     D
C60    H61     1.076   .     S
C60    O62     1.221   .     D
C63    O106    1.291   .     A
C63    C88     1.422   .     S
C63    O103    1.290   .     A
C64    O105    1.290   .     A
C64    O104    1.291   .     A
C64    C87     1.422   .     S
C65    O107    1.295   .     A
C65    C83     1.438   .     S
C65    O110    1.295   .     A
C66    C84     1.438   .     S
C66    O108    1.295   .     A
C66    O109    1.295   .     A
C67    N102    1.376   .     A
C67    C113    1.483   .     S
C67    C442    1.433   1_545 S
C68    N101    1.373   .     A
C68    C116    1.481   .     S
C68    C255    1.433   .     S
C69    N102    1.376   .     A
C69    C119    1.483   .     S
C69    C440    1.433   1_545 S
C70    N101    1.373   .     A
C70    C122    1.481   .     S
C70    C253    1.433   .     S
C71    C88     1.397   .     A
C71    H97     1.083   .     S
C72    C87     1.398   .     A
C72    H98     1.084   .     S
C72    C136    1.370   .     S
C73    C87     1.397   .     A
C73    H99     1.083   .     S
C73    C133    1.369   .     S
C74    H100    1.084   .     S
C74    C88     1.398   .     A
C75    C79     1.380   .     A
C75    C85     1.399   .     A
C75    H89     1.083   .     S
C76    C80     1.380   .     A
C76    C86     1.399   .     A
C76    H90     1.083   .     S
C77    H91     1.083   .     S
C77    C81     1.380   .     A
C77    C86     1.399   .     A
C78    C85     1.399   .     A
C78    C82     1.380   .     A
C78    H92     1.083   .     S
C79    H93     1.084   .     S
C79    C83     1.399   .     A
C80    H94     1.083   .     S
C80    C84     1.399   .     A
C81    C84     1.399   .     A
C81    H95     1.084   .     S
C82    H96     1.083   .     S
C82    C83     1.399   .     A
C85    C644    1.445   1_554 S
C86    C643    1.445   .     S
N101   Zn111   2.028   .     S
N102   Zn112   2.028   .     S
O103   Zn111   2.001   .     S
O104   Zn112   2.001   .     S
O105   Zn111   2.001   .     S
O106   Zn112   2.001   .     S
O107   Zn111   2.001   .     S
O108   Zn112   2.001   .     S
O109   Zn111   2.001   .     S
O110   Zn112   2.001   .     S
C113   H114    1.073   .     S
C113   O115    1.221   .     D
C116   O118    1.221   .     D
C116   H117    1.076   .     S
C119   H120    1.073   .     S
C119   O121    1.221   .     D
C122   H123    1.076   .     S
C122   O124    1.221   .     D
C125   O168    1.291   .     A
C125   C150    1.422   .     S
C125   O165    1.290   .     A
C126   O167    1.290   .     A
C126   O166    1.291   .     A
C126   C149    1.422   .     S
C127   O169    1.295   .     A
C127   C145    1.438   .     S
C127   O172    1.295   .     A
C128   C146    1.438   .     S
C128   O170    1.295   .     A
C128   O171    1.295   .     A
C129   N164    1.376   .     A
C129   C175    1.483   .     S
C129   C504    1.433   1_545 S
C130   N163    1.373   .     A
C130   C178    1.481   .     S
C130   C317    1.433   .     S
C131   N164    1.376   .     A
C131   C181    1.483   .     S
C131   C502    1.433   1_545 S
C132   N163    1.373   .     A
C132   C184    1.481   .     S
C132   C315    1.433   .     S
C133   C150    1.397   .     A
C133   H159    1.083   .     S
C134   C149    1.398   .     A
C134   H160    1.084   .     S
C134   C12     1.370   1_655 S
C135   C149    1.397   .     A
C135   H161    1.083   .     S
C135   C9      1.369   1_655 S
C136   H162    1.084   .     S
C136   C150    1.398   .     A
C137   C141    1.380   .     A
C137   C147    1.399   .     A
C137   H151    1.083   .     S
C138   C142    1.380   .     A
C138   C148    1.399   .     A
C138   H152    1.083   .     S
C139   H153    1.083   .     S
C139   C143    1.380   .     A
C139   C148    1.399   .     A
C140   C147    1.399   .     A
C140   C144    1.380   .     A
C140   H154    1.083   .     S
C141   H155    1.084   .     S
C141   C145    1.399   .     A
C142   H156    1.083   .     S
C142   C146    1.399   .     A
C143   C146    1.399   .     A
C143   H157    1.084   .     S
C144   H158    1.083   .     S
C144   C145    1.399   .     A
C147   C706    1.445   1_554 S
C148   C705    1.445   .     S
N163   Zn173   2.028   .     S
N164   Zn174   2.028   .     S
O165   Zn173   2.001   .     S
O166   Zn174   2.001   .     S
O167   Zn173   2.001   .     S
O168   Zn174   2.001   .     S
O169   Zn173   2.001   .     S
O170   Zn174   2.001   .     S
O171   Zn173   2.001   .     S
O172   Zn174   2.001   .     S
C175   H176    1.073   .     S
C175   O177    1.221   .     D
C178   O180    1.221   .     D
C178   H179    1.076   .     S
C181   H182    1.073   .     S
C181   O183    1.221   .     D
C184   H185    1.076   .     S
C184   O186    1.221   .     D
C187   O230    1.291   .     A
C187   C212    1.422   .     S
C187   O227    1.290   .     A
C188   O229    1.290   .     A
C188   O228    1.291   .     A
C188   C211    1.422   .     S
C189   O231    1.295   .     A
C189   C207    1.438   .     S
C189   O234    1.295   .     A
C190   C208    1.438   .     S
C190   O232    1.295   .     A
C190   O233    1.295   .     A
C191   N226    1.376   .     A
C191   C237    1.483   .     S
C192   N225    1.373   .     A
C192   C240    1.481   .     S
C192   C379    1.433   .     S
C193   N226    1.376   .     A
C193   C243    1.483   .     S
C194   N225    1.373   .     A
C194   C246    1.481   .     S
C194   C377    1.433   .     S
C195   C212    1.397   .     A
C195   H221    1.083   .     S
C195   C321    1.369   1_455 S
C196   C211    1.398   .     A
C196   H222    1.084   .     S
C196   C260    1.370   .     S
C197   C211    1.397   .     A
C197   H223    1.083   .     S
C197   C257    1.369   .     S
C198   H224    1.084   .     S
C198   C212    1.398   .     A
C198   C320    1.370   1_455 S
C199   C203    1.380   .     A
C199   C209    1.399   .     A
C199   H213    1.083   .     S
C200   C204    1.380   .     A
C200   C210    1.399   .     A
C200   H214    1.083   .     S
C201   H215    1.083   .     S
C201   C205    1.380   .     A
C201   C210    1.399   .     A
C202   C209    1.399   .     A
C202   C206    1.380   .     A
C202   H216    1.083   .     S
C203   H217    1.084   .     S
C203   C207    1.399   .     A
C204   H218    1.083   .     S
C204   C208    1.399   .     A
C205   C208    1.399   .     A
C205   H219    1.084   .     S
C206   H220    1.083   .     S
C206   C207    1.399   .     A
C209   C768    1.445   1_554 S
C210   C767    1.445   .     S
N225   Zn235   2.028   .     S
N226   Zn236   2.028   .     S
O227   Zn235   2.001   .     S
O228   Zn236   2.001   .     S
O229   Zn235   2.001   .     S
O230   Zn236   2.001   .     S
O231   Zn235   2.001   .     S
O232   Zn236   2.001   .     S
O233   Zn235   2.001   .     S
O234   Zn236   2.001   .     S
C237   H238    1.073   .     S
C237   O239    1.221   .     D
C240   O242    1.221   .     D
C240   H241    1.076   .     S
C243   H244    1.073   .     S
C243   O245    1.221   .     D
C246   H247    1.076   .     S
C246   O248    1.221   .     D
C249   O292    1.291   .     A
C249   C274    1.422   .     S
C249   O289    1.290   .     A
C250   O291    1.290   .     A
C250   O290    1.291   .     A
C250   C273    1.422   .     S
C251   O293    1.295   .     A
C251   C269    1.438   .     S
C251   O296    1.295   .     A
C252   C270    1.438   .     S
C252   O294    1.295   .     A
C252   O295    1.295   .     A
C253   N288    1.376   .     A
C253   C299    1.483   .     S
C254   N287    1.373   .     A
C254   C302    1.481   .     S
C254   C441    1.433   .     S
C255   N288    1.376   .     A
C255   C305    1.483   .     S
C256   N287    1.373   .     A
C256   C308    1.481   .     S
C256   C439    1.433   .     S
C257   C274    1.397   .     A
C257   H283    1.083   .     S
C258   C273    1.398   .     A
C258   H284    1.084   .     S
C258   C322    1.370   .     S
C259   C273    1.397   .     A
C259   H285    1.083   .     S
C259   C319    1.369   .     S
C260   H286    1.084   .     S
C260   C274    1.398   .     A
C261   C265    1.380   .     A
C261   C271    1.399   .     A
C261   H275    1.083   .     S
C262   C266    1.380   .     A
C262   C272    1.399   .     A
C262   H276    1.083   .     S
C263   H277    1.083   .     S
C263   C267    1.380   .     A
C263   C272    1.399   .     A
C264   C271    1.399   .     A
C264   C268    1.380   .     A
C264   H278    1.083   .     S
C265   H279    1.084   .     S
C265   C269    1.399   .     A
C266   H280    1.083   .     S
C266   C270    1.399   .     A
C267   C270    1.399   .     A
C267   H281    1.084   .     S
C268   H282    1.083   .     S
C268   C269    1.399   .     A
C271   C830    1.445   1_554 S
C272   C829    1.445   .     S
N287   Zn297   2.028   .     S
N288   Zn298   2.028   .     S
O289   Zn297   2.001   .     S
O290   Zn298   2.001   .     S
O291   Zn297   2.001   .     S
O292   Zn298   2.001   .     S
O293   Zn297   2.001   .     S
O294   Zn298   2.001   .     S
O295   Zn297   2.001   .     S
O296   Zn298   2.001   .     S
C299   H300    1.073   .     S
C299   O301    1.221   .     D
C302   O304    1.221   .     D
C302   H303    1.076   .     S
C305   H306    1.073   .     S
C305   O307    1.221   .     D
C308   H309    1.076   .     S
C308   O310    1.221   .     D
C311   O354    1.291   .     A
C311   C336    1.422   .     S
C311   O351    1.290   .     A
C312   O353    1.290   .     A
C312   O352    1.291   .     A
C312   C335    1.422   .     S
C313   O355    1.295   .     A
C313   C331    1.438   .     S
C313   O358    1.295   .     A
C314   C332    1.438   .     S
C314   O356    1.295   .     A
C314   O357    1.295   .     A
C315   N350    1.376   .     A
C315   C361    1.483   .     S
C316   N349    1.373   .     A
C316   C364    1.481   .     S
C316   C503    1.433   .     S
C317   N350    1.376   .     A
C317   C367    1.483   .     S
C318   N349    1.373   .     A
C318   C370    1.481   .     S
C318   C501    1.433   .     S
C319   C336    1.397   .     A
C319   H345    1.083   .     S
C320   C335    1.398   .     A
C320   H346    1.084   .     S
C320   C198    1.370   1_655 S
C321   C335    1.397   .     A
C321   H347    1.083   .     S
C321   C195    1.369   1_655 S
C322   H348    1.084   .     S
C322   C336    1.398   .     A
C323   C327    1.380   .     A
C323   C333    1.399   .     A
C323   H337    1.083   .     S
C324   C328    1.380   .     A
C324   C334    1.399   .     A
C324   H338    1.083   .     S
C325   H339    1.083   .     S
C325   C329    1.380   .     A
C325   C334    1.399   .     A
C326   C333    1.399   .     A
C326   C330    1.380   .     A
C326   H340    1.083   .     S
C327   H341    1.084   .     S
C327   C331    1.399   .     A
C328   H342    1.083   .     S
C328   C332    1.399   .     A
C329   C332    1.399   .     A
C329   H343    1.084   .     S
C330   H344    1.083   .     S
C330   C331    1.399   .     A
C333   C892    1.445   1_554 S
C334   C891    1.445   .     S
N349   Zn359   2.028   .     S
N350   Zn360   2.028   .     S
O351   Zn359   2.001   .     S
O352   Zn360   2.001   .     S
O353   Zn359   2.001   .     S
O354   Zn360   2.001   .     S
O355   Zn359   2.001   .     S
O356   Zn360   2.001   .     S
O357   Zn359   2.001   .     S
O358   Zn360   2.001   .     S
C361   H362    1.073   .     S
C361   O363    1.221   .     D
C364   O366    1.221   .     D
C364   H365    1.076   .     S
C367   H368    1.073   .     S
C367   O369    1.221   .     D
C370   H371    1.076   .     S
C370   O372    1.221   .     D
C373   O416    1.291   .     A
C373   C398    1.422   .     S
C373   O413    1.290   .     A
C374   O415    1.290   .     A
C374   O414    1.291   .     A
C374   C397    1.422   .     S
C375   O417    1.295   .     A
C375   C393    1.438   .     S
C375   O420    1.295   .     A
C376   C394    1.438   .     S
C376   O418    1.295   .     A
C376   O419    1.295   .     A
C377   N412    1.376   .     A
C377   C423    1.483   .     S
C378   N411    1.373   .     A
C378   C426    1.481   .     S
C378   C7      1.433   1_565 S
C379   N412    1.376   .     A
C379   C429    1.483   .     S
C380   N411    1.373   .     A
C380   C432    1.481   .     S
C380   C5      1.433   1_565 S
C381   C398    1.397   .     A
C381   H407    1.083   .     S
C381   C507    1.369   1_455 S
C382   C397    1.398   .     A
C382   H408    1.084   .     S
C382   C446    1.370   .     S
C383   C397    1.397   .     A
C383   H409    1.083   .     S
C383   C443    1.369   .     S
C384   H410    1.084   .     S
C384   C398    1.398   .     A
C384   C506    1.370   1_455 S
C385   C389    1.380   .     A
C385   C395    1.399   .     A
C385   H399    1.083   .     S
C386   C390    1.380   .     A
C386   C396    1.399   .     A
C386   H400    1.083   .     S
C387   H401    1.083   .     S
C387   C391    1.380   .     A
C387   C396    1.399   .     A
C388   C395    1.399   .     A
C388   C392    1.380   .     A
C388   H402    1.083   .     S
C389   H403    1.084   .     S
C389   C393    1.399   .     A
C390   H404    1.083   .     S
C390   C394    1.399   .     A
C391   C394    1.399   .     A
C391   H405    1.084   .     S
C392   H406    1.083   .     S
C392   C393    1.399   .     A
C395   C954    1.445   1_554 S
C396   C953    1.445   .     S
N411   Zn421   2.028   .     S
N412   Zn422   2.028   .     S
O413   Zn421   2.001   .     S
O414   Zn422   2.001   .     S
O415   Zn421   2.001   .     S
O416   Zn422   2.001   .     S
O417   Zn421   2.001   .     S
O418   Zn422   2.001   .     S
O419   Zn421   2.001   .     S
O420   Zn422   2.001   .     S
C423   H424    1.073   .     S
C423   O425    1.221   .     D
C426   O428    1.221   .     D
C426   H427    1.076   .     S
C429   H430    1.073   .     S
C429   O431    1.221   .     D
C432   H433    1.076   .     S
C432   O434    1.221   .     D
C435   O478    1.291   .     A
C435   C460    1.422   .     S
C435   O475    1.290   .     A
C436   O477    1.290   .     A
C436   O476    1.291   .     A
C436   C459    1.422   .     S
C437   O479    1.295   .     A
C437   C455    1.438   .     S
C437   O482    1.295   .     A
C438   C456    1.438   .     S
C438   O480    1.295   .     A
C438   O481    1.295   .     A
C439   N474    1.376   .     A
C439   C485    1.483   .     S
C440   N473    1.373   .     A
C440   C488    1.481   .     S
C440   C69     1.433   1_565 S
C441   N474    1.376   .     A
C441   C491    1.483   .     S
C442   N473    1.373   .     A
C442   C494    1.481   .     S
C442   C67     1.433   1_565 S
C443   C460    1.397   .     A
C443   H469    1.083   .     S
C444   C459    1.398   .     A
C444   H470    1.084   .     S
C444   C508    1.370   .     S
C445   C459    1.397   .     A
C445   H471    1.083   .     S
C445   C505    1.369   .     S
C446   H472    1.084   .     S
C446   C460    1.398   .     A
C447   C451    1.380   .     A
C447   C457    1.399   .     A
C447   H461    1.083   .     S
C448   C452    1.380   .     A
C448   C458    1.399   .     A
C448   H462    1.083   .     S
C449   H463    1.083   .     S
C449   C453    1.380   .     A
C449   C458    1.399   .     A
C450   C457    1.399   .     A
C450   C454    1.380   .     A
C450   H464    1.083   .     S
C451   H465    1.084   .     S
C451   C455    1.399   .     A
C452   H466    1.083   .     S
C452   C456    1.399   .     A
C453   C456    1.399   .     A
C453   H467    1.084   .     S
C454   H468    1.083   .     S
C454   C455    1.399   .     A
C457   C1016   1.445   1_554 S
C458   C1015   1.445   .     S
N473   Zn483   2.028   .     S
N474   Zn484   2.028   .     S
O475   Zn483   2.001   .     S
O476   Zn484   2.001   .     S
O477   Zn483   2.001   .     S
O478   Zn484   2.001   .     S
O479   Zn483   2.001   .     S
O480   Zn484   2.001   .     S
O481   Zn483   2.001   .     S
O482   Zn484   2.001   .     S
C485   H486    1.073   .     S
C485   O487    1.221   .     D
C488   O490    1.221   .     D
C488   H489    1.076   .     S
C491   H492    1.073   .     S
C491   O493    1.221   .     D
C494   H495    1.076   .     S
C494   O496    1.221   .     D
C497   O540    1.291   .     A
C497   C522    1.422   .     S
C497   O537    1.290   .     A
C498   O539    1.290   .     A
C498   O538    1.291   .     A
C498   C521    1.422   .     S
C499   O541    1.295   .     A
C499   C517    1.438   .     S
C499   O544    1.295   .     A
C500   C518    1.438   .     S
C500   O542    1.295   .     A
C500   O543    1.295   .     A
C501   N536    1.376   .     A
C501   C547    1.483   .     S
C502   N535    1.373   .     A
C502   C550    1.481   .     S
C502   C131    1.433   1_565 S
C503   N536    1.376   .     A
C503   C553    1.483   .     S
C504   N535    1.373   .     A
C504   C556    1.481   .     S
C504   C129    1.433   1_565 S
C505   C522    1.397   .     A
C505   H531    1.083   .     S
C506   C521    1.398   .     A
C506   H532    1.084   .     S
C506   C384    1.370   1_655 S
C507   C521    1.397   .     A
C507   H533    1.083   .     S
C507   C381    1.369   1_655 S
C508   H534    1.084   .     S
C508   C522    1.398   .     A
C509   C513    1.380   .     A
C509   C519    1.399   .     A
C509   H523    1.083   .     S
C510   C514    1.380   .     A
C510   C520    1.399   .     A
C510   H524    1.083   .     S
C511   H525    1.083   .     S
C511   C515    1.380   .     A
C511   C520    1.399   .     A
C512   C519    1.399   .     A
C512   C516    1.380   .     A
C512   H526    1.083   .     S
C513   H527    1.084   .     S
C513   C517    1.399   .     A
C514   H528    1.083   .     S
C514   C518    1.399   .     A
C515   C518    1.399   .     A
C515   H529    1.084   .     S
C516   H530    1.083   .     S
C516   C517    1.399   .     A
C519   C1078   1.445   1_554 S
C520   C1077   1.445   .     S
N535   Zn545   2.028   .     S
N536   Zn546   2.028   .     S
O537   Zn545   2.001   .     S
O538   Zn546   2.001   .     S
O539   Zn545   2.001   .     S
O540   Zn546   2.001   .     S
O541   Zn545   2.001   .     S
O542   Zn546   2.001   .     S
O543   Zn545   2.001   .     S
O544   Zn546   2.001   .     S
C547   H548    1.073   .     S
C547   O549    1.221   .     D
C550   O552    1.221   .     D
C550   H551    1.076   .     S
C553   H554    1.073   .     S
C553   O555    1.221   .     D
C556   H557    1.076   .     S
C556   O558    1.221   .     D
C559   O602    1.291   .     A
C559   C584    1.422   .     S
C559   O599    1.290   .     A
C560   O601    1.290   .     A
C560   O600    1.291   .     A
C560   C583    1.422   .     S
C561   O603    1.295   .     A
C561   C579    1.438   .     S
C561   O606    1.295   .     A
C562   C580    1.438   .     S
C562   O604    1.295   .     A
C562   O605    1.295   .     A
C563   N598    1.376   .     A
C563   C609    1.483   .     S
C563   C938    1.433   1_545 S
C564   N597    1.373   .     A
C564   C612    1.481   .     S
C564   C751    1.433   .     S
C565   N598    1.376   .     A
C565   C615    1.483   .     S
C565   C936    1.433   1_545 S
C566   N597    1.373   .     A
C566   C618    1.481   .     S
C566   C749    1.433   .     S
C567   C584    1.397   .     A
C567   H593    1.083   .     S
C567   C693    1.369   1_455 S
C568   C583    1.398   .     A
C568   H594    1.084   .     S
C568   C632    1.370   .     S
C569   C583    1.397   .     A
C569   H595    1.083   .     S
C569   C629    1.369   .     S
C570   H596    1.084   .     S
C570   C584    1.398   .     A
C570   C692    1.370   1_455 S
C571   C575    1.380   .     A
C571   C581    1.399   .     A
C571   H585    1.083   .     S
C572   C576    1.380   .     A
C572   C582    1.399   .     A
C572   H586    1.083   .     S
C573   H587    1.083   .     S
C573   C577    1.380   .     A
C573   C582    1.399   .     A
C574   C581    1.399   .     A
C574   C578    1.380   .     A
C574   H588    1.083   .     S
C575   H589    1.084   .     S
C575   C579    1.399   .     A
C576   H590    1.083   .     S
C576   C580    1.399   .     A
C577   C580    1.399   .     A
C577   H591    1.084   .     S
C578   H592    1.083   .     S
C578   C579    1.399   .     A
C582   C23     1.445   1_556 S
N597   Zn607   2.028   .     S
N598   Zn608   2.028   .     S
O599   Zn607   2.001   .     S
O600   Zn608   2.001   .     S
O601   Zn607   2.001   .     S
O602   Zn608   2.001   .     S
O603   Zn607   2.001   .     S
O604   Zn608   2.001   .     S
O605   Zn607   2.001   .     S
O606   Zn608   2.001   .     S
C609   H610    1.073   .     S
C609   O611    1.221   .     D
C612   O614    1.221   .     D
C612   H613    1.076   .     S
C615   H616    1.073   .     S
C615   O617    1.221   .     D
C618   H619    1.076   .     S
C618   O620    1.221   .     D
C621   O664    1.291   .     A
C621   C646    1.422   .     S
C621   O661    1.290   .     A
C622   O663    1.290   .     A
C622   O662    1.291   .     A
C622   C645    1.422   .     S
C623   O665    1.295   .     A
C623   C641    1.438   .     S
C623   O668    1.295   .     A
C624   C642    1.438   .     S
C624   O666    1.295   .     A
C624   O667    1.295   .     A
C625   N660    1.376   .     A
C625   C671    1.483   .     S
C625   C1000   1.433   1_545 S
C626   N659    1.373   .     A
C626   C674    1.481   .     S
C626   C813    1.433   .     S
C627   N660    1.376   .     A
C627   C677    1.483   .     S
C627   C998    1.433   1_545 S
C628   N659    1.373   .     A
C628   C680    1.481   .     S
C628   C811    1.433   .     S
C629   C646    1.397   .     A
C629   H655    1.083   .     S
C630   C645    1.398   .     A
C630   H656    1.084   .     S
C630   C694    1.370   .     S
C631   C645    1.397   .     A
C631   H657    1.083   .     S
C631   C691    1.369   .     S
C632   H658    1.084   .     S
C632   C646    1.398   .     A
C633   C637    1.380   .     A
C633   C643    1.399   .     A
C633   H647    1.083   .     S
C634   C638    1.380   .     A
C634   C644    1.399   .     A
C634   H648    1.083   .     S
C635   H649    1.083   .     S
C635   C639    1.380   .     A
C635   C644    1.399   .     A
C636   C643    1.399   .     A
C636   C640    1.380   .     A
C636   H650    1.083   .     S
C637   H651    1.084   .     S
C637   C641    1.399   .     A
C638   H652    1.083   .     S
C638   C642    1.399   .     A
C639   C642    1.399   .     A
C639   H653    1.084   .     S
C640   H654    1.083   .     S
C640   C641    1.399   .     A
C644   C85     1.445   1_556 S
N659   Zn669   2.028   .     S
N660   Zn670   2.028   .     S
O661   Zn669   2.001   .     S
O662   Zn670   2.001   .     S
O663   Zn669   2.001   .     S
O664   Zn670   2.001   .     S
O665   Zn669   2.001   .     S
O666   Zn670   2.001   .     S
O667   Zn669   2.001   .     S
O668   Zn670   2.001   .     S
C671   H672    1.073   .     S
C671   O673    1.221   .     D
C674   O676    1.221   .     D
C674   H675    1.076   .     S
C677   H678    1.073   .     S
C677   O679    1.221   .     D
C680   H681    1.076   .     S
C680   O682    1.221   .     D
C683   O726    1.291   .     A
C683   C708    1.422   .     S
C683   O723    1.290   .     A
C684   O725    1.290   .     A
C684   O724    1.291   .     A
C684   C707    1.422   .     S
C685   O727    1.295   .     A
C685   C703    1.438   .     S
C685   O730    1.295   .     A
C686   C704    1.438   .     S
C686   O728    1.295   .     A
C686   O729    1.295   .     A
C687   N722    1.376   .     A
C687   C733    1.483   .     S
C687   C1062   1.433   1_545 S
C688   N721    1.373   .     A
C688   C736    1.481   .     S
C688   C875    1.433   .     S
C689   N722    1.376   .     A
C689   C739    1.483   .     S
C689   C1060   1.433   1_545 S
C690   N721    1.373   .     A
C690   C742    1.481   .     S
C690   C873    1.433   .     S
C691   C708    1.397   .     A
C691   H717    1.083   .     S
C692   C707    1.398   .     A
C692   H718    1.084   .     S
C692   C570    1.370   1_655 S
C693   C707    1.397   .     A
C693   H719    1.083   .     S
C693   C567    1.369   1_655 S
C694   H720    1.084   .     S
C694   C708    1.398   .     A
C695   C699    1.380   .     A
C695   C705    1.399   .     A
C695   H709    1.083   .     S
C696   C700    1.380   .     A
C696   C706    1.399   .     A
C696   H710    1.083   .     S
C697   H711    1.083   .     S
C697   C701    1.380   .     A
C697   C706    1.399   .     A
C698   C705    1.399   .     A
C698   C702    1.380   .     A
C698   H712    1.083   .     S
C699   H713    1.084   .     S
C699   C703    1.399   .     A
C700   H714    1.083   .     S
C700   C704    1.399   .     A
C701   C704    1.399   .     A
C701   H715    1.084   .     S
C702   H716    1.083   .     S
C702   C703    1.399   .     A
C706   C147    1.445   1_556 S
N721   Zn731   2.028   .     S
N722   Zn732   2.028   .     S
O723   Zn731   2.001   .     S
O724   Zn732   2.001   .     S
O725   Zn731   2.001   .     S
O726   Zn732   2.001   .     S
O727   Zn731   2.001   .     S
O728   Zn732   2.001   .     S
O729   Zn731   2.001   .     S
O730   Zn732   2.001   .     S
C733   H734    1.073   .     S
C733   O735    1.221   .     D
C736   O738    1.221   .     D
C736   H737    1.076   .     S
C739   H740    1.073   .     S
C739   O741    1.221   .     D
C742   H743    1.076   .     S
C742   O744    1.221   .     D
C745   O788    1.291   .     A
C745   C770    1.422   .     S
C745   O785    1.290   .     A
C746   O787    1.290   .     A
C746   O786    1.291   .     A
C746   C769    1.422   .     S
C747   O789    1.295   .     A
C747   C765    1.438   .     S
C747   O792    1.295   .     A
C748   C766    1.438   .     S
C748   O790    1.295   .     A
C748   O791    1.295   .     A
C749   N784    1.376   .     A
C749   C795    1.483   .     S
C750   N783    1.373   .     A
C750   C798    1.481   .     S
C750   C937    1.433   .     S
C751   N784    1.376   .     A
C751   C801    1.483   .     S
C752   N783    1.373   .     A
C752   C804    1.481   .     S
C752   C935    1.433   .     S
C753   C770    1.397   .     A
C753   H779    1.083   .     S
C753   C879    1.369   1_455 S
C754   C769    1.398   .     A
C754   H780    1.084   .     S
C754   C818    1.370   .     S
C755   C769    1.397   .     A
C755   H781    1.083   .     S
C755   C815    1.369   .     S
C756   H782    1.084   .     S
C756   C770    1.398   .     A
C756   C878    1.370   1_455 S
C757   C761    1.380   .     A
C757   C767    1.399   .     A
C757   H771    1.083   .     S
C758   C762    1.380   .     A
C758   C768    1.399   .     A
C758   H772    1.083   .     S
C759   H773    1.083   .     S
C759   C763    1.380   .     A
C759   C768    1.399   .     A
C760   C767    1.399   .     A
C760   C764    1.380   .     A
C760   H774    1.083   .     S
C761   H775    1.084   .     S
C761   C765    1.399   .     A
C762   H776    1.083   .     S
C762   C766    1.399   .     A
C763   C766    1.399   .     A
C763   H777    1.084   .     S
C764   H778    1.083   .     S
C764   C765    1.399   .     A
C768   C209    1.445   1_556 S
N783   Zn793   2.028   .     S
N784   Zn794   2.028   .     S
O785   Zn793   2.001   .     S
O786   Zn794   2.001   .     S
O787   Zn793   2.001   .     S
O788   Zn794   2.001   .     S
O789   Zn793   2.001   .     S
O790   Zn794   2.001   .     S
O791   Zn793   2.001   .     S
O792   Zn794   2.001   .     S
C795   H796    1.073   .     S
C795   O797    1.221   .     D
C798   O800    1.221   .     D
C798   H799    1.076   .     S
C801   H802    1.073   .     S
C801   O803    1.221   .     D
C804   H805    1.076   .     S
C804   O806    1.221   .     D
C807   O850    1.291   .     A
C807   C832    1.422   .     S
C807   O847    1.290   .     A
C808   O849    1.290   .     A
C808   O848    1.291   .     A
C808   C831    1.422   .     S
C809   O851    1.295   .     A
C809   C827    1.438   .     S
C809   O854    1.295   .     A
C810   C828    1.438   .     S
C810   O852    1.295   .     A
C810   O853    1.295   .     A
C811   N846    1.376   .     A
C811   C857    1.483   .     S
C812   N845    1.373   .     A
C812   C860    1.481   .     S
C812   C999    1.433   .     S
C813   N846    1.376   .     A
C813   C863    1.483   .     S
C814   N845    1.373   .     A
C814   C866    1.481   .     S
C814   C997    1.433   .     S
C815   C832    1.397   .     A
C815   H841    1.083   .     S
C816   C831    1.398   .     A
C816   H842    1.084   .     S
C816   C880    1.370   .     S
C817   C831    1.397   .     A
C817   H843    1.083   .     S
C817   C877    1.369   .     S
C818   H844    1.084   .     S
C818   C832    1.398   .     A
C819   C823    1.380   .     A
C819   C829    1.399   .     A
C819   H833    1.083   .     S
C820   C824    1.380   .     A
C820   C830    1.399   .     A
C820   H834    1.083   .     S
C821   H835    1.083   .     S
C821   C825    1.380   .     A
C821   C830    1.399   .     A
C822   C829    1.399   .     A
C822   C826    1.380   .     A
C822   H836    1.083   .     S
C823   H837    1.084   .     S
C823   C827    1.399   .     A
C824   H838    1.083   .     S
C824   C828    1.399   .     A
C825   C828    1.399   .     A
C825   H839    1.084   .     S
C826   H840    1.083   .     S
C826   C827    1.399   .     A
C830   C271    1.445   1_556 S
N845   Zn855   2.028   .     S
N846   Zn856   2.028   .     S
O847   Zn855   2.001   .     S
O848   Zn856   2.001   .     S
O849   Zn855   2.001   .     S
O850   Zn856   2.001   .     S
O851   Zn855   2.001   .     S
O852   Zn856   2.001   .     S
O853   Zn855   2.001   .     S
O854   Zn856   2.001   .     S
C857   H858    1.073   .     S
C857   O859    1.221   .     D
C860   O862    1.221   .     D
C860   H861    1.076   .     S
C863   H864    1.073   .     S
C863   O865    1.221   .     D
C866   H867    1.076   .     S
C866   O868    1.221   .     D
C869   O912    1.291   .     A
C869   C894    1.422   .     S
C869   O909    1.290   .     A
C870   O911    1.290   .     A
C870   O910    1.291   .     A
C870   C893    1.422   .     S
C871   O913    1.295   .     A
C871   C889    1.438   .     S
C871   O916    1.295   .     A
C872   C890    1.438   .     S
C872   O914    1.295   .     A
C872   O915    1.295   .     A
C873   N908    1.376   .     A
C873   C919    1.483   .     S
C874   N907    1.373   .     A
C874   C922    1.481   .     S
C874   C1061   1.433   .     S
C875   N908    1.376   .     A
C875   C925    1.483   .     S
C876   N907    1.373   .     A
C876   C928    1.481   .     S
C876   C1059   1.433   .     S
C877   C894    1.397   .     A
C877   H903    1.083   .     S
C878   C893    1.398   .     A
C878   H904    1.084   .     S
C878   C756    1.370   1_655 S
C879   C893    1.397   .     A
C879   H905    1.083   .     S
C879   C753    1.369   1_655 S
C880   H906    1.084   .     S
C880   C894    1.398   .     A
C881   C885    1.380   .     A
C881   C891    1.399   .     A
C881   H895    1.083   .     S
C882   C886    1.380   .     A
C882   C892    1.399   .     A
C882   H896    1.083   .     S
C883   H897    1.083   .     S
C883   C887    1.380   .     A
C883   C892    1.399   .     A
C884   C891    1.399   .     A
C884   C888    1.380   .     A
C884   H898    1.083   .     S
C885   H899    1.084   .     S
C885   C889    1.399   .     A
C886   H900    1.083   .     S
C886   C890    1.399   .     A
C887   C890    1.399   .     A
C887   H901    1.084   .     S
C888   H902    1.083   .     S
C888   C889    1.399   .     A
C892   C333    1.445   1_556 S
N907   Zn917   2.028   .     S
N908   Zn918   2.028   .     S
O909   Zn917   2.001   .     S
O910   Zn918   2.001   .     S
O911   Zn917   2.001   .     S
O912   Zn918   2.001   .     S
O913   Zn917   2.001   .     S
O914   Zn918   2.001   .     S
O915   Zn917   2.001   .     S
O916   Zn918   2.001   .     S
C919   H920    1.073   .     S
C919   O921    1.221   .     D
C922   O924    1.221   .     D
C922   H923    1.076   .     S
C925   H926    1.073   .     S
C925   O927    1.221   .     D
C928   H929    1.076   .     S
C928   O930    1.221   .     D
C931   O974    1.291   .     A
C931   C956    1.422   .     S
C931   O971    1.290   .     A
C932   O973    1.290   .     A
C932   O972    1.291   .     A
C932   C955    1.422   .     S
C933   O975    1.295   .     A
C933   C951    1.438   .     S
C933   O978    1.295   .     A
C934   C952    1.438   .     S
C934   O976    1.295   .     A
C934   O977    1.295   .     A
C935   N970    1.376   .     A
C935   C981    1.483   .     S
C936   N969    1.373   .     A
C936   C984    1.481   .     S
C936   C565    1.433   1_565 S
C937   N970    1.376   .     A
C937   C987    1.483   .     S
C938   N969    1.373   .     A
C938   C990    1.481   .     S
C938   C563    1.433   1_565 S
C939   C956    1.397   .     A
C939   H965    1.083   .     S
C939   C1065   1.369   1_455 S
C940   C955    1.398   .     A
C940   H966    1.084   .     S
C940   C1004   1.370   .     S
C941   C955    1.397   .     A
C941   H967    1.083   .     S
C941   C1001   1.369   .     S
C942   H968    1.084   .     S
C942   C956    1.398   .     A
C942   C1064   1.370   1_455 S
C943   C947    1.380   .     A
C943   C953    1.399   .     A
C943   H957    1.083   .     S
C944   C948    1.380   .     A
C944   C954    1.399   .     A
C944   H958    1.083   .     S
C945   H959    1.083   .     S
C945   C949    1.380   .     A
C945   C954    1.399   .     A
C946   C953    1.399   .     A
C946   C950    1.380   .     A
C946   H960    1.083   .     S
C947   H961    1.084   .     S
C947   C951    1.399   .     A
C948   H962    1.083   .     S
C948   C952    1.399   .     A
C949   C952    1.399   .     A
C949   H963    1.084   .     S
C950   H964    1.083   .     S
C950   C951    1.399   .     A
C954   C395    1.445   1_556 S
N969   Zn979   2.028   .     S
N970   Zn980   2.028   .     S
O971   Zn979   2.001   .     S
O972   Zn980   2.001   .     S
O973   Zn979   2.001   .     S
O974   Zn980   2.001   .     S
O975   Zn979   2.001   .     S
O976   Zn980   2.001   .     S
O977   Zn979   2.001   .     S
O978   Zn980   2.001   .     S
C981   H982    1.073   .     S
C981   O983    1.221   .     D
C984   O986    1.221   .     D
C984   H985    1.076   .     S
C987   H988    1.073   .     S
C987   O989    1.221   .     D
C990   H991    1.076   .     S
C990   O992    1.221   .     D
C993   O1036   1.291   .     A
C993   C1018   1.422   .     S
C993   O1033   1.290   .     A
C994   O1035   1.290   .     A
C994   O1034   1.291   .     A
C994   C1017   1.422   .     S
C995   O1037   1.295   .     A
C995   C1013   1.438   .     S
C995   O1040   1.295   .     A
C996   C1014   1.438   .     S
C996   O1038   1.295   .     A
C996   O1039   1.295   .     A
C997   N1032   1.376   .     A
C997   C1043   1.483   .     S
C998   N1031   1.373   .     A
C998   C1046   1.481   .     S
C998   C627    1.433   1_565 S
C999   N1032   1.376   .     A
C999   C1049   1.483   .     S
C1000  N1031   1.373   .     A
C1000  C1052   1.481   .     S
C1000  C625    1.433   1_565 S
C1001  C1018   1.397   .     A
C1001  H1027   1.083   .     S
C1002  C1017   1.398   .     A
C1002  H1028   1.084   .     S
C1002  C1066   1.370   .     S
C1003  C1017   1.397   .     A
C1003  H1029   1.083   .     S
C1003  C1063   1.369   .     S
C1004  H1030   1.084   .     S
C1004  C1018   1.398   .     A
C1005  C1009   1.380   .     A
C1005  C1015   1.399   .     A
C1005  H1019   1.083   .     S
C1006  C1010   1.380   .     A
C1006  C1016   1.399   .     A
C1006  H1020   1.083   .     S
C1007  H1021   1.083   .     S
C1007  C1011   1.380   .     A
C1007  C1016   1.399   .     A
C1008  C1015   1.399   .     A
C1008  C1012   1.380   .     A
C1008  H1022   1.083   .     S
C1009  H1023   1.084   .     S
C1009  C1013   1.399   .     A
C1010  H1024   1.083   .     S
C1010  C1014   1.399   .     A
C1011  C1014   1.399   .     A
C1011  H1025   1.084   .     S
C1012  H1026   1.083   .     S
C1012  C1013   1.399   .     A
C1016  C457    1.445   1_556 S
N1031  Zn1041  2.028   .     S
N1032  Zn1042  2.028   .     S
O1033  Zn1041  2.001   .     S
O1034  Zn1042  2.001   .     S
O1035  Zn1041  2.001   .     S
O1036  Zn1042  2.001   .     S
O1037  Zn1041  2.001   .     S
O1038  Zn1042  2.001   .     S
O1039  Zn1041  2.001   .     S
O1040  Zn1042  2.001   .     S
C1043  H1044   1.073   .     S
C1043  O1045   1.221   .     D
C1046  O1048   1.221   .     D
C1046  H1047   1.076   .     S
C1049  H1050   1.073   .     S
C1049  O1051   1.221   .     D
C1052  H1053   1.076   .     S
C1052  O1054   1.221   .     D
C1055  O1098   1.291   .     A
C1055  C1080   1.422   .     S
C1055  O1095   1.290   .     A
C1056  O1097   1.290   .     A
C1056  O1096   1.291   .     A
C1056  C1079   1.422   .     S
C1057  O1099   1.295   .     A
C1057  C1075   1.438   .     S
C1057  O1102   1.295   .     A
C1058  C1076   1.438   .     S
C1058  O1100   1.295   .     A
C1058  O1101   1.295   .     A
C1059  N1094   1.376   .     A
C1059  C1105   1.483   .     S
C1060  N1093   1.373   .     A
C1060  C1108   1.481   .     S
C1060  C689    1.433   1_565 S
C1061  N1094   1.376   .     A
C1061  C1111   1.483   .     S
C1062  N1093   1.373   .     A
C1062  C1114   1.481   .     S
C1062  C687    1.433   1_565 S
C1063  C1080   1.397   .     A
C1063  H1089   1.083   .     S
C1064  C1079   1.398   .     A
C1064  H1090   1.084   .     S
C1064  C942    1.370   1_655 S
C1065  C1079   1.397   .     A
C1065  H1091   1.083   .     S
C1065  C939    1.369   1_655 S
C1066  H1092   1.084   .     S
C1066  C1080   1.398   .     A
C1067  C1071   1.380   .     A
C1067  C1077   1.399   .     A
C1067  H1081   1.083   .     S
C1068  C1072   1.380   .     A
C1068  C1078   1.399   .     A
C1068  H1082   1.083   .     S
C1069  H1083   1.083   .     S
C1069  C1073   1.380   .     A
C1069  C1078   1.399   .     A
C1070  C1077   1.399   .     A
C1070  C1074   1.380   .     A
C1070  H1084   1.083   .     S
C1071  H1085   1.084   .     S
C1071  C1075   1.399   .     A
C1072  H1086   1.083   .     S
C1072  C1076   1.399   .     A
C1073  C1076   1.399   .     A
C1073  H1087   1.084   .     S
C1074  H1088   1.083   .     S
C1074  C1075   1.399   .     A
C1078  C519    1.445   1_556 S
N1093  Zn1103  2.028   .     S
N1094  Zn1104  2.028   .     S
O1095  Zn1103  2.001   .     S
O1096  Zn1104  2.001   .     S
O1097  Zn1103  2.001   .     S
O1098  Zn1104  2.001   .     S
O1099  Zn1103  2.001   .     S
O1100  Zn1104  2.001   .     S
O1101  Zn1103  2.001   .     S
O1102  Zn1104  2.001   .     S
C1105  H1106   1.073   .     S
C1105  O1107   1.221   .     D
C1108  O1110   1.221   .     D
C1108  H1109   1.076   .     S
C1111  H1112   1.073   .     S
C1111  O1113   1.221   .     D
C1114  H1115   1.076   .     S
C1114  O1116   1.221   .     D
