data_str_m1_o10_o16_pcu_sym.128
_audit_creation_date              2020-01-03
_audit_creation_method            'Materials Studio'
_symmetry_space_group_name_H-M    'P1'
_symmetry_Int_Tables_number       1
_symmetry_cell_setting            triclinic
loop_
_symmetry_equiv_pos_as_xyz
  x,y,z
_cell_length_a                    32.7274
_cell_length_b                    32.7649
_cell_length_c                    30.7695
_cell_angle_alpha                 97.0396
_cell_angle_beta                  75.1673
_cell_angle_gamma                 99.0675
loop_
_atom_site_label
_atom_site_type_symbol
_atom_site_fract_x
_atom_site_fract_y
_atom_site_fract_z
_atom_site_U_iso_or_equiv
_atom_site_adp_type
_atom_site_occupancy
Zn1    Zn    0.19338   0.13994   0.28734   0.00000  Uiso   1.00
Zn2    Zn    0.13379   0.12458   0.21876   0.00000  Uiso   1.00
Zn3    Zn    0.21056   0.19775   0.20657   0.00000  Uiso   1.00
Zn4    Zn    0.12893   0.20439   0.28734   0.00000  Uiso   1.00
O5     O     0.16667   0.16667   0.25000   0.00000  Uiso   1.00
O6     O     0.07071   0.18878   0.28213   0.00000  Uiso   1.00
O7     O     0.25491   0.15226   0.27014   0.00000  Uiso   1.00
O8     O     0.13760   0.06944   0.23413   0.00000  Uiso   1.00
O9     O     0.20345   0.25620   0.21361   0.00000  Uiso   1.00
O10    O     0.15451   0.12637   0.15459   0.00000  Uiso   1.00
O11    O     0.12940   0.20391   0.34968   0.00000  Uiso   1.00
O12    O     0.20824   0.17759   0.14606   0.00000  Uiso   1.00
O13    O     0.17451   0.15880   0.34968   0.00000  Uiso   1.00
O14    O     0.17930   0.08019   0.28214   0.00000  Uiso   1.00
O15    O     0.14632   0.26085   0.27014   0.00000  Uiso   1.00
O16    O     0.07412   0.13291   0.23413   0.00000  Uiso   1.00
O17    O     0.26693   0.19272   0.21361   0.00000  Uiso   1.00
C18    C     0.05298   0.15915   0.25986   0.00000  Uiso   1.00
C19    C     0.28066   0.17424   0.24058   0.00000  Uiso   1.00
C20    C     0.15602   0.05604   0.25997   0.00000  Uiso   1.00
C21    C     0.17655   0.27785   0.24035   0.00000  Uiso   1.00
C22    C     0.18499   0.14782   0.12915   0.00000  Uiso   1.00
C23    C     0.14803   0.18416   0.37112   0.00000  Uiso   1.00
C24    C     0.18706   0.08316   0.02122   0.00000  Uiso   1.00
H25    H     0.20340   0.07574   0.08251   0.00000  Uiso   1.00
H26    H     0.19080   0.05125   0.00901   0.00000  Uiso   1.00
C27    C     0.19055   0.13800   0.08068   0.00000  Uiso   1.00
C28    C     0.12910   0.23076   0.44043   0.00000  Uiso   1.00
C29    C     0.12340   0.24107   0.48667   0.00000  Uiso   1.00
C30    C     0.13166   0.21328   0.01388   0.00000  Uiso   1.00
C31    C     0.14761   0.17559   0.49329   0.00000  Uiso   1.00
C32    C     0.14386   0.16198   0.44872   0.00000  Uiso   1.00
C33    C     0.16572   0.15027   0.01582   0.00000  Uiso   1.00
C34    C     0.17141   0.10893   0.49754   0.00000  Uiso   1.00
C35    C     0.15861   0.09308   0.45779   0.00000  Uiso   1.00
C36    C     0.14330   0.11909   0.43416   0.00000  Uiso   1.00
C37    C     0.17903   0.16507   0.05575   0.00000  Uiso   1.00
C38    C     0.19523   0.09725   0.06297   0.00000  Uiso   1.00
C39    C     0.13927   0.19160   0.42088   0.00000  Uiso   1.00
H40    H     0.17860   0.19697   0.06940   0.00000  Uiso   1.00
H41    H     0.12479   0.25350   0.41975   0.00000  Uiso   1.00
C42    C     0.32635   0.17904   0.23879   0.00000  Uiso   1.00
C43    C     0.00832   0.15491   0.26227   0.00000  Uiso   1.00
C44    C     0.18094   0.32265   0.23815   0.00000  Uiso   1.00
C45    C     0.15079   0.01224   0.26327   0.00000  Uiso   1.00
C46    C     0.31680   0.12021   0.28629   0.00000  Uiso   1.00
N47    N     0.29714   0.09248   0.30548   0.00000  Uiso   1.00
C48    C     0.21915   0.00865   0.20829   0.00000  Uiso   1.00
N49    N     0.24957   0.02406   0.18453   0.00000  Uiso   1.00
C50    C     0.11053   0.32891   0.29183   0.00000  Uiso   1.00
N51    N     0.07835   0.31580   0.31469   0.00000  Uiso   1.00
N52    N     0.15906   0.04996   0.44258   0.00000  Uiso   1.00
O53    O     0.12341   0.02519   0.44579   0.00000  Uiso   1.00
O54    O     0.19500   0.03587   0.42350   0.00000  Uiso   1.00
N55    N     0.11510   0.21891   0.06194   0.00000  Uiso   1.00
O56    O     0.08991   0.18897   0.08314   0.00000  Uiso   1.00
O57    O     0.12534   0.25340   0.08483   0.00000  Uiso   1.00
N58    N     0.10762   0.27932   0.00580   0.00000  Uiso   1.00
O59    O     0.07362   0.28851   0.49670   0.00000  Uiso   1.00
O60    O     0.13124   0.30800   0.02485   0.00000  Uiso   1.00
N61    N     0.12161   0.10086   0.39977   0.00000  Uiso   1.00
O62    O     0.13646   0.07131   0.37061   0.00000  Uiso   1.00
O63    O     0.08488   0.11147   0.39990   0.00000  Uiso   1.00
N64    N     0.02091   0.21064   0.21246   0.00000  Uiso   1.00
O65    O     0.00800   0.24600   0.21136   0.00000  Uiso   1.00
O66    O     0.05752   0.20298   0.18643   0.00000  Uiso   1.00
Zn67   Zn    0.52672   0.13994   0.28734   0.00000  Uiso   1.00
Zn68   Zn    0.46713   0.12458   0.21876   0.00000  Uiso   1.00
Zn69   Zn    0.54389   0.19775   0.20657   0.00000  Uiso   1.00
Zn70   Zn    0.46226   0.20439   0.28734   0.00000  Uiso   1.00
O71    O     0.50000   0.16667   0.25000   0.00000  Uiso   1.00
O72    O     0.40405   0.18878   0.28213   0.00000  Uiso   1.00
O73    O     0.58824   0.15226   0.27014   0.00000  Uiso   1.00
O74    O     0.47093   0.06944   0.23413   0.00000  Uiso   1.00
O75    O     0.53678   0.25620   0.21361   0.00000  Uiso   1.00
O76    O     0.48784   0.12637   0.15459   0.00000  Uiso   1.00
O77    O     0.46274   0.20391   0.34968   0.00000  Uiso   1.00
O78    O     0.54157   0.17759   0.14606   0.00000  Uiso   1.00
O79    O     0.50785   0.15880   0.34968   0.00000  Uiso   1.00
O80    O     0.51264   0.08019   0.28214   0.00000  Uiso   1.00
O81    O     0.47965   0.26085   0.27014   0.00000  Uiso   1.00
O82    O     0.40745   0.13291   0.23413   0.00000  Uiso   1.00
O83    O     0.60026   0.19272   0.21361   0.00000  Uiso   1.00
C84    C     0.38631   0.15915   0.25986   0.00000  Uiso   1.00
C85    C     0.61399   0.17424   0.24058   0.00000  Uiso   1.00
C86    C     0.48936   0.05604   0.25997   0.00000  Uiso   1.00
C87    C     0.50988   0.27785   0.24035   0.00000  Uiso   1.00
C88    C     0.51832   0.14782   0.12915   0.00000  Uiso   1.00
C89    C     0.48137   0.18416   0.37112   0.00000  Uiso   1.00
C90    C     0.52039   0.08316   0.02122   0.00000  Uiso   1.00
H91    H     0.53673   0.07574   0.08251   0.00000  Uiso   1.00
H92    H     0.52413   0.05125   0.00901   0.00000  Uiso   1.00
C93    C     0.52388   0.13800   0.08068   0.00000  Uiso   1.00
C94    C     0.46243   0.23076   0.44043   0.00000  Uiso   1.00
C95    C     0.45674   0.24107   0.48667   0.00000  Uiso   1.00
C96    C     0.46500   0.21328   0.01388   0.00000  Uiso   1.00
C97    C     0.48095   0.17559   0.49329   0.00000  Uiso   1.00
C98    C     0.47719   0.16198   0.44872   0.00000  Uiso   1.00
C99    C     0.49905   0.15027   0.01582   0.00000  Uiso   1.00
C100   C     0.50475   0.10893   0.49754   0.00000  Uiso   1.00
C101   C     0.49194   0.09308   0.45779   0.00000  Uiso   1.00
C102   C     0.47663   0.11909   0.43416   0.00000  Uiso   1.00
C103   C     0.51236   0.16507   0.05575   0.00000  Uiso   1.00
C104   C     0.52857   0.09725   0.06297   0.00000  Uiso   1.00
C105   C     0.47260   0.19160   0.42088   0.00000  Uiso   1.00
H106   H     0.51193   0.19697   0.06940   0.00000  Uiso   1.00
H107   H     0.45812   0.25350   0.41975   0.00000  Uiso   1.00
C108   C     0.65968   0.17904   0.23879   0.00000  Uiso   1.00
C109   C     0.34166   0.15491   0.26227   0.00000  Uiso   1.00
C110   C     0.51427   0.32265   0.23815   0.00000  Uiso   1.00
C111   C     0.48412   0.01224   0.26327   0.00000  Uiso   1.00
C112   C     0.65013   0.12021   0.28629   0.00000  Uiso   1.00
N113   N     0.63047   0.09248   0.30548   0.00000  Uiso   1.00
C114   C     0.55248   0.00865   0.20829   0.00000  Uiso   1.00
N115   N     0.58290   0.02406   0.18453   0.00000  Uiso   1.00
C116   C     0.44387   0.32891   0.29183   0.00000  Uiso   1.00
N117   N     0.41168   0.31580   0.31469   0.00000  Uiso   1.00
N118   N     0.49239   0.04996   0.44258   0.00000  Uiso   1.00
O119   O     0.45674   0.02519   0.44579   0.00000  Uiso   1.00
O120   O     0.52833   0.03587   0.42350   0.00000  Uiso   1.00
N121   N     0.44843   0.21891   0.06194   0.00000  Uiso   1.00
O122   O     0.42325   0.18897   0.08314   0.00000  Uiso   1.00
O123   O     0.45867   0.25340   0.08483   0.00000  Uiso   1.00
N124   N     0.44096   0.27932   0.00580   0.00000  Uiso   1.00
O125   O     0.40696   0.28851   0.49670   0.00000  Uiso   1.00
O126   O     0.46457   0.30800   0.02485   0.00000  Uiso   1.00
N127   N     0.45494   0.10086   0.39977   0.00000  Uiso   1.00
O128   O     0.46979   0.07131   0.37061   0.00000  Uiso   1.00
O129   O     0.41822   0.11147   0.39990   0.00000  Uiso   1.00
N130   N     0.35424   0.21064   0.21246   0.00000  Uiso   1.00
O131   O     0.34133   0.24600   0.21136   0.00000  Uiso   1.00
O132   O     0.39085   0.20298   0.18643   0.00000  Uiso   1.00
Zn133  Zn    0.86005   0.13994   0.28734   0.00000  Uiso   1.00
Zn134  Zn    0.80046   0.12458   0.21876   0.00000  Uiso   1.00
Zn135  Zn    0.87723   0.19775   0.20657   0.00000  Uiso   1.00
Zn136  Zn    0.79560   0.20439   0.28734   0.00000  Uiso   1.00
O137   O     0.83333   0.16667   0.25000   0.00000  Uiso   1.00
O138   O     0.73738   0.18878   0.28213   0.00000  Uiso   1.00
O139   O     0.92158   0.15226   0.27014   0.00000  Uiso   1.00
O140   O     0.80426   0.06944   0.23413   0.00000  Uiso   1.00
O141   O     0.87012   0.25620   0.21361   0.00000  Uiso   1.00
O142   O     0.82118   0.12637   0.15459   0.00000  Uiso   1.00
O143   O     0.79607   0.20391   0.34968   0.00000  Uiso   1.00
O144   O     0.87491   0.17759   0.14606   0.00000  Uiso   1.00
O145   O     0.84118   0.15880   0.34968   0.00000  Uiso   1.00
O146   O     0.84597   0.08019   0.28214   0.00000  Uiso   1.00
O147   O     0.81298   0.26085   0.27014   0.00000  Uiso   1.00
O148   O     0.74078   0.13291   0.23413   0.00000  Uiso   1.00
O149   O     0.93360   0.19272   0.21361   0.00000  Uiso   1.00
C150   C     0.71965   0.15915   0.25986   0.00000  Uiso   1.00
C151   C     0.94732   0.17424   0.24058   0.00000  Uiso   1.00
C152   C     0.82269   0.05604   0.25997   0.00000  Uiso   1.00
C153   C     0.84321   0.27785   0.24035   0.00000  Uiso   1.00
C154   C     0.85166   0.14782   0.12915   0.00000  Uiso   1.00
C155   C     0.81470   0.18416   0.37112   0.00000  Uiso   1.00
C156   C     0.85372   0.08316   0.02122   0.00000  Uiso   1.00
H157   H     0.87007   0.07574   0.08251   0.00000  Uiso   1.00
H158   H     0.85747   0.05125   0.00901   0.00000  Uiso   1.00
C159   C     0.85722   0.13800   0.08068   0.00000  Uiso   1.00
C160   C     0.79576   0.23076   0.44043   0.00000  Uiso   1.00
C161   C     0.79007   0.24107   0.48667   0.00000  Uiso   1.00
C162   C     0.79833   0.21328   0.01388   0.00000  Uiso   1.00
C163   C     0.81428   0.17559   0.49329   0.00000  Uiso   1.00
C164   C     0.81052   0.16198   0.44872   0.00000  Uiso   1.00
C165   C     0.83238   0.15027   0.01582   0.00000  Uiso   1.00
C166   C     0.83808   0.10893   0.49754   0.00000  Uiso   1.00
C167   C     0.82527   0.09308   0.45779   0.00000  Uiso   1.00
C168   C     0.80996   0.11909   0.43416   0.00000  Uiso   1.00
C169   C     0.84570   0.16507   0.05575   0.00000  Uiso   1.00
C170   C     0.86190   0.09725   0.06297   0.00000  Uiso   1.00
C171   C     0.80593   0.19160   0.42088   0.00000  Uiso   1.00
H172   H     0.84527   0.19697   0.06940   0.00000  Uiso   1.00
H173   H     0.79146   0.25350   0.41975   0.00000  Uiso   1.00
C174   C     0.99302   0.17904   0.23879   0.00000  Uiso   1.00
C175   C     0.67499   0.15491   0.26227   0.00000  Uiso   1.00
C176   C     0.84760   0.32265   0.23815   0.00000  Uiso   1.00
C177   C     0.81745   0.01224   0.26327   0.00000  Uiso   1.00
C178   C     0.98346   0.12021   0.28629   0.00000  Uiso   1.00
N179   N     0.96381   0.09248   0.30548   0.00000  Uiso   1.00
C180   C     0.88582   0.00865   0.20829   0.00000  Uiso   1.00
N181   N     0.91623   0.02406   0.18453   0.00000  Uiso   1.00
C182   C     0.77720   0.32891   0.29183   0.00000  Uiso   1.00
N183   N     0.74502   0.31580   0.31469   0.00000  Uiso   1.00
N184   N     0.82572   0.04996   0.44258   0.00000  Uiso   1.00
O185   O     0.79007   0.02519   0.44579   0.00000  Uiso   1.00
O186   O     0.86166   0.03587   0.42350   0.00000  Uiso   1.00
N187   N     0.78177   0.21891   0.06194   0.00000  Uiso   1.00
O188   O     0.75658   0.18897   0.08314   0.00000  Uiso   1.00
O189   O     0.79201   0.25340   0.08483   0.00000  Uiso   1.00
N190   N     0.77429   0.27932   0.00580   0.00000  Uiso   1.00
O191   O     0.74029   0.28851   0.49670   0.00000  Uiso   1.00
O192   O     0.79790   0.30800   0.02485   0.00000  Uiso   1.00
N193   N     0.78828   0.10086   0.39977   0.00000  Uiso   1.00
O194   O     0.80312   0.07131   0.37061   0.00000  Uiso   1.00
O195   O     0.75155   0.11147   0.39990   0.00000  Uiso   1.00
N196   N     0.68758   0.21064   0.21246   0.00000  Uiso   1.00
O197   O     0.67467   0.24600   0.21136   0.00000  Uiso   1.00
O198   O     0.72419   0.20298   0.18643   0.00000  Uiso   1.00
Zn199  Zn    0.19338   0.47327   0.28734   0.00000  Uiso   1.00
Zn200  Zn    0.13379   0.45791   0.21876   0.00000  Uiso   1.00
Zn201  Zn    0.21056   0.53109   0.20657   0.00000  Uiso   1.00
Zn202  Zn    0.12893   0.53773   0.28734   0.00000  Uiso   1.00
O203   O     0.16667   0.50000   0.25000   0.00000  Uiso   1.00
O204   O     0.07071   0.52211   0.28213   0.00000  Uiso   1.00
O205   O     0.25491   0.48559   0.27014   0.00000  Uiso   1.00
O206   O     0.13760   0.40277   0.23413   0.00000  Uiso   1.00
O207   O     0.20345   0.58953   0.21361   0.00000  Uiso   1.00
O208   O     0.15451   0.45970   0.15459   0.00000  Uiso   1.00
O209   O     0.12940   0.53724   0.34968   0.00000  Uiso   1.00
O210   O     0.20824   0.51092   0.14606   0.00000  Uiso   1.00
O211   O     0.17451   0.49213   0.34968   0.00000  Uiso   1.00
O212   O     0.17930   0.41352   0.28214   0.00000  Uiso   1.00
O213   O     0.14632   0.59418   0.27014   0.00000  Uiso   1.00
O214   O     0.07412   0.46625   0.23413   0.00000  Uiso   1.00
O215   O     0.26693   0.52605   0.21361   0.00000  Uiso   1.00
C216   C     0.05298   0.49248   0.25986   0.00000  Uiso   1.00
C217   C     0.28066   0.50757   0.24058   0.00000  Uiso   1.00
C218   C     0.15602   0.38938   0.25997   0.00000  Uiso   1.00
C219   C     0.17655   0.61118   0.24035   0.00000  Uiso   1.00
C220   C     0.18499   0.48116   0.12915   0.00000  Uiso   1.00
C221   C     0.14803   0.51750   0.37112   0.00000  Uiso   1.00
C222   C     0.18706   0.41650   0.02122   0.00000  Uiso   1.00
H223   H     0.20340   0.40908   0.08251   0.00000  Uiso   1.00
H224   H     0.19080   0.38458   0.00901   0.00000  Uiso   1.00
C225   C     0.19055   0.47133   0.08068   0.00000  Uiso   1.00
C226   C     0.12910   0.56409   0.44043   0.00000  Uiso   1.00
C227   C     0.12340   0.57440   0.48667   0.00000  Uiso   1.00
C228   C     0.13166   0.54661   0.01388   0.00000  Uiso   1.00
C229   C     0.14761   0.50893   0.49329   0.00000  Uiso   1.00
C230   C     0.14386   0.49532   0.44872   0.00000  Uiso   1.00
C231   C     0.16572   0.48360   0.01582   0.00000  Uiso   1.00
C232   C     0.17141   0.44226   0.49754   0.00000  Uiso   1.00
C233   C     0.15861   0.42641   0.45779   0.00000  Uiso   1.00
C234   C     0.14330   0.45242   0.43416   0.00000  Uiso   1.00
C235   C     0.17903   0.49840   0.05575   0.00000  Uiso   1.00
C236   C     0.19523   0.43058   0.06297   0.00000  Uiso   1.00
C237   C     0.13927   0.52494   0.42088   0.00000  Uiso   1.00
H238   H     0.17860   0.53030   0.06940   0.00000  Uiso   1.00
H239   H     0.12479   0.58684   0.41975   0.00000  Uiso   1.00
C240   C     0.32635   0.51238   0.23879   0.00000  Uiso   1.00
C241   C     0.00832   0.48825   0.26227   0.00000  Uiso   1.00
C242   C     0.18094   0.65598   0.23815   0.00000  Uiso   1.00
C243   C     0.15079   0.34558   0.26327   0.00000  Uiso   1.00
C244   C     0.31680   0.45354   0.28629   0.00000  Uiso   1.00
N245   N     0.29714   0.42581   0.30548   0.00000  Uiso   1.00
C246   C     0.21915   0.34198   0.20829   0.00000  Uiso   1.00
N247   N     0.24957   0.35739   0.18453   0.00000  Uiso   1.00
C248   C     0.11053   0.66225   0.29183   0.00000  Uiso   1.00
N249   N     0.07835   0.64913   0.31469   0.00000  Uiso   1.00
N250   N     0.15906   0.38329   0.44258   0.00000  Uiso   1.00
O251   O     0.12341   0.35853   0.44579   0.00000  Uiso   1.00
O252   O     0.19500   0.36920   0.42350   0.00000  Uiso   1.00
N253   N     0.11510   0.55224   0.06194   0.00000  Uiso   1.00
O254   O     0.08991   0.52231   0.08314   0.00000  Uiso   1.00
O255   O     0.12534   0.58674   0.08483   0.00000  Uiso   1.00
N256   N     0.10762   0.61265   0.00580   0.00000  Uiso   1.00
O257   O     0.07362   0.62184   0.49670   0.00000  Uiso   1.00
O258   O     0.13124   0.64133   0.02485   0.00000  Uiso   1.00
N259   N     0.12161   0.43419   0.39977   0.00000  Uiso   1.00
O260   O     0.13646   0.40465   0.37061   0.00000  Uiso   1.00
O261   O     0.08488   0.44480   0.39990   0.00000  Uiso   1.00
N262   N     0.02091   0.54397   0.21246   0.00000  Uiso   1.00
O263   O     0.00800   0.57933   0.21136   0.00000  Uiso   1.00
O264   O     0.05752   0.53631   0.18643   0.00000  Uiso   1.00
Zn265  Zn    0.52672   0.47327   0.28734   0.00000  Uiso   1.00
Zn266  Zn    0.46713   0.45791   0.21876   0.00000  Uiso   1.00
Zn267  Zn    0.54389   0.53109   0.20657   0.00000  Uiso   1.00
Zn268  Zn    0.46226   0.53773   0.28734   0.00000  Uiso   1.00
O269   O     0.50000   0.50000   0.25000   0.00000  Uiso   1.00
O270   O     0.40405   0.52211   0.28213   0.00000  Uiso   1.00
O271   O     0.58824   0.48559   0.27014   0.00000  Uiso   1.00
O272   O     0.47093   0.40277   0.23413   0.00000  Uiso   1.00
O273   O     0.53678   0.58953   0.21361   0.00000  Uiso   1.00
O274   O     0.48784   0.45970   0.15459   0.00000  Uiso   1.00
O275   O     0.46274   0.53724   0.34968   0.00000  Uiso   1.00
O276   O     0.54157   0.51092   0.14606   0.00000  Uiso   1.00
O277   O     0.50785   0.49213   0.34968   0.00000  Uiso   1.00
O278   O     0.51264   0.41352   0.28214   0.00000  Uiso   1.00
O279   O     0.47965   0.59418   0.27014   0.00000  Uiso   1.00
O280   O     0.40745   0.46625   0.23413   0.00000  Uiso   1.00
O281   O     0.60026   0.52605   0.21361   0.00000  Uiso   1.00
C282   C     0.38631   0.49248   0.25986   0.00000  Uiso   1.00
C283   C     0.61399   0.50757   0.24058   0.00000  Uiso   1.00
C284   C     0.48936   0.38938   0.25997   0.00000  Uiso   1.00
C285   C     0.50988   0.61118   0.24035   0.00000  Uiso   1.00
C286   C     0.51832   0.48116   0.12915   0.00000  Uiso   1.00
C287   C     0.48137   0.51750   0.37112   0.00000  Uiso   1.00
C288   C     0.52039   0.41650   0.02122   0.00000  Uiso   1.00
H289   H     0.53673   0.40908   0.08251   0.00000  Uiso   1.00
H290   H     0.52413   0.38458   0.00901   0.00000  Uiso   1.00
C291   C     0.52388   0.47133   0.08068   0.00000  Uiso   1.00
C292   C     0.46243   0.56409   0.44043   0.00000  Uiso   1.00
C293   C     0.45674   0.57440   0.48667   0.00000  Uiso   1.00
C294   C     0.46500   0.54661   0.01388   0.00000  Uiso   1.00
C295   C     0.48095   0.50893   0.49329   0.00000  Uiso   1.00
C296   C     0.47719   0.49532   0.44872   0.00000  Uiso   1.00
C297   C     0.49905   0.48360   0.01582   0.00000  Uiso   1.00
C298   C     0.50475   0.44226   0.49754   0.00000  Uiso   1.00
C299   C     0.49194   0.42641   0.45779   0.00000  Uiso   1.00
C300   C     0.47663   0.45242   0.43416   0.00000  Uiso   1.00
C301   C     0.51236   0.49840   0.05575   0.00000  Uiso   1.00
C302   C     0.52857   0.43058   0.06297   0.00000  Uiso   1.00
C303   C     0.47260   0.52494   0.42088   0.00000  Uiso   1.00
H304   H     0.51193   0.53030   0.06940   0.00000  Uiso   1.00
H305   H     0.45812   0.58684   0.41975   0.00000  Uiso   1.00
C306   C     0.65968   0.51238   0.23879   0.00000  Uiso   1.00
C307   C     0.34166   0.48825   0.26227   0.00000  Uiso   1.00
C308   C     0.51427   0.65598   0.23815   0.00000  Uiso   1.00
C309   C     0.48412   0.34558   0.26327   0.00000  Uiso   1.00
C310   C     0.65013   0.45354   0.28629   0.00000  Uiso   1.00
N311   N     0.63047   0.42581   0.30548   0.00000  Uiso   1.00
C312   C     0.55248   0.34198   0.20829   0.00000  Uiso   1.00
N313   N     0.58290   0.35739   0.18453   0.00000  Uiso   1.00
C314   C     0.44387   0.66225   0.29183   0.00000  Uiso   1.00
N315   N     0.41168   0.64913   0.31469   0.00000  Uiso   1.00
N316   N     0.49239   0.38329   0.44258   0.00000  Uiso   1.00
O317   O     0.45674   0.35853   0.44579   0.00000  Uiso   1.00
O318   O     0.52833   0.36920   0.42350   0.00000  Uiso   1.00
N319   N     0.44843   0.55224   0.06194   0.00000  Uiso   1.00
O320   O     0.42325   0.52231   0.08314   0.00000  Uiso   1.00
O321   O     0.45867   0.58674   0.08483   0.00000  Uiso   1.00
N322   N     0.44096   0.61265   0.00580   0.00000  Uiso   1.00
O323   O     0.40696   0.62184   0.49670   0.00000  Uiso   1.00
O324   O     0.46457   0.64133   0.02485   0.00000  Uiso   1.00
N325   N     0.45494   0.43419   0.39977   0.00000  Uiso   1.00
O326   O     0.46979   0.40465   0.37061   0.00000  Uiso   1.00
O327   O     0.41822   0.44480   0.39990   0.00000  Uiso   1.00
N328   N     0.35424   0.54397   0.21246   0.00000  Uiso   1.00
O329   O     0.34133   0.57933   0.21136   0.00000  Uiso   1.00
O330   O     0.39085   0.53631   0.18643   0.00000  Uiso   1.00
Zn331  Zn    0.86005   0.47327   0.28734   0.00000  Uiso   1.00
Zn332  Zn    0.80046   0.45791   0.21876   0.00000  Uiso   1.00
Zn333  Zn    0.87723   0.53109   0.20657   0.00000  Uiso   1.00
Zn334  Zn    0.79560   0.53773   0.28734   0.00000  Uiso   1.00
O335   O     0.83333   0.50000   0.25000   0.00000  Uiso   1.00
O336   O     0.73738   0.52211   0.28213   0.00000  Uiso   1.00
O337   O     0.92158   0.48559   0.27014   0.00000  Uiso   1.00
O338   O     0.80426   0.40277   0.23413   0.00000  Uiso   1.00
O339   O     0.87012   0.58953   0.21361   0.00000  Uiso   1.00
O340   O     0.82118   0.45970   0.15459   0.00000  Uiso   1.00
O341   O     0.79607   0.53724   0.34968   0.00000  Uiso   1.00
O342   O     0.87491   0.51092   0.14606   0.00000  Uiso   1.00
O343   O     0.84118   0.49213   0.34968   0.00000  Uiso   1.00
O344   O     0.84597   0.41352   0.28214   0.00000  Uiso   1.00
O345   O     0.81298   0.59418   0.27014   0.00000  Uiso   1.00
O346   O     0.74078   0.46625   0.23413   0.00000  Uiso   1.00
O347   O     0.93360   0.52605   0.21361   0.00000  Uiso   1.00
C348   C     0.71965   0.49248   0.25986   0.00000  Uiso   1.00
C349   C     0.94732   0.50757   0.24058   0.00000  Uiso   1.00
C350   C     0.82269   0.38938   0.25997   0.00000  Uiso   1.00
C351   C     0.84321   0.61118   0.24035   0.00000  Uiso   1.00
C352   C     0.85166   0.48116   0.12915   0.00000  Uiso   1.00
C353   C     0.81470   0.51750   0.37112   0.00000  Uiso   1.00
C354   C     0.85372   0.41650   0.02122   0.00000  Uiso   1.00
H355   H     0.87007   0.40908   0.08251   0.00000  Uiso   1.00
H356   H     0.85747   0.38458   0.00901   0.00000  Uiso   1.00
C357   C     0.85722   0.47133   0.08068   0.00000  Uiso   1.00
C358   C     0.79576   0.56409   0.44043   0.00000  Uiso   1.00
C359   C     0.79007   0.57440   0.48667   0.00000  Uiso   1.00
C360   C     0.79833   0.54661   0.01388   0.00000  Uiso   1.00
C361   C     0.81428   0.50893   0.49329   0.00000  Uiso   1.00
C362   C     0.81052   0.49532   0.44872   0.00000  Uiso   1.00
C363   C     0.83238   0.48360   0.01582   0.00000  Uiso   1.00
C364   C     0.83808   0.44226   0.49754   0.00000  Uiso   1.00
C365   C     0.82527   0.42641   0.45779   0.00000  Uiso   1.00
C366   C     0.80996   0.45242   0.43416   0.00000  Uiso   1.00
C367   C     0.84570   0.49840   0.05575   0.00000  Uiso   1.00
C368   C     0.86190   0.43058   0.06297   0.00000  Uiso   1.00
C369   C     0.80593   0.52494   0.42088   0.00000  Uiso   1.00
H370   H     0.84527   0.53030   0.06940   0.00000  Uiso   1.00
H371   H     0.79146   0.58684   0.41975   0.00000  Uiso   1.00
C372   C     0.99302   0.51238   0.23879   0.00000  Uiso   1.00
C373   C     0.67499   0.48825   0.26227   0.00000  Uiso   1.00
C374   C     0.84760   0.65598   0.23815   0.00000  Uiso   1.00
C375   C     0.81745   0.34558   0.26327   0.00000  Uiso   1.00
C376   C     0.98346   0.45354   0.28629   0.00000  Uiso   1.00
N377   N     0.96381   0.42581   0.30548   0.00000  Uiso   1.00
C378   C     0.88582   0.34198   0.20829   0.00000  Uiso   1.00
N379   N     0.91623   0.35739   0.18453   0.00000  Uiso   1.00
C380   C     0.77720   0.66225   0.29183   0.00000  Uiso   1.00
N381   N     0.74502   0.64913   0.31469   0.00000  Uiso   1.00
N382   N     0.82572   0.38329   0.44258   0.00000  Uiso   1.00
O383   O     0.79007   0.35853   0.44579   0.00000  Uiso   1.00
O384   O     0.86166   0.36920   0.42350   0.00000  Uiso   1.00
N385   N     0.78177   0.55224   0.06194   0.00000  Uiso   1.00
O386   O     0.75658   0.52231   0.08314   0.00000  Uiso   1.00
O387   O     0.79201   0.58674   0.08483   0.00000  Uiso   1.00
N388   N     0.77429   0.61265   0.00580   0.00000  Uiso   1.00
O389   O     0.74029   0.62184   0.49670   0.00000  Uiso   1.00
O390   O     0.79790   0.64133   0.02485   0.00000  Uiso   1.00
N391   N     0.78828   0.43419   0.39977   0.00000  Uiso   1.00
O392   O     0.80312   0.40465   0.37061   0.00000  Uiso   1.00
O393   O     0.75155   0.44480   0.39990   0.00000  Uiso   1.00
N394   N     0.68758   0.54397   0.21246   0.00000  Uiso   1.00
O395   O     0.67467   0.57933   0.21136   0.00000  Uiso   1.00
O396   O     0.72419   0.53631   0.18643   0.00000  Uiso   1.00
Zn397  Zn    0.19338   0.80661   0.28734   0.00000  Uiso   1.00
Zn398  Zn    0.13379   0.79124   0.21876   0.00000  Uiso   1.00
Zn399  Zn    0.21056   0.86442   0.20657   0.00000  Uiso   1.00
Zn400  Zn    0.12893   0.87106   0.28734   0.00000  Uiso   1.00
O401   O     0.16667   0.83333   0.25000   0.00000  Uiso   1.00
O402   O     0.07071   0.85544   0.28213   0.00000  Uiso   1.00
O403   O     0.25491   0.81892   0.27014   0.00000  Uiso   1.00
O404   O     0.13760   0.73610   0.23413   0.00000  Uiso   1.00
O405   O     0.20345   0.92286   0.21361   0.00000  Uiso   1.00
O406   O     0.15451   0.79304   0.15459   0.00000  Uiso   1.00
O407   O     0.12940   0.87058   0.34968   0.00000  Uiso   1.00
O408   O     0.20824   0.84425   0.14606   0.00000  Uiso   1.00
O409   O     0.17451   0.82546   0.34968   0.00000  Uiso   1.00
O410   O     0.17930   0.74686   0.28214   0.00000  Uiso   1.00
O411   O     0.14632   0.92751   0.27014   0.00000  Uiso   1.00
O412   O     0.07412   0.79958   0.23413   0.00000  Uiso   1.00
O413   O     0.26693   0.85939   0.21361   0.00000  Uiso   1.00
C414   C     0.05298   0.82582   0.25986   0.00000  Uiso   1.00
C415   C     0.28066   0.84090   0.24058   0.00000  Uiso   1.00
C416   C     0.15602   0.72271   0.25997   0.00000  Uiso   1.00
C417   C     0.17655   0.94451   0.24035   0.00000  Uiso   1.00
C418   C     0.18499   0.81449   0.12915   0.00000  Uiso   1.00
C419   C     0.14803   0.85083   0.37112   0.00000  Uiso   1.00
C420   C     0.18706   0.74983   0.02122   0.00000  Uiso   1.00
H421   H     0.20340   0.74241   0.08251   0.00000  Uiso   1.00
H422   H     0.19080   0.71792   0.00901   0.00000  Uiso   1.00
C423   C     0.19055   0.80467   0.08068   0.00000  Uiso   1.00
C424   C     0.12910   0.89743   0.44043   0.00000  Uiso   1.00
C425   C     0.12340   0.90773   0.48667   0.00000  Uiso   1.00
C426   C     0.13166   0.87995   0.01388   0.00000  Uiso   1.00
C427   C     0.14761   0.84226   0.49329   0.00000  Uiso   1.00
C428   C     0.14386   0.82865   0.44872   0.00000  Uiso   1.00
C429   C     0.16572   0.81693   0.01582   0.00000  Uiso   1.00
C430   C     0.17141   0.77560   0.49754   0.00000  Uiso   1.00
C431   C     0.15861   0.75974   0.45779   0.00000  Uiso   1.00
C432   C     0.14330   0.78575   0.43416   0.00000  Uiso   1.00
C433   C     0.17903   0.83174   0.05575   0.00000  Uiso   1.00
C434   C     0.19523   0.76392   0.06297   0.00000  Uiso   1.00
C435   C     0.13927   0.85827   0.42088   0.00000  Uiso   1.00
H436   H     0.17860   0.86364   0.06940   0.00000  Uiso   1.00
H437   H     0.12479   0.92017   0.41975   0.00000  Uiso   1.00
C438   C     0.32635   0.84571   0.23879   0.00000  Uiso   1.00
C439   C     0.00832   0.82158   0.26227   0.00000  Uiso   1.00
C440   C     0.18094   0.98932   0.23815   0.00000  Uiso   1.00
C441   C     0.15079   0.67891   0.26327   0.00000  Uiso   1.00
C442   C     0.31680   0.78687   0.28629   0.00000  Uiso   1.00
N443   N     0.29714   0.75914   0.30548   0.00000  Uiso   1.00
C444   C     0.21915   0.67531   0.20829   0.00000  Uiso   1.00
N445   N     0.24957   0.69073   0.18453   0.00000  Uiso   1.00
C446   C     0.11053   0.99558   0.29183   0.00000  Uiso   1.00
N447   N     0.07835   0.98246   0.31469   0.00000  Uiso   1.00
N448   N     0.15906   0.71662   0.44258   0.00000  Uiso   1.00
O449   O     0.12341   0.69186   0.44579   0.00000  Uiso   1.00
O450   O     0.19500   0.70253   0.42350   0.00000  Uiso   1.00
N451   N     0.11510   0.88558   0.06194   0.00000  Uiso   1.00
O452   O     0.08991   0.85564   0.08314   0.00000  Uiso   1.00
O453   O     0.12534   0.92007   0.08483   0.00000  Uiso   1.00
N454   N     0.10762   0.94598   0.00580   0.00000  Uiso   1.00
O455   O     0.07362   0.95517   0.49670   0.00000  Uiso   1.00
O456   O     0.13124   0.97467   0.02485   0.00000  Uiso   1.00
N457   N     0.12161   0.76753   0.39977   0.00000  Uiso   1.00
O458   O     0.13646   0.73798   0.37061   0.00000  Uiso   1.00
O459   O     0.08488   0.77813   0.39990   0.00000  Uiso   1.00
N460   N     0.02091   0.87730   0.21246   0.00000  Uiso   1.00
O461   O     0.00800   0.91266   0.21136   0.00000  Uiso   1.00
O462   O     0.05752   0.86964   0.18643   0.00000  Uiso   1.00
Zn463  Zn    0.52672   0.80661   0.28734   0.00000  Uiso   1.00
Zn464  Zn    0.46713   0.79124   0.21876   0.00000  Uiso   1.00
Zn465  Zn    0.54389   0.86442   0.20657   0.00000  Uiso   1.00
Zn466  Zn    0.46226   0.87106   0.28734   0.00000  Uiso   1.00
O467   O     0.50000   0.83333   0.25000   0.00000  Uiso   1.00
O468   O     0.40405   0.85544   0.28213   0.00000  Uiso   1.00
O469   O     0.58824   0.81892   0.27014   0.00000  Uiso   1.00
O470   O     0.47093   0.73610   0.23413   0.00000  Uiso   1.00
O471   O     0.53678   0.92286   0.21361   0.00000  Uiso   1.00
O472   O     0.48784   0.79304   0.15459   0.00000  Uiso   1.00
O473   O     0.46274   0.87058   0.34968   0.00000  Uiso   1.00
O474   O     0.54157   0.84425   0.14606   0.00000  Uiso   1.00
O475   O     0.50785   0.82546   0.34968   0.00000  Uiso   1.00
O476   O     0.51264   0.74686   0.28214   0.00000  Uiso   1.00
O477   O     0.47965   0.92751   0.27014   0.00000  Uiso   1.00
O478   O     0.40745   0.79958   0.23413   0.00000  Uiso   1.00
O479   O     0.60026   0.85939   0.21361   0.00000  Uiso   1.00
C480   C     0.38631   0.82582   0.25986   0.00000  Uiso   1.00
C481   C     0.61399   0.84090   0.24058   0.00000  Uiso   1.00
C482   C     0.48936   0.72271   0.25997   0.00000  Uiso   1.00
C483   C     0.50988   0.94451   0.24035   0.00000  Uiso   1.00
C484   C     0.51832   0.81449   0.12915   0.00000  Uiso   1.00
C485   C     0.48137   0.85083   0.37112   0.00000  Uiso   1.00
C486   C     0.52039   0.74983   0.02122   0.00000  Uiso   1.00
H487   H     0.53673   0.74241   0.08251   0.00000  Uiso   1.00
H488   H     0.52413   0.71792   0.00901   0.00000  Uiso   1.00
C489   C     0.52388   0.80467   0.08068   0.00000  Uiso   1.00
C490   C     0.46243   0.89743   0.44043   0.00000  Uiso   1.00
C491   C     0.45674   0.90773   0.48667   0.00000  Uiso   1.00
C492   C     0.46500   0.87995   0.01388   0.00000  Uiso   1.00
C493   C     0.48095   0.84226   0.49329   0.00000  Uiso   1.00
C494   C     0.47719   0.82865   0.44872   0.00000  Uiso   1.00
C495   C     0.49905   0.81693   0.01582   0.00000  Uiso   1.00
C496   C     0.50475   0.77560   0.49754   0.00000  Uiso   1.00
C497   C     0.49194   0.75974   0.45779   0.00000  Uiso   1.00
C498   C     0.47663   0.78575   0.43416   0.00000  Uiso   1.00
C499   C     0.51236   0.83174   0.05575   0.00000  Uiso   1.00
C500   C     0.52857   0.76392   0.06297   0.00000  Uiso   1.00
C501   C     0.47260   0.85827   0.42088   0.00000  Uiso   1.00
H502   H     0.51193   0.86364   0.06940   0.00000  Uiso   1.00
H503   H     0.45812   0.92017   0.41975   0.00000  Uiso   1.00
C504   C     0.65968   0.84571   0.23879   0.00000  Uiso   1.00
C505   C     0.34166   0.82158   0.26227   0.00000  Uiso   1.00
C506   C     0.51427   0.98932   0.23815   0.00000  Uiso   1.00
C507   C     0.48412   0.67891   0.26327   0.00000  Uiso   1.00
C508   C     0.65013   0.78687   0.28629   0.00000  Uiso   1.00
N509   N     0.63047   0.75914   0.30548   0.00000  Uiso   1.00
C510   C     0.55248   0.67531   0.20829   0.00000  Uiso   1.00
N511   N     0.58290   0.69073   0.18453   0.00000  Uiso   1.00
C512   C     0.44387   0.99558   0.29183   0.00000  Uiso   1.00
N513   N     0.41168   0.98246   0.31469   0.00000  Uiso   1.00
N514   N     0.49239   0.71662   0.44258   0.00000  Uiso   1.00
O515   O     0.45674   0.69186   0.44579   0.00000  Uiso   1.00
O516   O     0.52833   0.70253   0.42350   0.00000  Uiso   1.00
N517   N     0.44843   0.88558   0.06194   0.00000  Uiso   1.00
O518   O     0.42325   0.85564   0.08314   0.00000  Uiso   1.00
O519   O     0.45867   0.92007   0.08483   0.00000  Uiso   1.00
N520   N     0.44096   0.94598   0.00580   0.00000  Uiso   1.00
O521   O     0.40696   0.95517   0.49670   0.00000  Uiso   1.00
O522   O     0.46457   0.97467   0.02485   0.00000  Uiso   1.00
N523   N     0.45494   0.76753   0.39977   0.00000  Uiso   1.00
O524   O     0.46979   0.73798   0.37061   0.00000  Uiso   1.00
O525   O     0.41822   0.77813   0.39990   0.00000  Uiso   1.00
N526   N     0.35424   0.87730   0.21246   0.00000  Uiso   1.00
O527   O     0.34133   0.91266   0.21136   0.00000  Uiso   1.00
O528   O     0.39085   0.86964   0.18643   0.00000  Uiso   1.00
Zn529  Zn    0.86005   0.80661   0.28734   0.00000  Uiso   1.00
Zn530  Zn    0.80046   0.79124   0.21876   0.00000  Uiso   1.00
Zn531  Zn    0.87723   0.86442   0.20657   0.00000  Uiso   1.00
Zn532  Zn    0.79560   0.87106   0.28734   0.00000  Uiso   1.00
O533   O     0.83333   0.83333   0.25000   0.00000  Uiso   1.00
O534   O     0.73738   0.85544   0.28213   0.00000  Uiso   1.00
O535   O     0.92158   0.81892   0.27014   0.00000  Uiso   1.00
O536   O     0.80426   0.73610   0.23413   0.00000  Uiso   1.00
O537   O     0.87012   0.92286   0.21361   0.00000  Uiso   1.00
O538   O     0.82118   0.79304   0.15459   0.00000  Uiso   1.00
O539   O     0.79607   0.87058   0.34968   0.00000  Uiso   1.00
O540   O     0.87491   0.84425   0.14606   0.00000  Uiso   1.00
O541   O     0.84118   0.82546   0.34968   0.00000  Uiso   1.00
O542   O     0.84597   0.74686   0.28214   0.00000  Uiso   1.00
O543   O     0.81298   0.92751   0.27014   0.00000  Uiso   1.00
O544   O     0.74078   0.79958   0.23413   0.00000  Uiso   1.00
O545   O     0.93360   0.85939   0.21361   0.00000  Uiso   1.00
C546   C     0.71965   0.82582   0.25986   0.00000  Uiso   1.00
C547   C     0.94732   0.84090   0.24058   0.00000  Uiso   1.00
C548   C     0.82269   0.72271   0.25997   0.00000  Uiso   1.00
C549   C     0.84321   0.94451   0.24035   0.00000  Uiso   1.00
C550   C     0.85166   0.81449   0.12915   0.00000  Uiso   1.00
C551   C     0.81470   0.85083   0.37112   0.00000  Uiso   1.00
C552   C     0.85372   0.74983   0.02122   0.00000  Uiso   1.00
H553   H     0.87007   0.74241   0.08251   0.00000  Uiso   1.00
H554   H     0.85747   0.71792   0.00901   0.00000  Uiso   1.00
C555   C     0.85722   0.80467   0.08068   0.00000  Uiso   1.00
C556   C     0.79576   0.89743   0.44043   0.00000  Uiso   1.00
C557   C     0.79007   0.90773   0.48667   0.00000  Uiso   1.00
C558   C     0.79833   0.87995   0.01388   0.00000  Uiso   1.00
C559   C     0.81428   0.84226   0.49329   0.00000  Uiso   1.00
C560   C     0.81052   0.82865   0.44872   0.00000  Uiso   1.00
C561   C     0.83238   0.81693   0.01582   0.00000  Uiso   1.00
C562   C     0.83808   0.77560   0.49754   0.00000  Uiso   1.00
C563   C     0.82527   0.75974   0.45779   0.00000  Uiso   1.00
C564   C     0.80996   0.78575   0.43416   0.00000  Uiso   1.00
C565   C     0.84570   0.83174   0.05575   0.00000  Uiso   1.00
C566   C     0.86190   0.76392   0.06297   0.00000  Uiso   1.00
C567   C     0.80593   0.85827   0.42088   0.00000  Uiso   1.00
H568   H     0.84527   0.86364   0.06940   0.00000  Uiso   1.00
H569   H     0.79146   0.92017   0.41975   0.00000  Uiso   1.00
C570   C     0.99302   0.84571   0.23879   0.00000  Uiso   1.00
C571   C     0.67499   0.82158   0.26227   0.00000  Uiso   1.00
C572   C     0.84760   0.98932   0.23815   0.00000  Uiso   1.00
C573   C     0.81745   0.67891   0.26327   0.00000  Uiso   1.00
C574   C     0.98346   0.78687   0.28629   0.00000  Uiso   1.00
N575   N     0.96381   0.75914   0.30548   0.00000  Uiso   1.00
C576   C     0.88582   0.67531   0.20829   0.00000  Uiso   1.00
N577   N     0.91623   0.69073   0.18453   0.00000  Uiso   1.00
C578   C     0.77720   0.99558   0.29183   0.00000  Uiso   1.00
N579   N     0.74502   0.98246   0.31469   0.00000  Uiso   1.00
N580   N     0.82572   0.71662   0.44258   0.00000  Uiso   1.00
O581   O     0.79007   0.69186   0.44579   0.00000  Uiso   1.00
O582   O     0.86166   0.70253   0.42350   0.00000  Uiso   1.00
N583   N     0.78177   0.88558   0.06194   0.00000  Uiso   1.00
O584   O     0.75658   0.85564   0.08314   0.00000  Uiso   1.00
O585   O     0.79201   0.92007   0.08483   0.00000  Uiso   1.00
N586   N     0.77429   0.94598   0.00580   0.00000  Uiso   1.00
O587   O     0.74029   0.95517   0.49670   0.00000  Uiso   1.00
O588   O     0.79790   0.97467   0.02485   0.00000  Uiso   1.00
N589   N     0.78828   0.76753   0.39977   0.00000  Uiso   1.00
O590   O     0.80312   0.73798   0.37061   0.00000  Uiso   1.00
O591   O     0.75155   0.77813   0.39990   0.00000  Uiso   1.00
N592   N     0.68758   0.87730   0.21246   0.00000  Uiso   1.00
O593   O     0.67467   0.91266   0.21136   0.00000  Uiso   1.00
O594   O     0.72419   0.86964   0.18643   0.00000  Uiso   1.00
Zn595  Zn    0.19338   0.13994   0.78734   0.00000  Uiso   1.00
Zn596  Zn    0.13379   0.12458   0.71876   0.00000  Uiso   1.00
Zn597  Zn    0.21056   0.19775   0.70657   0.00000  Uiso   1.00
Zn598  Zn    0.12893   0.20439   0.78734   0.00000  Uiso   1.00
O599   O     0.16667   0.16667   0.75000   0.00000  Uiso   1.00
O600   O     0.07071   0.18878   0.78213   0.00000  Uiso   1.00
O601   O     0.25491   0.15226   0.77014   0.00000  Uiso   1.00
O602   O     0.13760   0.06944   0.73413   0.00000  Uiso   1.00
O603   O     0.20345   0.25620   0.71361   0.00000  Uiso   1.00
O604   O     0.15451   0.12637   0.65459   0.00000  Uiso   1.00
O605   O     0.12940   0.20391   0.84968   0.00000  Uiso   1.00
O606   O     0.20824   0.17759   0.64606   0.00000  Uiso   1.00
O607   O     0.17451   0.15880   0.84968   0.00000  Uiso   1.00
O608   O     0.17930   0.08019   0.78214   0.00000  Uiso   1.00
O609   O     0.14632   0.26085   0.77014   0.00000  Uiso   1.00
O610   O     0.07412   0.13291   0.73413   0.00000  Uiso   1.00
O611   O     0.26693   0.19272   0.71361   0.00000  Uiso   1.00
C612   C     0.05298   0.15915   0.75986   0.00000  Uiso   1.00
C613   C     0.28066   0.17424   0.74058   0.00000  Uiso   1.00
C614   C     0.15602   0.05604   0.75997   0.00000  Uiso   1.00
C615   C     0.17655   0.27785   0.74035   0.00000  Uiso   1.00
C616   C     0.18499   0.14782   0.62915   0.00000  Uiso   1.00
C617   C     0.14803   0.18416   0.87112   0.00000  Uiso   1.00
C618   C     0.18706   0.08316   0.52122   0.00000  Uiso   1.00
H619   H     0.20340   0.07574   0.58251   0.00000  Uiso   1.00
H620   H     0.19080   0.05125   0.50901   0.00000  Uiso   1.00
C621   C     0.19055   0.13800   0.58068   0.00000  Uiso   1.00
C622   C     0.12910   0.23076   0.94043   0.00000  Uiso   1.00
C623   C     0.12340   0.24107   0.98667   0.00000  Uiso   1.00
C624   C     0.13166   0.21328   0.51388   0.00000  Uiso   1.00
C625   C     0.14761   0.17559   0.99329   0.00000  Uiso   1.00
C626   C     0.14386   0.16198   0.94872   0.00000  Uiso   1.00
C627   C     0.16572   0.15027   0.51582   0.00000  Uiso   1.00
C628   C     0.17141   0.10893   0.99754   0.00000  Uiso   1.00
C629   C     0.15861   0.09308   0.95779   0.00000  Uiso   1.00
C630   C     0.14330   0.11909   0.93416   0.00000  Uiso   1.00
C631   C     0.17903   0.16507   0.55575   0.00000  Uiso   1.00
C632   C     0.19523   0.09725   0.56297   0.00000  Uiso   1.00
C633   C     0.13927   0.19160   0.92088   0.00000  Uiso   1.00
H634   H     0.17860   0.19697   0.56940   0.00000  Uiso   1.00
H635   H     0.12479   0.25350   0.91975   0.00000  Uiso   1.00
C636   C     0.32635   0.17904   0.73879   0.00000  Uiso   1.00
C637   C     0.00832   0.15491   0.76227   0.00000  Uiso   1.00
C638   C     0.18094   0.32265   0.73815   0.00000  Uiso   1.00
C639   C     0.15079   0.01224   0.76327   0.00000  Uiso   1.00
C640   C     0.31680   0.12021   0.78629   0.00000  Uiso   1.00
N641   N     0.29714   0.09248   0.80548   0.00000  Uiso   1.00
C642   C     0.21915   0.00865   0.70829   0.00000  Uiso   1.00
N643   N     0.24957   0.02406   0.68453   0.00000  Uiso   1.00
C644   C     0.11053   0.32891   0.79183   0.00000  Uiso   1.00
N645   N     0.07835   0.31580   0.81469   0.00000  Uiso   1.00
N646   N     0.15906   0.04996   0.94258   0.00000  Uiso   1.00
O647   O     0.12341   0.02519   0.94579   0.00000  Uiso   1.00
O648   O     0.19500   0.03587   0.92350   0.00000  Uiso   1.00
N649   N     0.11510   0.21891   0.56194   0.00000  Uiso   1.00
O650   O     0.08991   0.18897   0.58314   0.00000  Uiso   1.00
O651   O     0.12534   0.25340   0.58483   0.00000  Uiso   1.00
N652   N     0.10762   0.27932   0.50580   0.00000  Uiso   1.00
O653   O     0.07362   0.28851   0.99670   0.00000  Uiso   1.00
O654   O     0.13124   0.30800   0.52485   0.00000  Uiso   1.00
N655   N     0.12161   0.10086   0.89977   0.00000  Uiso   1.00
O656   O     0.13646   0.07131   0.87061   0.00000  Uiso   1.00
O657   O     0.08488   0.11147   0.89990   0.00000  Uiso   1.00
N658   N     0.02091   0.21064   0.71246   0.00000  Uiso   1.00
O659   O     0.00800   0.24600   0.71136   0.00000  Uiso   1.00
O660   O     0.05752   0.20298   0.68643   0.00000  Uiso   1.00
Zn661  Zn    0.52672   0.13994   0.78734   0.00000  Uiso   1.00
Zn662  Zn    0.46713   0.12458   0.71876   0.00000  Uiso   1.00
Zn663  Zn    0.54389   0.19775   0.70657   0.00000  Uiso   1.00
Zn664  Zn    0.46226   0.20439   0.78734   0.00000  Uiso   1.00
O665   O     0.50000   0.16667   0.75000   0.00000  Uiso   1.00
O666   O     0.40405   0.18878   0.78213   0.00000  Uiso   1.00
O667   O     0.58824   0.15226   0.77014   0.00000  Uiso   1.00
O668   O     0.47093   0.06944   0.73413   0.00000  Uiso   1.00
O669   O     0.53678   0.25620   0.71361   0.00000  Uiso   1.00
O670   O     0.48784   0.12637   0.65459   0.00000  Uiso   1.00
O671   O     0.46274   0.20391   0.84968   0.00000  Uiso   1.00
O672   O     0.54157   0.17759   0.64606   0.00000  Uiso   1.00
O673   O     0.50785   0.15880   0.84968   0.00000  Uiso   1.00
O674   O     0.51264   0.08019   0.78214   0.00000  Uiso   1.00
O675   O     0.47965   0.26085   0.77014   0.00000  Uiso   1.00
O676   O     0.40745   0.13291   0.73413   0.00000  Uiso   1.00
O677   O     0.60026   0.19272   0.71361   0.00000  Uiso   1.00
C678   C     0.38631   0.15915   0.75986   0.00000  Uiso   1.00
C679   C     0.61399   0.17424   0.74058   0.00000  Uiso   1.00
C680   C     0.48936   0.05604   0.75997   0.00000  Uiso   1.00
C681   C     0.50988   0.27785   0.74035   0.00000  Uiso   1.00
C682   C     0.51832   0.14782   0.62915   0.00000  Uiso   1.00
C683   C     0.48137   0.18416   0.87112   0.00000  Uiso   1.00
C684   C     0.52039   0.08316   0.52122   0.00000  Uiso   1.00
H685   H     0.53673   0.07574   0.58251   0.00000  Uiso   1.00
H686   H     0.52413   0.05125   0.50901   0.00000  Uiso   1.00
C687   C     0.52388   0.13800   0.58068   0.00000  Uiso   1.00
C688   C     0.46243   0.23076   0.94043   0.00000  Uiso   1.00
C689   C     0.45674   0.24107   0.98667   0.00000  Uiso   1.00
C690   C     0.46500   0.21328   0.51388   0.00000  Uiso   1.00
C691   C     0.48095   0.17559   0.99329   0.00000  Uiso   1.00
C692   C     0.47719   0.16198   0.94872   0.00000  Uiso   1.00
C693   C     0.49905   0.15027   0.51582   0.00000  Uiso   1.00
C694   C     0.50475   0.10893   0.99754   0.00000  Uiso   1.00
C695   C     0.49194   0.09308   0.95779   0.00000  Uiso   1.00
C696   C     0.47663   0.11909   0.93416   0.00000  Uiso   1.00
C697   C     0.51236   0.16507   0.55575   0.00000  Uiso   1.00
C698   C     0.52857   0.09725   0.56297   0.00000  Uiso   1.00
C699   C     0.47260   0.19160   0.92088   0.00000  Uiso   1.00
H700   H     0.51193   0.19697   0.56940   0.00000  Uiso   1.00
H701   H     0.45812   0.25350   0.91975   0.00000  Uiso   1.00
C702   C     0.65968   0.17904   0.73879   0.00000  Uiso   1.00
C703   C     0.34166   0.15491   0.76227   0.00000  Uiso   1.00
C704   C     0.51427   0.32265   0.73815   0.00000  Uiso   1.00
C705   C     0.48412   0.01224   0.76327   0.00000  Uiso   1.00
C706   C     0.65013   0.12021   0.78629   0.00000  Uiso   1.00
N707   N     0.63047   0.09248   0.80548   0.00000  Uiso   1.00
C708   C     0.55248   0.00865   0.70829   0.00000  Uiso   1.00
N709   N     0.58290   0.02406   0.68453   0.00000  Uiso   1.00
C710   C     0.44387   0.32891   0.79183   0.00000  Uiso   1.00
N711   N     0.41168   0.31580   0.81469   0.00000  Uiso   1.00
N712   N     0.49239   0.04996   0.94258   0.00000  Uiso   1.00
O713   O     0.45674   0.02519   0.94579   0.00000  Uiso   1.00
O714   O     0.52833   0.03587   0.92350   0.00000  Uiso   1.00
N715   N     0.44843   0.21891   0.56194   0.00000  Uiso   1.00
O716   O     0.42325   0.18897   0.58314   0.00000  Uiso   1.00
O717   O     0.45867   0.25340   0.58483   0.00000  Uiso   1.00
N718   N     0.44096   0.27932   0.50580   0.00000  Uiso   1.00
O719   O     0.40696   0.28851   0.99670   0.00000  Uiso   1.00
O720   O     0.46457   0.30800   0.52485   0.00000  Uiso   1.00
N721   N     0.45494   0.10086   0.89977   0.00000  Uiso   1.00
O722   O     0.46979   0.07131   0.87061   0.00000  Uiso   1.00
O723   O     0.41822   0.11147   0.89990   0.00000  Uiso   1.00
N724   N     0.35424   0.21064   0.71246   0.00000  Uiso   1.00
O725   O     0.34133   0.24600   0.71136   0.00000  Uiso   1.00
O726   O     0.39085   0.20298   0.68643   0.00000  Uiso   1.00
Zn727  Zn    0.86005   0.13994   0.78734   0.00000  Uiso   1.00
Zn728  Zn    0.80046   0.12458   0.71876   0.00000  Uiso   1.00
Zn729  Zn    0.87723   0.19775   0.70657   0.00000  Uiso   1.00
Zn730  Zn    0.79560   0.20439   0.78734   0.00000  Uiso   1.00
O731   O     0.83333   0.16667   0.75000   0.00000  Uiso   1.00
O732   O     0.73738   0.18878   0.78213   0.00000  Uiso   1.00
O733   O     0.92158   0.15226   0.77014   0.00000  Uiso   1.00
O734   O     0.80426   0.06944   0.73413   0.00000  Uiso   1.00
O735   O     0.87012   0.25620   0.71361   0.00000  Uiso   1.00
O736   O     0.82118   0.12637   0.65459   0.00000  Uiso   1.00
O737   O     0.79607   0.20391   0.84968   0.00000  Uiso   1.00
O738   O     0.87491   0.17759   0.64606   0.00000  Uiso   1.00
O739   O     0.84118   0.15880   0.84968   0.00000  Uiso   1.00
O740   O     0.84597   0.08019   0.78214   0.00000  Uiso   1.00
O741   O     0.81298   0.26085   0.77014   0.00000  Uiso   1.00
O742   O     0.74078   0.13291   0.73413   0.00000  Uiso   1.00
O743   O     0.93360   0.19272   0.71361   0.00000  Uiso   1.00
C744   C     0.71965   0.15915   0.75986   0.00000  Uiso   1.00
C745   C     0.94732   0.17424   0.74058   0.00000  Uiso   1.00
C746   C     0.82269   0.05604   0.75997   0.00000  Uiso   1.00
C747   C     0.84321   0.27785   0.74035   0.00000  Uiso   1.00
C748   C     0.85166   0.14782   0.62915   0.00000  Uiso   1.00
C749   C     0.81470   0.18416   0.87112   0.00000  Uiso   1.00
C750   C     0.85372   0.08316   0.52122   0.00000  Uiso   1.00
H751   H     0.87007   0.07574   0.58251   0.00000  Uiso   1.00
H752   H     0.85747   0.05125   0.50901   0.00000  Uiso   1.00
C753   C     0.85722   0.13800   0.58068   0.00000  Uiso   1.00
C754   C     0.79576   0.23076   0.94043   0.00000  Uiso   1.00
C755   C     0.79007   0.24107   0.98667   0.00000  Uiso   1.00
C756   C     0.79833   0.21328   0.51388   0.00000  Uiso   1.00
C757   C     0.81428   0.17559   0.99329   0.00000  Uiso   1.00
C758   C     0.81052   0.16198   0.94872   0.00000  Uiso   1.00
C759   C     0.83238   0.15027   0.51582   0.00000  Uiso   1.00
C760   C     0.83808   0.10893   0.99754   0.00000  Uiso   1.00
C761   C     0.82527   0.09308   0.95779   0.00000  Uiso   1.00
C762   C     0.80996   0.11909   0.93416   0.00000  Uiso   1.00
C763   C     0.84570   0.16507   0.55575   0.00000  Uiso   1.00
C764   C     0.86190   0.09725   0.56297   0.00000  Uiso   1.00
C765   C     0.80593   0.19160   0.92088   0.00000  Uiso   1.00
H766   H     0.84527   0.19697   0.56940   0.00000  Uiso   1.00
H767   H     0.79146   0.25350   0.91975   0.00000  Uiso   1.00
C768   C     0.99302   0.17904   0.73879   0.00000  Uiso   1.00
C769   C     0.67499   0.15491   0.76227   0.00000  Uiso   1.00
C770   C     0.84760   0.32265   0.73815   0.00000  Uiso   1.00
C771   C     0.81745   0.01224   0.76327   0.00000  Uiso   1.00
C772   C     0.98346   0.12021   0.78629   0.00000  Uiso   1.00
N773   N     0.96381   0.09248   0.80548   0.00000  Uiso   1.00
C774   C     0.88582   0.00865   0.70829   0.00000  Uiso   1.00
N775   N     0.91623   0.02406   0.68453   0.00000  Uiso   1.00
C776   C     0.77720   0.32891   0.79183   0.00000  Uiso   1.00
N777   N     0.74502   0.31580   0.81469   0.00000  Uiso   1.00
N778   N     0.82572   0.04996   0.94258   0.00000  Uiso   1.00
O779   O     0.79007   0.02519   0.94579   0.00000  Uiso   1.00
O780   O     0.86166   0.03587   0.92350   0.00000  Uiso   1.00
N781   N     0.78177   0.21891   0.56194   0.00000  Uiso   1.00
O782   O     0.75658   0.18897   0.58314   0.00000  Uiso   1.00
O783   O     0.79201   0.25340   0.58483   0.00000  Uiso   1.00
N784   N     0.77429   0.27932   0.50580   0.00000  Uiso   1.00
O785   O     0.74029   0.28851   0.99670   0.00000  Uiso   1.00
O786   O     0.79790   0.30800   0.52485   0.00000  Uiso   1.00
N787   N     0.78828   0.10086   0.89977   0.00000  Uiso   1.00
O788   O     0.80312   0.07131   0.87061   0.00000  Uiso   1.00
O789   O     0.75155   0.11147   0.89990   0.00000  Uiso   1.00
N790   N     0.68758   0.21064   0.71246   0.00000  Uiso   1.00
O791   O     0.67467   0.24600   0.71136   0.00000  Uiso   1.00
O792   O     0.72419   0.20298   0.68643   0.00000  Uiso   1.00
Zn793  Zn    0.19338   0.47327   0.78734   0.00000  Uiso   1.00
Zn794  Zn    0.13379   0.45791   0.71876   0.00000  Uiso   1.00
Zn795  Zn    0.21056   0.53109   0.70657   0.00000  Uiso   1.00
Zn796  Zn    0.12893   0.53773   0.78734   0.00000  Uiso   1.00
O797   O     0.16667   0.50000   0.75000   0.00000  Uiso   1.00
O798   O     0.07071   0.52211   0.78213   0.00000  Uiso   1.00
O799   O     0.25491   0.48559   0.77014   0.00000  Uiso   1.00
O800   O     0.13760   0.40277   0.73413   0.00000  Uiso   1.00
O801   O     0.20345   0.58953   0.71361   0.00000  Uiso   1.00
O802   O     0.15451   0.45970   0.65459   0.00000  Uiso   1.00
O803   O     0.12940   0.53724   0.84968   0.00000  Uiso   1.00
O804   O     0.20824   0.51092   0.64606   0.00000  Uiso   1.00
O805   O     0.17451   0.49213   0.84968   0.00000  Uiso   1.00
O806   O     0.17930   0.41352   0.78214   0.00000  Uiso   1.00
O807   O     0.14632   0.59418   0.77014   0.00000  Uiso   1.00
O808   O     0.07412   0.46625   0.73413   0.00000  Uiso   1.00
O809   O     0.26693   0.52605   0.71361   0.00000  Uiso   1.00
C810   C     0.05298   0.49248   0.75986   0.00000  Uiso   1.00
C811   C     0.28066   0.50757   0.74058   0.00000  Uiso   1.00
C812   C     0.15602   0.38938   0.75997   0.00000  Uiso   1.00
C813   C     0.17655   0.61118   0.74035   0.00000  Uiso   1.00
C814   C     0.18499   0.48116   0.62915   0.00000  Uiso   1.00
C815   C     0.14803   0.51750   0.87112   0.00000  Uiso   1.00
C816   C     0.18706   0.41650   0.52122   0.00000  Uiso   1.00
H817   H     0.20340   0.40908   0.58251   0.00000  Uiso   1.00
H818   H     0.19080   0.38458   0.50901   0.00000  Uiso   1.00
C819   C     0.19055   0.47133   0.58068   0.00000  Uiso   1.00
C820   C     0.12910   0.56409   0.94043   0.00000  Uiso   1.00
C821   C     0.12340   0.57440   0.98667   0.00000  Uiso   1.00
C822   C     0.13166   0.54661   0.51388   0.00000  Uiso   1.00
C823   C     0.14761   0.50893   0.99329   0.00000  Uiso   1.00
C824   C     0.14386   0.49532   0.94872   0.00000  Uiso   1.00
C825   C     0.16572   0.48360   0.51582   0.00000  Uiso   1.00
C826   C     0.17141   0.44226   0.99754   0.00000  Uiso   1.00
C827   C     0.15861   0.42641   0.95779   0.00000  Uiso   1.00
C828   C     0.14330   0.45242   0.93416   0.00000  Uiso   1.00
C829   C     0.17903   0.49840   0.55575   0.00000  Uiso   1.00
C830   C     0.19523   0.43058   0.56297   0.00000  Uiso   1.00
C831   C     0.13927   0.52494   0.92088   0.00000  Uiso   1.00
H832   H     0.17860   0.53030   0.56940   0.00000  Uiso   1.00
H833   H     0.12479   0.58684   0.91975   0.00000  Uiso   1.00
C834   C     0.32635   0.51238   0.73879   0.00000  Uiso   1.00
C835   C     0.00832   0.48825   0.76227   0.00000  Uiso   1.00
C836   C     0.18094   0.65598   0.73815   0.00000  Uiso   1.00
C837   C     0.15079   0.34558   0.76327   0.00000  Uiso   1.00
C838   C     0.31680   0.45354   0.78629   0.00000  Uiso   1.00
N839   N     0.29714   0.42581   0.80548   0.00000  Uiso   1.00
C840   C     0.21915   0.34198   0.70829   0.00000  Uiso   1.00
N841   N     0.24957   0.35739   0.68453   0.00000  Uiso   1.00
C842   C     0.11053   0.66225   0.79183   0.00000  Uiso   1.00
N843   N     0.07835   0.64913   0.81469   0.00000  Uiso   1.00
N844   N     0.15906   0.38329   0.94258   0.00000  Uiso   1.00
O845   O     0.12341   0.35853   0.94579   0.00000  Uiso   1.00
O846   O     0.19500   0.36920   0.92350   0.00000  Uiso   1.00
N847   N     0.11510   0.55224   0.56194   0.00000  Uiso   1.00
O848   O     0.08991   0.52231   0.58314   0.00000  Uiso   1.00
O849   O     0.12534   0.58674   0.58483   0.00000  Uiso   1.00
N850   N     0.10762   0.61265   0.50580   0.00000  Uiso   1.00
O851   O     0.07362   0.62184   0.99670   0.00000  Uiso   1.00
O852   O     0.13124   0.64133   0.52485   0.00000  Uiso   1.00
N853   N     0.12161   0.43419   0.89977   0.00000  Uiso   1.00
O854   O     0.13646   0.40465   0.87061   0.00000  Uiso   1.00
O855   O     0.08488   0.44480   0.89990   0.00000  Uiso   1.00
N856   N     0.02091   0.54397   0.71246   0.00000  Uiso   1.00
O857   O     0.00800   0.57933   0.71136   0.00000  Uiso   1.00
O858   O     0.05752   0.53631   0.68643   0.00000  Uiso   1.00
Zn859  Zn    0.52672   0.47327   0.78734   0.00000  Uiso   1.00
Zn860  Zn    0.46713   0.45791   0.71876   0.00000  Uiso   1.00
Zn861  Zn    0.54389   0.53109   0.70657   0.00000  Uiso   1.00
Zn862  Zn    0.46226   0.53773   0.78734   0.00000  Uiso   1.00
O863   O     0.50000   0.50000   0.75000   0.00000  Uiso   1.00
O864   O     0.40405   0.52211   0.78213   0.00000  Uiso   1.00
O865   O     0.58824   0.48559   0.77014   0.00000  Uiso   1.00
O866   O     0.47093   0.40277   0.73413   0.00000  Uiso   1.00
O867   O     0.53678   0.58953   0.71361   0.00000  Uiso   1.00
O868   O     0.48784   0.45970   0.65459   0.00000  Uiso   1.00
O869   O     0.46274   0.53724   0.84968   0.00000  Uiso   1.00
O870   O     0.54157   0.51092   0.64606   0.00000  Uiso   1.00
O871   O     0.50785   0.49213   0.84968   0.00000  Uiso   1.00
O872   O     0.51264   0.41352   0.78214   0.00000  Uiso   1.00
O873   O     0.47965   0.59418   0.77014   0.00000  Uiso   1.00
O874   O     0.40745   0.46625   0.73413   0.00000  Uiso   1.00
O875   O     0.60026   0.52605   0.71361   0.00000  Uiso   1.00
C876   C     0.38631   0.49248   0.75986   0.00000  Uiso   1.00
C877   C     0.61399   0.50757   0.74058   0.00000  Uiso   1.00
C878   C     0.48936   0.38938   0.75997   0.00000  Uiso   1.00
C879   C     0.50988   0.61118   0.74035   0.00000  Uiso   1.00
C880   C     0.51832   0.48116   0.62915   0.00000  Uiso   1.00
C881   C     0.48137   0.51750   0.87112   0.00000  Uiso   1.00
C882   C     0.52039   0.41650   0.52122   0.00000  Uiso   1.00
H883   H     0.53673   0.40908   0.58251   0.00000  Uiso   1.00
H884   H     0.52413   0.38458   0.50901   0.00000  Uiso   1.00
C885   C     0.52388   0.47133   0.58068   0.00000  Uiso   1.00
C886   C     0.46243   0.56409   0.94043   0.00000  Uiso   1.00
C887   C     0.45674   0.57440   0.98667   0.00000  Uiso   1.00
C888   C     0.46500   0.54661   0.51388   0.00000  Uiso   1.00
C889   C     0.48095   0.50893   0.99329   0.00000  Uiso   1.00
C890   C     0.47719   0.49532   0.94872   0.00000  Uiso   1.00
C891   C     0.49905   0.48360   0.51582   0.00000  Uiso   1.00
C892   C     0.50475   0.44226   0.99754   0.00000  Uiso   1.00
C893   C     0.49194   0.42641   0.95779   0.00000  Uiso   1.00
C894   C     0.47663   0.45242   0.93416   0.00000  Uiso   1.00
C895   C     0.51236   0.49840   0.55575   0.00000  Uiso   1.00
C896   C     0.52857   0.43058   0.56297   0.00000  Uiso   1.00
C897   C     0.47260   0.52494   0.92088   0.00000  Uiso   1.00
H898   H     0.51193   0.53030   0.56940   0.00000  Uiso   1.00
H899   H     0.45812   0.58684   0.91975   0.00000  Uiso   1.00
C900   C     0.65968   0.51238   0.73879   0.00000  Uiso   1.00
C901   C     0.34166   0.48825   0.76227   0.00000  Uiso   1.00
C902   C     0.51427   0.65598   0.73815   0.00000  Uiso   1.00
C903   C     0.48412   0.34558   0.76327   0.00000  Uiso   1.00
C904   C     0.65013   0.45354   0.78629   0.00000  Uiso   1.00
N905   N     0.63047   0.42581   0.80548   0.00000  Uiso   1.00
C906   C     0.55248   0.34198   0.70829   0.00000  Uiso   1.00
N907   N     0.58290   0.35739   0.68453   0.00000  Uiso   1.00
C908   C     0.44387   0.66225   0.79183   0.00000  Uiso   1.00
N909   N     0.41168   0.64913   0.81469   0.00000  Uiso   1.00
N910   N     0.49239   0.38329   0.94258   0.00000  Uiso   1.00
O911   O     0.45674   0.35853   0.94579   0.00000  Uiso   1.00
O912   O     0.52833   0.36920   0.92350   0.00000  Uiso   1.00
N913   N     0.44843   0.55224   0.56194   0.00000  Uiso   1.00
O914   O     0.42325   0.52231   0.58314   0.00000  Uiso   1.00
O915   O     0.45867   0.58674   0.58483   0.00000  Uiso   1.00
N916   N     0.44096   0.61265   0.50580   0.00000  Uiso   1.00
O917   O     0.40696   0.62184   0.99670   0.00000  Uiso   1.00
O918   O     0.46457   0.64133   0.52485   0.00000  Uiso   1.00
N919   N     0.45494   0.43419   0.89977   0.00000  Uiso   1.00
O920   O     0.46979   0.40465   0.87061   0.00000  Uiso   1.00
O921   O     0.41822   0.44480   0.89990   0.00000  Uiso   1.00
N922   N     0.35424   0.54397   0.71246   0.00000  Uiso   1.00
O923   O     0.34133   0.57933   0.71136   0.00000  Uiso   1.00
O924   O     0.39085   0.53631   0.68643   0.00000  Uiso   1.00
Zn925  Zn    0.86005   0.47327   0.78734   0.00000  Uiso   1.00
Zn926  Zn    0.80046   0.45791   0.71876   0.00000  Uiso   1.00
Zn927  Zn    0.87723   0.53109   0.70657   0.00000  Uiso   1.00
Zn928  Zn    0.79560   0.53773   0.78734   0.00000  Uiso   1.00
O929   O     0.83333   0.50000   0.75000   0.00000  Uiso   1.00
O930   O     0.73738   0.52211   0.78213   0.00000  Uiso   1.00
O931   O     0.92158   0.48559   0.77014   0.00000  Uiso   1.00
O932   O     0.80426   0.40277   0.73413   0.00000  Uiso   1.00
O933   O     0.87012   0.58953   0.71361   0.00000  Uiso   1.00
O934   O     0.82118   0.45970   0.65459   0.00000  Uiso   1.00
O935   O     0.79607   0.53724   0.84968   0.00000  Uiso   1.00
O936   O     0.87491   0.51092   0.64606   0.00000  Uiso   1.00
O937   O     0.84118   0.49213   0.84968   0.00000  Uiso   1.00
O938   O     0.84597   0.41352   0.78214   0.00000  Uiso   1.00
O939   O     0.81298   0.59418   0.77014   0.00000  Uiso   1.00
O940   O     0.74078   0.46625   0.73413   0.00000  Uiso   1.00
O941   O     0.93360   0.52605   0.71361   0.00000  Uiso   1.00
C942   C     0.71965   0.49248   0.75986   0.00000  Uiso   1.00
C943   C     0.94732   0.50757   0.74058   0.00000  Uiso   1.00
C944   C     0.82269   0.38938   0.75997   0.00000  Uiso   1.00
C945   C     0.84321   0.61118   0.74035   0.00000  Uiso   1.00
C946   C     0.85166   0.48116   0.62915   0.00000  Uiso   1.00
C947   C     0.81470   0.51750   0.87112   0.00000  Uiso   1.00
C948   C     0.85372   0.41650   0.52122   0.00000  Uiso   1.00
H949   H     0.87007   0.40908   0.58251   0.00000  Uiso   1.00
H950   H     0.85747   0.38458   0.50901   0.00000  Uiso   1.00
C951   C     0.85722   0.47133   0.58068   0.00000  Uiso   1.00
C952   C     0.79576   0.56409   0.94043   0.00000  Uiso   1.00
C953   C     0.79007   0.57440   0.98667   0.00000  Uiso   1.00
C954   C     0.79833   0.54661   0.51388   0.00000  Uiso   1.00
C955   C     0.81428   0.50893   0.99329   0.00000  Uiso   1.00
C956   C     0.81052   0.49532   0.94872   0.00000  Uiso   1.00
C957   C     0.83238   0.48360   0.51582   0.00000  Uiso   1.00
C958   C     0.83808   0.44226   0.99754   0.00000  Uiso   1.00
C959   C     0.82527   0.42641   0.95779   0.00000  Uiso   1.00
C960   C     0.80996   0.45242   0.93416   0.00000  Uiso   1.00
C961   C     0.84570   0.49840   0.55575   0.00000  Uiso   1.00
C962   C     0.86190   0.43058   0.56297   0.00000  Uiso   1.00
C963   C     0.80593   0.52494   0.92088   0.00000  Uiso   1.00
H964   H     0.84527   0.53030   0.56940   0.00000  Uiso   1.00
H965   H     0.79146   0.58684   0.91975   0.00000  Uiso   1.00
C966   C     0.99302   0.51238   0.73879   0.00000  Uiso   1.00
C967   C     0.67499   0.48825   0.76227   0.00000  Uiso   1.00
C968   C     0.84760   0.65598   0.73815   0.00000  Uiso   1.00
C969   C     0.81745   0.34558   0.76327   0.00000  Uiso   1.00
C970   C     0.98346   0.45354   0.78629   0.00000  Uiso   1.00
N971   N     0.96381   0.42581   0.80548   0.00000  Uiso   1.00
C972   C     0.88582   0.34198   0.70829   0.00000  Uiso   1.00
N973   N     0.91623   0.35739   0.68453   0.00000  Uiso   1.00
C974   C     0.77720   0.66225   0.79183   0.00000  Uiso   1.00
N975   N     0.74502   0.64913   0.81469   0.00000  Uiso   1.00
N976   N     0.82572   0.38329   0.94258   0.00000  Uiso   1.00
O977   O     0.79007   0.35853   0.94579   0.00000  Uiso   1.00
O978   O     0.86166   0.36920   0.92350   0.00000  Uiso   1.00
N979   N     0.78177   0.55224   0.56194   0.00000  Uiso   1.00
O980   O     0.75658   0.52231   0.58314   0.00000  Uiso   1.00
O981   O     0.79201   0.58674   0.58483   0.00000  Uiso   1.00
N982   N     0.77429   0.61265   0.50580   0.00000  Uiso   1.00
O983   O     0.74029   0.62184   0.99670   0.00000  Uiso   1.00
O984   O     0.79790   0.64133   0.52485   0.00000  Uiso   1.00
N985   N     0.78828   0.43419   0.89977   0.00000  Uiso   1.00
O986   O     0.80312   0.40465   0.87061   0.00000  Uiso   1.00
O987   O     0.75155   0.44480   0.89990   0.00000  Uiso   1.00
N988   N     0.68758   0.54397   0.71246   0.00000  Uiso   1.00
O989   O     0.67467   0.57933   0.71136   0.00000  Uiso   1.00
O990   O     0.72419   0.53631   0.68643   0.00000  Uiso   1.00
Zn991  Zn    0.19338   0.80661   0.78734   0.00000  Uiso   1.00
Zn992  Zn    0.13379   0.79124   0.71876   0.00000  Uiso   1.00
Zn993  Zn    0.21056   0.86442   0.70657   0.00000  Uiso   1.00
Zn994  Zn    0.12893   0.87106   0.78734   0.00000  Uiso   1.00
O995   O     0.16667   0.83333   0.75000   0.00000  Uiso   1.00
O996   O     0.07071   0.85544   0.78213   0.00000  Uiso   1.00
O997   O     0.25491   0.81892   0.77014   0.00000  Uiso   1.00
O998   O     0.13760   0.73610   0.73413   0.00000  Uiso   1.00
O999   O     0.20345   0.92286   0.71361   0.00000  Uiso   1.00
O1000  O     0.15451   0.79304   0.65459   0.00000  Uiso   1.00
O1001  O     0.12940   0.87058   0.84968   0.00000  Uiso   1.00
O1002  O     0.20824   0.84425   0.64606   0.00000  Uiso   1.00
O1003  O     0.17451   0.82546   0.84968   0.00000  Uiso   1.00
O1004  O     0.17930   0.74686   0.78214   0.00000  Uiso   1.00
O1005  O     0.14632   0.92751   0.77014   0.00000  Uiso   1.00
O1006  O     0.07412   0.79958   0.73413   0.00000  Uiso   1.00
O1007  O     0.26693   0.85939   0.71361   0.00000  Uiso   1.00
C1008  C     0.05298   0.82582   0.75986   0.00000  Uiso   1.00
C1009  C     0.28066   0.84090   0.74058   0.00000  Uiso   1.00
C1010  C     0.15602   0.72271   0.75997   0.00000  Uiso   1.00
C1011  C     0.17655   0.94451   0.74035   0.00000  Uiso   1.00
C1012  C     0.18499   0.81449   0.62915   0.00000  Uiso   1.00
C1013  C     0.14803   0.85083   0.87112   0.00000  Uiso   1.00
C1014  C     0.18706   0.74983   0.52122   0.00000  Uiso   1.00
H1015  H     0.20340   0.74241   0.58251   0.00000  Uiso   1.00
H1016  H     0.19080   0.71792   0.50901   0.00000  Uiso   1.00
C1017  C     0.19055   0.80467   0.58068   0.00000  Uiso   1.00
C1018  C     0.12910   0.89743   0.94043   0.00000  Uiso   1.00
C1019  C     0.12340   0.90773   0.98667   0.00000  Uiso   1.00
C1020  C     0.13166   0.87995   0.51388   0.00000  Uiso   1.00
C1021  C     0.14761   0.84226   0.99329   0.00000  Uiso   1.00
C1022  C     0.14386   0.82865   0.94872   0.00000  Uiso   1.00
C1023  C     0.16572   0.81693   0.51582   0.00000  Uiso   1.00
C1024  C     0.17141   0.77560   0.99754   0.00000  Uiso   1.00
C1025  C     0.15861   0.75974   0.95779   0.00000  Uiso   1.00
C1026  C     0.14330   0.78575   0.93416   0.00000  Uiso   1.00
C1027  C     0.17903   0.83174   0.55575   0.00000  Uiso   1.00
C1028  C     0.19523   0.76392   0.56297   0.00000  Uiso   1.00
C1029  C     0.13927   0.85827   0.92088   0.00000  Uiso   1.00
H1030  H     0.17860   0.86364   0.56940   0.00000  Uiso   1.00
H1031  H     0.12479   0.92017   0.91975   0.00000  Uiso   1.00
C1032  C     0.32635   0.84571   0.73879   0.00000  Uiso   1.00
C1033  C     0.00832   0.82158   0.76227   0.00000  Uiso   1.00
C1034  C     0.18094   0.98932   0.73815   0.00000  Uiso   1.00
C1035  C     0.15079   0.67891   0.76327   0.00000  Uiso   1.00
C1036  C     0.31680   0.78687   0.78629   0.00000  Uiso   1.00
N1037  N     0.29714   0.75914   0.80548   0.00000  Uiso   1.00
C1038  C     0.21915   0.67531   0.70829   0.00000  Uiso   1.00
N1039  N     0.24957   0.69073   0.68453   0.00000  Uiso   1.00
C1040  C     0.11053   0.99558   0.79183   0.00000  Uiso   1.00
N1041  N     0.07835   0.98246   0.81469   0.00000  Uiso   1.00
N1042  N     0.15906   0.71662   0.94258   0.00000  Uiso   1.00
O1043  O     0.12341   0.69186   0.94579   0.00000  Uiso   1.00
O1044  O     0.19500   0.70253   0.92350   0.00000  Uiso   1.00
N1045  N     0.11510   0.88558   0.56194   0.00000  Uiso   1.00
O1046  O     0.08991   0.85564   0.58314   0.00000  Uiso   1.00
O1047  O     0.12534   0.92007   0.58483   0.00000  Uiso   1.00
N1048  N     0.10762   0.94598   0.50580   0.00000  Uiso   1.00
O1049  O     0.07362   0.95517   0.99670   0.00000  Uiso   1.00
O1050  O     0.13124   0.97467   0.52485   0.00000  Uiso   1.00
N1051  N     0.12161   0.76753   0.89977   0.00000  Uiso   1.00
O1052  O     0.13646   0.73798   0.87061   0.00000  Uiso   1.00
O1053  O     0.08488   0.77813   0.89990   0.00000  Uiso   1.00
N1054  N     0.02091   0.87730   0.71246   0.00000  Uiso   1.00
O1055  O     0.00800   0.91266   0.71136   0.00000  Uiso   1.00
O1056  O     0.05752   0.86964   0.68643   0.00000  Uiso   1.00
Zn1057 Zn    0.52672   0.80661   0.78734   0.00000  Uiso   1.00
Zn1058 Zn    0.46713   0.79124   0.71876   0.00000  Uiso   1.00
Zn1059 Zn    0.54389   0.86442   0.70657   0.00000  Uiso   1.00
Zn1060 Zn    0.46226   0.87106   0.78734   0.00000  Uiso   1.00
O1061  O     0.50000   0.83333   0.75000   0.00000  Uiso   1.00
O1062  O     0.40405   0.85544   0.78213   0.00000  Uiso   1.00
O1063  O     0.58824   0.81892   0.77014   0.00000  Uiso   1.00
O1064  O     0.47093   0.73610   0.73413   0.00000  Uiso   1.00
O1065  O     0.53678   0.92286   0.71361   0.00000  Uiso   1.00
O1066  O     0.48784   0.79304   0.65459   0.00000  Uiso   1.00
O1067  O     0.46274   0.87058   0.84968   0.00000  Uiso   1.00
O1068  O     0.54157   0.84425   0.64606   0.00000  Uiso   1.00
O1069  O     0.50785   0.82546   0.84968   0.00000  Uiso   1.00
O1070  O     0.51264   0.74686   0.78214   0.00000  Uiso   1.00
O1071  O     0.47965   0.92751   0.77014   0.00000  Uiso   1.00
O1072  O     0.40745   0.79958   0.73413   0.00000  Uiso   1.00
O1073  O     0.60026   0.85939   0.71361   0.00000  Uiso   1.00
C1074  C     0.38631   0.82582   0.75986   0.00000  Uiso   1.00
C1075  C     0.61399   0.84090   0.74058   0.00000  Uiso   1.00
C1076  C     0.48936   0.72271   0.75997   0.00000  Uiso   1.00
C1077  C     0.50988   0.94451   0.74035   0.00000  Uiso   1.00
C1078  C     0.51832   0.81449   0.62915   0.00000  Uiso   1.00
C1079  C     0.48137   0.85083   0.87112   0.00000  Uiso   1.00
C1080  C     0.52039   0.74983   0.52122   0.00000  Uiso   1.00
H1081  H     0.53673   0.74241   0.58251   0.00000  Uiso   1.00
H1082  H     0.52413   0.71792   0.50901   0.00000  Uiso   1.00
C1083  C     0.52388   0.80467   0.58068   0.00000  Uiso   1.00
C1084  C     0.46243   0.89743   0.94043   0.00000  Uiso   1.00
C1085  C     0.45674   0.90773   0.98667   0.00000  Uiso   1.00
C1086  C     0.46500   0.87995   0.51388   0.00000  Uiso   1.00
C1087  C     0.48095   0.84226   0.99329   0.00000  Uiso   1.00
C1088  C     0.47719   0.82865   0.94872   0.00000  Uiso   1.00
C1089  C     0.49905   0.81693   0.51582   0.00000  Uiso   1.00
C1090  C     0.50475   0.77560   0.99754   0.00000  Uiso   1.00
C1091  C     0.49194   0.75974   0.95779   0.00000  Uiso   1.00
C1092  C     0.47663   0.78575   0.93416   0.00000  Uiso   1.00
C1093  C     0.51236   0.83174   0.55575   0.00000  Uiso   1.00
C1094  C     0.52857   0.76392   0.56297   0.00000  Uiso   1.00
C1095  C     0.47260   0.85827   0.92088   0.00000  Uiso   1.00
H1096  H     0.51193   0.86364   0.56940   0.00000  Uiso   1.00
H1097  H     0.45812   0.92017   0.91975   0.00000  Uiso   1.00
C1098  C     0.65968   0.84571   0.73879   0.00000  Uiso   1.00
C1099  C     0.34166   0.82158   0.76227   0.00000  Uiso   1.00
C1100  C     0.51427   0.98932   0.73815   0.00000  Uiso   1.00
C1101  C     0.48412   0.67891   0.76327   0.00000  Uiso   1.00
C1102  C     0.65013   0.78687   0.78629   0.00000  Uiso   1.00
N1103  N     0.63047   0.75914   0.80548   0.00000  Uiso   1.00
C1104  C     0.55248   0.67531   0.70829   0.00000  Uiso   1.00
N1105  N     0.58290   0.69073   0.68453   0.00000  Uiso   1.00
C1106  C     0.44387   0.99558   0.79183   0.00000  Uiso   1.00
N1107  N     0.41168   0.98246   0.81469   0.00000  Uiso   1.00
N1108  N     0.49239   0.71662   0.94258   0.00000  Uiso   1.00
O1109  O     0.45674   0.69186   0.94579   0.00000  Uiso   1.00
O1110  O     0.52833   0.70253   0.92350   0.00000  Uiso   1.00
N1111  N     0.44843   0.88558   0.56194   0.00000  Uiso   1.00
O1112  O     0.42325   0.85564   0.58314   0.00000  Uiso   1.00
O1113  O     0.45867   0.92007   0.58483   0.00000  Uiso   1.00
N1114  N     0.44096   0.94598   0.50580   0.00000  Uiso   1.00
O1115  O     0.40696   0.95517   0.99670   0.00000  Uiso   1.00
O1116  O     0.46457   0.97467   0.52485   0.00000  Uiso   1.00
N1117  N     0.45494   0.76753   0.89977   0.00000  Uiso   1.00
O1118  O     0.46979   0.73798   0.87061   0.00000  Uiso   1.00
O1119  O     0.41822   0.77813   0.89990   0.00000  Uiso   1.00
N1120  N     0.35424   0.87730   0.71246   0.00000  Uiso   1.00
O1121  O     0.34133   0.91266   0.71136   0.00000  Uiso   1.00
O1122  O     0.39085   0.86964   0.68643   0.00000  Uiso   1.00
Zn1123 Zn    0.86005   0.80661   0.78734   0.00000  Uiso   1.00
Zn1124 Zn    0.80046   0.79124   0.71876   0.00000  Uiso   1.00
Zn1125 Zn    0.87723   0.86442   0.70657   0.00000  Uiso   1.00
Zn1126 Zn    0.79560   0.87106   0.78734   0.00000  Uiso   1.00
O1127  O     0.83333   0.83333   0.75000   0.00000  Uiso   1.00
O1128  O     0.73738   0.85544   0.78213   0.00000  Uiso   1.00
O1129  O     0.92158   0.81892   0.77014   0.00000  Uiso   1.00
O1130  O     0.80426   0.73610   0.73413   0.00000  Uiso   1.00
O1131  O     0.87012   0.92286   0.71361   0.00000  Uiso   1.00
O1132  O     0.82118   0.79304   0.65459   0.00000  Uiso   1.00
O1133  O     0.79607   0.87058   0.84968   0.00000  Uiso   1.00
O1134  O     0.87491   0.84425   0.64606   0.00000  Uiso   1.00
O1135  O     0.84118   0.82546   0.84968   0.00000  Uiso   1.00
O1136  O     0.84597   0.74686   0.78214   0.00000  Uiso   1.00
O1137  O     0.81298   0.92751   0.77014   0.00000  Uiso   1.00
O1138  O     0.74078   0.79958   0.73413   0.00000  Uiso   1.00
O1139  O     0.93360   0.85939   0.71361   0.00000  Uiso   1.00
C1140  C     0.71965   0.82582   0.75986   0.00000  Uiso   1.00
C1141  C     0.94732   0.84090   0.74058   0.00000  Uiso   1.00
C1142  C     0.82269   0.72271   0.75997   0.00000  Uiso   1.00
C1143  C     0.84321   0.94451   0.74035   0.00000  Uiso   1.00
C1144  C     0.85166   0.81449   0.62915   0.00000  Uiso   1.00
C1145  C     0.81470   0.85083   0.87112   0.00000  Uiso   1.00
C1146  C     0.85372   0.74983   0.52122   0.00000  Uiso   1.00
H1147  H     0.87007   0.74241   0.58251   0.00000  Uiso   1.00
H1148  H     0.85747   0.71792   0.50901   0.00000  Uiso   1.00
C1149  C     0.85722   0.80467   0.58068   0.00000  Uiso   1.00
C1150  C     0.79576   0.89743   0.94043   0.00000  Uiso   1.00
C1151  C     0.79007   0.90773   0.98667   0.00000  Uiso   1.00
C1152  C     0.79833   0.87995   0.51388   0.00000  Uiso   1.00
C1153  C     0.81428   0.84226   0.99329   0.00000  Uiso   1.00
C1154  C     0.81052   0.82865   0.94872   0.00000  Uiso   1.00
C1155  C     0.83238   0.81693   0.51582   0.00000  Uiso   1.00
C1156  C     0.83808   0.77560   0.99754   0.00000  Uiso   1.00
C1157  C     0.82527   0.75974   0.95779   0.00000  Uiso   1.00
C1158  C     0.80996   0.78575   0.93416   0.00000  Uiso   1.00
C1159  C     0.84570   0.83174   0.55575   0.00000  Uiso   1.00
C1160  C     0.86190   0.76392   0.56297   0.00000  Uiso   1.00
C1161  C     0.80593   0.85827   0.92088   0.00000  Uiso   1.00
H1162  H     0.84527   0.86364   0.56940   0.00000  Uiso   1.00
H1163  H     0.79146   0.92017   0.91975   0.00000  Uiso   1.00
C1164  C     0.99302   0.84571   0.73879   0.00000  Uiso   1.00
C1165  C     0.67499   0.82158   0.76227   0.00000  Uiso   1.00
C1166  C     0.84760   0.98932   0.73815   0.00000  Uiso   1.00
C1167  C     0.81745   0.67891   0.76327   0.00000  Uiso   1.00
C1168  C     0.98346   0.78687   0.78629   0.00000  Uiso   1.00
N1169  N     0.96381   0.75914   0.80548   0.00000  Uiso   1.00
C1170  C     0.88582   0.67531   0.70829   0.00000  Uiso   1.00
N1171  N     0.91623   0.69073   0.68453   0.00000  Uiso   1.00
C1172  C     0.77720   0.99558   0.79183   0.00000  Uiso   1.00
N1173  N     0.74502   0.98246   0.81469   0.00000  Uiso   1.00
N1174  N     0.82572   0.71662   0.94258   0.00000  Uiso   1.00
O1175  O     0.79007   0.69186   0.94579   0.00000  Uiso   1.00
O1176  O     0.86166   0.70253   0.92350   0.00000  Uiso   1.00
N1177  N     0.78177   0.88558   0.56194   0.00000  Uiso   1.00
O1178  O     0.75658   0.85564   0.58314   0.00000  Uiso   1.00
O1179  O     0.79201   0.92007   0.58483   0.00000  Uiso   1.00
N1180  N     0.77429   0.94598   0.50580   0.00000  Uiso   1.00
O1181  O     0.74029   0.95517   0.99670   0.00000  Uiso   1.00
O1182  O     0.79790   0.97467   0.52485   0.00000  Uiso   1.00
N1183  N     0.78828   0.76753   0.89977   0.00000  Uiso   1.00
O1184  O     0.80312   0.73798   0.87061   0.00000  Uiso   1.00
O1185  O     0.75155   0.77813   0.89990   0.00000  Uiso   1.00
N1186  N     0.68758   0.87730   0.71246   0.00000  Uiso   1.00
O1187  O     0.67467   0.91266   0.71136   0.00000  Uiso   1.00
O1188  O     0.72419   0.86964   0.68643   0.00000  Uiso   1.00
loop_
_geom_bond_atom_site_label_1
_geom_bond_atom_site_label_2
_geom_bond_distance
_geom_bond_site_symmetry_2
_ccdc_geom_bond_type
Zn1    O5      1.963   .     S
Zn1    O13     1.915   .     S
Zn1    O14     1.936   .     S
Zn1    O7      1.936   .     S
Zn2    O16     1.943   .     S
Zn2    O5      1.929   .     S
Zn2    O10     1.922   .     S
Zn2    O8      1.953   .     S
Zn3    O9      1.944   .     S
Zn3    O12     1.914   .     S
Zn3    O17     1.946   .     S
Zn3    O5      1.943   .     S
Zn4    O15     1.944   .     S
Zn4    O11     1.924   .     S
Zn4    O6      1.936   .     S
Zn4    O5      1.944   .     S
O6     C18     1.270   .     A
O7     C19     1.278   .     A
O8     C20     1.266   .     A
O9     C21     1.280   .     A
O10    C22     1.271   .     A
O11    C23     1.289   .     A
O12    C22     1.283   .     A
O13    C23     1.295   .     A
O14    C20     1.271   .     A
O15    C21     1.271   .     A
O16    C18     1.259   .     A
O17    C19     1.287   .     A
C18    C43     1.430   .     S
C19    C42     1.466   .     S
C20    C45     1.431   .     S
C21    C44     1.460   .     S
C22    C27     1.457   .     S
C23    C39     1.480   .     S
C24    C38     1.388   .     A
C24    H26     1.082   .     S
C24    C628    1.408   1_554 S
H25    C38     1.084   .     S
C27    C37     1.392   .     A
C27    C38     1.395   .     A
C28    C29     1.393   .     A
C28    H41     1.084   .     S
C28    C39     1.401   .     A
C29    C624    1.408   .     S
C29    N652    1.432   .     S
C30    N55     1.439   .     S
C30    C623    1.408   1_554 S
C30    C625    1.429   1_554 S
C31    C32     1.419   .     A
C31    C624    1.429   .     S
C31    C627    1.423   .     S
C32    C36     1.421   .     A
C32    C39     1.419   .     A
C33    C37     1.413   .     A
C33    C625    1.423   1_554 S
C33    C628    1.423   1_554 S
C34    C35     1.407   .     A
C34    C627    1.423   .     S
C34    C618    1.408   .     S
C35    N52     1.434   .     S
C35    C36     1.407   .     A
C36    N61     1.441   .     S
C37    H40     1.078   .     S
C42    C109    1.359   .     S
C42    N130    1.446   .     S
C43    C174    1.359   1_455 S
C43    C178    1.452   1_455 S
C44    C243    1.355   .     S
C44    C246    1.454   .     S
C45    C440    1.355   1_545 S
C45    C446    1.451   1_545 S
C46    N47     1.158   .     T
C46    C109    1.452   .     S
C48    N49     1.158   .     T
C48    C440    1.454   1_545 S
C50    N51     1.158   .     T
C50    C243    1.451   .     S
N52    O53     1.301   .     A
N52    O54     1.301   .     A
N55    O56     1.301   .     A
N55    O57     1.301   .     A
N58    O60     1.301   .     A
N58    C623    1.432   1_554 S
N58    O653    1.301   1_554 S
O59    N652    1.301   .     S
N61    O62     1.300   .     A
N61    O63     1.302   .     A
N64    O65     1.301   .     A
N64    O66     1.302   .     A
N64    C174    1.446   1_455 S
Zn67   O71     1.963   .     S
Zn67   O79     1.915   .     S
Zn67   O80     1.936   .     S
Zn67   O73     1.936   .     S
Zn68   O82     1.943   .     S
Zn68   O71     1.929   .     S
Zn68   O76     1.922   .     S
Zn68   O74     1.953   .     S
Zn69   O75     1.944   .     S
Zn69   O78     1.914   .     S
Zn69   O83     1.946   .     S
Zn69   O71     1.943   .     S
Zn70   O81     1.944   .     S
Zn70   O77     1.924   .     S
Zn70   O72     1.936   .     S
Zn70   O71     1.944   .     S
O72    C84     1.270   .     A
O73    C85     1.278   .     A
O74    C86     1.266   .     A
O75    C87     1.280   .     A
O76    C88     1.271   .     A
O77    C89     1.289   .     A
O78    C88     1.283   .     A
O79    C89     1.295   .     A
O80    C86     1.271   .     A
O81    C87     1.271   .     A
O82    C84     1.259   .     A
O83    C85     1.287   .     A
C84    C109    1.430   .     S
C85    C108    1.466   .     S
C86    C111    1.431   .     S
C87    C110    1.460   .     S
C88    C93     1.457   .     S
C89    C105    1.480   .     S
C90    C104    1.388   .     A
C90    H92     1.082   .     S
C90    C694    1.408   1_554 S
H91    C104    1.084   .     S
C93    C103    1.392   .     A
C93    C104    1.395   .     A
C94    C95     1.393   .     A
C94    H107    1.084   .     S
C94    C105    1.401   .     A
C95    C690    1.408   .     S
C95    N718    1.432   .     S
C96    N121    1.439   .     S
C96    C689    1.408   1_554 S
C96    C691    1.429   1_554 S
C97    C98     1.419   .     A
C97    C690    1.429   .     S
C97    C693    1.423   .     S
C98    C102    1.421   .     A
C98    C105    1.419   .     A
C99    C103    1.413   .     A
C99    C691    1.423   1_554 S
C99    C694    1.423   1_554 S
C100   C101    1.407   .     A
C100   C693    1.423   .     S
C100   C684    1.408   .     S
C101   N118    1.434   .     S
C101   C102    1.407   .     A
C102   N127    1.441   .     S
C103   H106    1.078   .     S
C108   C175    1.359   .     S
C108   N196    1.446   .     S
C110   C309    1.355   .     S
C110   C312    1.454   .     S
C111   C506    1.355   1_545 S
C111   C512    1.451   1_545 S
C112   N113    1.158   .     T
C112   C175    1.452   .     S
C114   N115    1.158   .     T
C114   C506    1.454   1_545 S
C116   N117    1.158   .     T
C116   C309    1.451   .     S
N118   O119    1.301   .     A
N118   O120    1.301   .     A
N121   O122    1.301   .     A
N121   O123    1.301   .     A
N124   O126    1.301   .     A
N124   C689    1.432   1_554 S
N124   O719    1.301   1_554 S
O125   N718    1.301   .     S
N127   O128    1.300   .     A
N127   O129    1.302   .     A
N130   O131    1.301   .     A
N130   O132    1.302   .     A
Zn133  O137    1.963   .     S
Zn133  O145    1.915   .     S
Zn133  O146    1.936   .     S
Zn133  O139    1.936   .     S
Zn134  O148    1.943   .     S
Zn134  O137    1.929   .     S
Zn134  O142    1.922   .     S
Zn134  O140    1.953   .     S
Zn135  O141    1.944   .     S
Zn135  O144    1.914   .     S
Zn135  O149    1.946   .     S
Zn135  O137    1.943   .     S
Zn136  O147    1.944   .     S
Zn136  O143    1.924   .     S
Zn136  O138    1.936   .     S
Zn136  O137    1.944   .     S
O138   C150    1.270   .     A
O139   C151    1.278   .     A
O140   C152    1.266   .     A
O141   C153    1.280   .     A
O142   C154    1.271   .     A
O143   C155    1.289   .     A
O144   C154    1.283   .     A
O145   C155    1.295   .     A
O146   C152    1.271   .     A
O147   C153    1.271   .     A
O148   C150    1.259   .     A
O149   C151    1.287   .     A
C150   C175    1.430   .     S
C151   C174    1.466   .     S
C152   C177    1.431   .     S
C153   C176    1.460   .     S
C154   C159    1.457   .     S
C155   C171    1.480   .     S
C156   C170    1.388   .     A
C156   H158    1.082   .     S
C156   C760    1.408   1_554 S
H157   C170    1.084   .     S
C159   C169    1.392   .     A
C159   C170    1.395   .     A
C160   C161    1.393   .     A
C160   H173    1.084   .     S
C160   C171    1.401   .     A
C161   C756    1.408   .     S
C161   N784    1.432   .     S
C162   N187    1.439   .     S
C162   C755    1.408   1_554 S
C162   C757    1.429   1_554 S
C163   C164    1.419   .     A
C163   C756    1.429   .     S
C163   C759    1.423   .     S
C164   C168    1.421   .     A
C164   C171    1.419   .     A
C165   C169    1.413   .     A
C165   C757    1.423   1_554 S
C165   C760    1.423   1_554 S
C166   C167    1.407   .     A
C166   C759    1.423   .     S
C166   C750    1.408   .     S
C167   N184    1.434   .     S
C167   C168    1.407   .     A
C168   N193    1.441   .     S
C169   H172    1.078   .     S
C174   C43     1.359   1_655 S
C174   N64     1.446   1_655 S
C176   C375    1.355   .     S
C176   C378    1.454   .     S
C177   C572    1.355   1_545 S
C177   C578    1.451   1_545 S
C178   N179    1.158   .     T
C178   C43     1.452   1_655 S
C180   N181    1.158   .     T
C180   C572    1.454   1_545 S
C182   N183    1.158   .     T
C182   C375    1.451   .     S
N184   O185    1.301   .     A
N184   O186    1.301   .     A
N187   O188    1.301   .     A
N187   O189    1.301   .     A
N190   O192    1.301   .     A
N190   C755    1.432   1_554 S
N190   O785    1.301   1_554 S
O191   N784    1.301   .     S
N193   O194    1.300   .     A
N193   O195    1.302   .     A
N196   O197    1.301   .     A
N196   O198    1.302   .     A
Zn199  O203    1.963   .     S
Zn199  O211    1.915   .     S
Zn199  O212    1.936   .     S
Zn199  O205    1.936   .     S
Zn200  O214    1.943   .     S
Zn200  O203    1.929   .     S
Zn200  O208    1.922   .     S
Zn200  O206    1.953   .     S
Zn201  O207    1.944   .     S
Zn201  O210    1.914   .     S
Zn201  O215    1.946   .     S
Zn201  O203    1.943   .     S
Zn202  O213    1.944   .     S
Zn202  O209    1.924   .     S
Zn202  O204    1.936   .     S
Zn202  O203    1.944   .     S
O204   C216    1.270   .     A
O205   C217    1.278   .     A
O206   C218    1.266   .     A
O207   C219    1.280   .     A
O208   C220    1.271   .     A
O209   C221    1.289   .     A
O210   C220    1.283   .     A
O211   C221    1.295   .     A
O212   C218    1.271   .     A
O213   C219    1.271   .     A
O214   C216    1.259   .     A
O215   C217    1.287   .     A
C216   C241    1.430   .     S
C217   C240    1.466   .     S
C218   C243    1.431   .     S
C219   C242    1.460   .     S
C220   C225    1.457   .     S
C221   C237    1.480   .     S
C222   C236    1.388   .     A
C222   H224    1.082   .     S
C222   C826    1.408   1_554 S
H223   C236    1.084   .     S
C225   C235    1.392   .     A
C225   C236    1.395   .     A
C226   C227    1.393   .     A
C226   H239    1.084   .     S
C226   C237    1.401   .     A
C227   C822    1.408   .     S
C227   N850    1.432   .     S
C228   N253    1.439   .     S
C228   C821    1.408   1_554 S
C228   C823    1.429   1_554 S
C229   C230    1.419   .     A
C229   C822    1.429   .     S
C229   C825    1.423   .     S
C230   C234    1.421   .     A
C230   C237    1.419   .     A
C231   C235    1.413   .     A
C231   C823    1.423   1_554 S
C231   C826    1.423   1_554 S
C232   C233    1.407   .     A
C232   C825    1.423   .     S
C232   C816    1.408   .     S
C233   N250    1.434   .     S
C233   C234    1.407   .     A
C234   N259    1.441   .     S
C235   H238    1.078   .     S
C240   C307    1.359   .     S
C240   N328    1.446   .     S
C241   C372    1.359   1_455 S
C241   C376    1.452   1_455 S
C242   C441    1.355   .     S
C242   C444    1.454   .     S
C244   N245    1.158   .     T
C244   C307    1.452   .     S
C246   N247    1.158   .     T
C248   N249    1.158   .     T
C248   C441    1.451   .     S
N250   O251    1.301   .     A
N250   O252    1.301   .     A
N253   O254    1.301   .     A
N253   O255    1.301   .     A
N256   O258    1.301   .     A
N256   C821    1.432   1_554 S
N256   O851    1.301   1_554 S
O257   N850    1.301   .     S
N259   O260    1.300   .     A
N259   O261    1.302   .     A
N262   O263    1.301   .     A
N262   O264    1.302   .     A
N262   C372    1.446   1_455 S
Zn265  O269    1.963   .     S
Zn265  O277    1.915   .     S
Zn265  O278    1.936   .     S
Zn265  O271    1.936   .     S
Zn266  O280    1.943   .     S
Zn266  O269    1.929   .     S
Zn266  O274    1.922   .     S
Zn266  O272    1.953   .     S
Zn267  O273    1.944   .     S
Zn267  O276    1.914   .     S
Zn267  O281    1.946   .     S
Zn267  O269    1.943   .     S
Zn268  O279    1.944   .     S
Zn268  O275    1.924   .     S
Zn268  O270    1.936   .     S
Zn268  O269    1.944   .     S
O270   C282    1.270   .     A
O271   C283    1.278   .     A
O272   C284    1.266   .     A
O273   C285    1.280   .     A
O274   C286    1.271   .     A
O275   C287    1.289   .     A
O276   C286    1.283   .     A
O277   C287    1.295   .     A
O278   C284    1.271   .     A
O279   C285    1.271   .     A
O280   C282    1.259   .     A
O281   C283    1.287   .     A
C282   C307    1.430   .     S
C283   C306    1.466   .     S
C284   C309    1.431   .     S
C285   C308    1.460   .     S
C286   C291    1.457   .     S
C287   C303    1.480   .     S
C288   C302    1.388   .     A
C288   H290    1.082   .     S
C288   C892    1.408   1_554 S
H289   C302    1.084   .     S
C291   C301    1.392   .     A
C291   C302    1.395   .     A
C292   C293    1.393   .     A
C292   H305    1.084   .     S
C292   C303    1.401   .     A
C293   C888    1.408   .     S
C293   N916    1.432   .     S
C294   N319    1.439   .     S
C294   C887    1.408   1_554 S
C294   C889    1.429   1_554 S
C295   C296    1.419   .     A
C295   C888    1.429   .     S
C295   C891    1.423   .     S
C296   C300    1.421   .     A
C296   C303    1.419   .     A
C297   C301    1.413   .     A
C297   C889    1.423   1_554 S
C297   C892    1.423   1_554 S
C298   C299    1.407   .     A
C298   C891    1.423   .     S
C298   C882    1.408   .     S
C299   N316    1.434   .     S
C299   C300    1.407   .     A
C300   N325    1.441   .     S
C301   H304    1.078   .     S
C306   C373    1.359   .     S
C306   N394    1.446   .     S
C308   C507    1.355   .     S
C308   C510    1.454   .     S
C310   N311    1.158   .     T
C310   C373    1.452   .     S
C312   N313    1.158   .     T
C314   N315    1.158   .     T
C314   C507    1.451   .     S
N316   O317    1.301   .     A
N316   O318    1.301   .     A
N319   O320    1.301   .     A
N319   O321    1.301   .     A
N322   O324    1.301   .     A
N322   C887    1.432   1_554 S
N322   O917    1.301   1_554 S
O323   N916    1.301   .     S
N325   O326    1.300   .     A
N325   O327    1.302   .     A
N328   O329    1.301   .     A
N328   O330    1.302   .     A
Zn331  O335    1.963   .     S
Zn331  O343    1.915   .     S
Zn331  O344    1.936   .     S
Zn331  O337    1.936   .     S
Zn332  O346    1.943   .     S
Zn332  O335    1.929   .     S
Zn332  O340    1.922   .     S
Zn332  O338    1.953   .     S
Zn333  O339    1.944   .     S
Zn333  O342    1.914   .     S
Zn333  O347    1.946   .     S
Zn333  O335    1.943   .     S
Zn334  O345    1.944   .     S
Zn334  O341    1.924   .     S
Zn334  O336    1.936   .     S
Zn334  O335    1.944   .     S
O336   C348    1.270   .     A
O337   C349    1.278   .     A
O338   C350    1.266   .     A
O339   C351    1.280   .     A
O340   C352    1.271   .     A
O341   C353    1.289   .     A
O342   C352    1.283   .     A
O343   C353    1.295   .     A
O344   C350    1.271   .     A
O345   C351    1.271   .     A
O346   C348    1.259   .     A
O347   C349    1.287   .     A
C348   C373    1.430   .     S
C349   C372    1.466   .     S
C350   C375    1.431   .     S
C351   C374    1.460   .     S
C352   C357    1.457   .     S
C353   C369    1.480   .     S
C354   C368    1.388   .     A
C354   H356    1.082   .     S
C354   C958    1.408   1_554 S
H355   C368    1.084   .     S
C357   C367    1.392   .     A
C357   C368    1.395   .     A
C358   C359    1.393   .     A
C358   H371    1.084   .     S
C358   C369    1.401   .     A
C359   C954    1.408   .     S
C359   N982    1.432   .     S
C360   N385    1.439   .     S
C360   C953    1.408   1_554 S
C360   C955    1.429   1_554 S
C361   C362    1.419   .     A
C361   C954    1.429   .     S
C361   C957    1.423   .     S
C362   C366    1.421   .     A
C362   C369    1.419   .     A
C363   C367    1.413   .     A
C363   C955    1.423   1_554 S
C363   C958    1.423   1_554 S
C364   C365    1.407   .     A
C364   C957    1.423   .     S
C364   C948    1.408   .     S
C365   N382    1.434   .     S
C365   C366    1.407   .     A
C366   N391    1.441   .     S
C367   H370    1.078   .     S
C372   C241    1.359   1_655 S
C372   N262    1.446   1_655 S
C374   C573    1.355   .     S
C374   C576    1.454   .     S
C376   N377    1.158   .     T
C376   C241    1.452   1_655 S
C378   N379    1.158   .     T
C380   N381    1.158   .     T
C380   C573    1.451   .     S
N382   O383    1.301   .     A
N382   O384    1.301   .     A
N385   O386    1.301   .     A
N385   O387    1.301   .     A
N388   O390    1.301   .     A
N388   C953    1.432   1_554 S
N388   O983    1.301   1_554 S
O389   N982    1.301   .     S
N391   O392    1.300   .     A
N391   O393    1.302   .     A
N394   O395    1.301   .     A
N394   O396    1.302   .     A
Zn397  O401    1.963   .     S
Zn397  O409    1.915   .     S
Zn397  O410    1.936   .     S
Zn397  O403    1.936   .     S
Zn398  O412    1.943   .     S
Zn398  O401    1.929   .     S
Zn398  O406    1.922   .     S
Zn398  O404    1.953   .     S
Zn399  O405    1.944   .     S
Zn399  O408    1.914   .     S
Zn399  O413    1.946   .     S
Zn399  O401    1.943   .     S
Zn400  O411    1.944   .     S
Zn400  O407    1.924   .     S
Zn400  O402    1.936   .     S
Zn400  O401    1.944   .     S
O402   C414    1.270   .     A
O403   C415    1.278   .     A
O404   C416    1.266   .     A
O405   C417    1.280   .     A
O406   C418    1.271   .     A
O407   C419    1.289   .     A
O408   C418    1.283   .     A
O409   C419    1.295   .     A
O410   C416    1.271   .     A
O411   C417    1.271   .     A
O412   C414    1.259   .     A
O413   C415    1.287   .     A
C414   C439    1.430   .     S
C415   C438    1.466   .     S
C416   C441    1.431   .     S
C417   C440    1.460   .     S
C418   C423    1.457   .     S
C419   C435    1.480   .     S
C420   C434    1.388   .     A
C420   H422    1.082   .     S
C420   C1024   1.408   1_554 S
H421   C434    1.084   .     S
C423   C433    1.392   .     A
C423   C434    1.395   .     A
C424   C425    1.393   .     A
C424   H437    1.084   .     S
C424   C435    1.401   .     A
C425   C1020   1.408   .     S
C425   N1048   1.432   .     S
C426   N451    1.439   .     S
C426   C1019   1.408   1_554 S
C426   C1021   1.429   1_554 S
C427   C428    1.419   .     A
C427   C1020   1.429   .     S
C427   C1023   1.423   .     S
C428   C432    1.421   .     A
C428   C435    1.419   .     A
C429   C433    1.413   .     A
C429   C1021   1.423   1_554 S
C429   C1024   1.423   1_554 S
C430   C431    1.407   .     A
C430   C1023   1.423   .     S
C430   C1014   1.408   .     S
C431   N448    1.434   .     S
C431   C432    1.407   .     A
C432   N457    1.441   .     S
C433   H436    1.078   .     S
C438   C505    1.359   .     S
C438   N526    1.446   .     S
C439   C570    1.359   1_455 S
C439   C574    1.452   1_455 S
C440   C45     1.355   1_565 S
C440   C48     1.454   1_565 S
C442   N443    1.158   .     T
C442   C505    1.452   .     S
C444   N445    1.158   .     T
C446   N447    1.158   .     T
C446   C45     1.451   1_565 S
N448   O449    1.301   .     A
N448   O450    1.301   .     A
N451   O452    1.301   .     A
N451   O453    1.301   .     A
N454   O456    1.301   .     A
N454   C1019   1.432   1_554 S
N454   O1049   1.301   1_554 S
O455   N1048   1.301   .     S
N457   O458    1.300   .     A
N457   O459    1.302   .     A
N460   O461    1.301   .     A
N460   O462    1.302   .     A
N460   C570    1.446   1_455 S
Zn463  O467    1.963   .     S
Zn463  O475    1.915   .     S
Zn463  O476    1.936   .     S
Zn463  O469    1.936   .     S
Zn464  O478    1.943   .     S
Zn464  O467    1.929   .     S
Zn464  O472    1.922   .     S
Zn464  O470    1.953   .     S
Zn465  O471    1.944   .     S
Zn465  O474    1.914   .     S
Zn465  O479    1.946   .     S
Zn465  O467    1.943   .     S
Zn466  O477    1.944   .     S
Zn466  O473    1.924   .     S
Zn466  O468    1.936   .     S
Zn466  O467    1.944   .     S
O468   C480    1.270   .     A
O469   C481    1.278   .     A
O470   C482    1.266   .     A
O471   C483    1.280   .     A
O472   C484    1.271   .     A
O473   C485    1.289   .     A
O474   C484    1.283   .     A
O475   C485    1.295   .     A
O476   C482    1.271   .     A
O477   C483    1.271   .     A
O478   C480    1.259   .     A
O479   C481    1.287   .     A
C480   C505    1.430   .     S
C481   C504    1.466   .     S
C482   C507    1.431   .     S
C483   C506    1.460   .     S
C484   C489    1.457   .     S
C485   C501    1.480   .     S
C486   C500    1.388   .     A
C486   H488    1.082   .     S
C486   C1090   1.408   1_554 S
H487   C500    1.084   .     S
C489   C499    1.392   .     A
C489   C500    1.395   .     A
C490   C491    1.393   .     A
C490   H503    1.084   .     S
C490   C501    1.401   .     A
C491   C1086   1.408   .     S
C491   N1114   1.432   .     S
C492   N517    1.439   .     S
C492   C1085   1.408   1_554 S
C492   C1087   1.429   1_554 S
C493   C494    1.419   .     A
C493   C1086   1.429   .     S
C493   C1089   1.423   .     S
C494   C498    1.421   .     A
C494   C501    1.419   .     A
C495   C499    1.413   .     A
C495   C1087   1.423   1_554 S
C495   C1090   1.423   1_554 S
C496   C497    1.407   .     A
C496   C1089   1.423   .     S
C496   C1080   1.408   .     S
C497   N514    1.434   .     S
C497   C498    1.407   .     A
C498   N523    1.441   .     S
C499   H502    1.078   .     S
C504   C571    1.359   .     S
C504   N592    1.446   .     S
C506   C111    1.355   1_565 S
C506   C114    1.454   1_565 S
C508   N509    1.158   .     T
C508   C571    1.452   .     S
C510   N511    1.158   .     T
C512   N513    1.158   .     T
C512   C111    1.451   1_565 S
N514   O515    1.301   .     A
N514   O516    1.301   .     A
N517   O518    1.301   .     A
N517   O519    1.301   .     A
N520   O522    1.301   .     A
N520   C1085   1.432   1_554 S
N520   O1115   1.301   1_554 S
O521   N1114   1.301   .     S
N523   O524    1.300   .     A
N523   O525    1.302   .     A
N526   O527    1.301   .     A
N526   O528    1.302   .     A
Zn529  O533    1.963   .     S
Zn529  O541    1.915   .     S
Zn529  O542    1.936   .     S
Zn529  O535    1.936   .     S
Zn530  O544    1.943   .     S
Zn530  O533    1.929   .     S
Zn530  O538    1.922   .     S
Zn530  O536    1.953   .     S
Zn531  O537    1.944   .     S
Zn531  O540    1.914   .     S
Zn531  O545    1.946   .     S
Zn531  O533    1.943   .     S
Zn532  O543    1.944   .     S
Zn532  O539    1.924   .     S
Zn532  O534    1.936   .     S
Zn532  O533    1.944   .     S
O534   C546    1.270   .     A
O535   C547    1.278   .     A
O536   C548    1.266   .     A
O537   C549    1.280   .     A
O538   C550    1.271   .     A
O539   C551    1.289   .     A
O540   C550    1.283   .     A
O541   C551    1.295   .     A
O542   C548    1.271   .     A
O543   C549    1.271   .     A
O544   C546    1.259   .     A
O545   C547    1.287   .     A
C546   C571    1.430   .     S
C547   C570    1.466   .     S
C548   C573    1.431   .     S
C549   C572    1.460   .     S
C550   C555    1.457   .     S
C551   C567    1.480   .     S
C552   C566    1.388   .     A
C552   H554    1.082   .     S
C552   C1156   1.408   1_554 S
H553   C566    1.084   .     S
C555   C565    1.392   .     A
C555   C566    1.395   .     A
C556   C557    1.393   .     A
C556   H569    1.084   .     S
C556   C567    1.401   .     A
C557   C1152   1.408   .     S
C557   N1180   1.432   .     S
C558   N583    1.439   .     S
C558   C1151   1.408   1_554 S
C558   C1153   1.429   1_554 S
C559   C560    1.419   .     A
C559   C1152   1.429   .     S
C559   C1155   1.423   .     S
C560   C564    1.421   .     A
C560   C567    1.419   .     A
C561   C565    1.413   .     A
C561   C1153   1.423   1_554 S
C561   C1156   1.423   1_554 S
C562   C563    1.407   .     A
C562   C1155   1.423   .     S
C562   C1146   1.408   .     S
C563   N580    1.434   .     S
C563   C564    1.407   .     A
C564   N589    1.441   .     S
C565   H568    1.078   .     S
C570   C439    1.359   1_655 S
C570   N460    1.446   1_655 S
C572   C177    1.355   1_565 S
C572   C180    1.454   1_565 S
C574   N575    1.158   .     T
C574   C439    1.452   1_655 S
C576   N577    1.158   .     T
C578   N579    1.158   .     T
C578   C177    1.451   1_565 S
N580   O581    1.301   .     A
N580   O582    1.301   .     A
N583   O584    1.301   .     A
N583   O585    1.301   .     A
N586   O588    1.301   .     A
N586   C1151   1.432   1_554 S
N586   O1181   1.301   1_554 S
O587   N1180   1.301   .     S
N589   O590    1.300   .     A
N589   O591    1.302   .     A
N592   O593    1.301   .     A
N592   O594    1.302   .     A
Zn595  O599    1.963   .     S
Zn595  O607    1.915   .     S
Zn595  O608    1.936   .     S
Zn595  O601    1.936   .     S
Zn596  O610    1.943   .     S
Zn596  O599    1.929   .     S
Zn596  O604    1.922   .     S
Zn596  O602    1.953   .     S
Zn597  O603    1.944   .     S
Zn597  O606    1.914   .     S
Zn597  O611    1.946   .     S
Zn597  O599    1.943   .     S
Zn598  O609    1.944   .     S
Zn598  O605    1.924   .     S
Zn598  O600    1.936   .     S
Zn598  O599    1.944   .     S
O600   C612    1.270   .     A
O601   C613    1.278   .     A
O602   C614    1.266   .     A
O603   C615    1.280   .     A
O604   C616    1.271   .     A
O605   C617    1.289   .     A
O606   C616    1.283   .     A
O607   C617    1.295   .     A
O608   C614    1.271   .     A
O609   C615    1.271   .     A
O610   C612    1.259   .     A
O611   C613    1.287   .     A
C612   C637    1.430   .     S
C613   C636    1.466   .     S
C614   C639    1.431   .     S
C615   C638    1.460   .     S
C616   C621    1.457   .     S
C617   C633    1.480   .     S
C618   C632    1.388   .     A
C618   H620    1.082   .     S
H619   C632    1.084   .     S
C621   C631    1.392   .     A
C621   C632    1.395   .     A
C622   C623    1.393   .     A
C622   H635    1.084   .     S
C622   C633    1.401   .     A
C623   C30     1.408   1_556 S
C623   N58     1.432   1_556 S
C624   N649    1.439   .     S
C625   C626    1.419   .     A
C625   C30     1.429   1_556 S
C625   C33     1.423   1_556 S
C626   C630    1.421   .     A
C626   C633    1.419   .     A
C627   C631    1.413   .     A
C628   C629    1.407   .     A
C628   C33     1.423   1_556 S
C628   C24     1.408   1_556 S
C629   N646    1.434   .     S
C629   C630    1.407   .     A
C630   N655    1.441   .     S
C631   H634    1.078   .     S
C636   C703    1.359   .     S
C636   N724    1.446   .     S
C637   C768    1.359   1_455 S
C637   C772    1.452   1_455 S
C638   C837    1.355   .     S
C638   C840    1.454   .     S
C639   C1034   1.355   1_545 S
C639   C1040   1.451   1_545 S
C640   N641    1.158   .     T
C640   C703    1.452   .     S
C642   N643    1.158   .     T
C642   C1034   1.454   1_545 S
C644   N645    1.158   .     T
C644   C837    1.451   .     S
N646   O647    1.301   .     A
N646   O648    1.301   .     A
N649   O650    1.301   .     A
N649   O651    1.301   .     A
N652   O654    1.301   .     A
O653   N58     1.301   1_556 S
N655   O656    1.300   .     A
N655   O657    1.302   .     A
N658   O659    1.301   .     A
N658   O660    1.302   .     A
N658   C768    1.446   1_455 S
Zn661  O665    1.963   .     S
Zn661  O673    1.915   .     S
Zn661  O674    1.936   .     S
Zn661  O667    1.936   .     S
Zn662  O676    1.943   .     S
Zn662  O665    1.929   .     S
Zn662  O670    1.922   .     S
Zn662  O668    1.953   .     S
Zn663  O669    1.944   .     S
Zn663  O672    1.914   .     S
Zn663  O677    1.946   .     S
Zn663  O665    1.943   .     S
Zn664  O675    1.944   .     S
Zn664  O671    1.924   .     S
Zn664  O666    1.936   .     S
Zn664  O665    1.944   .     S
O666   C678    1.270   .     A
O667   C679    1.278   .     A
O668   C680    1.266   .     A
O669   C681    1.280   .     A
O670   C682    1.271   .     A
O671   C683    1.289   .     A
O672   C682    1.283   .     A
O673   C683    1.295   .     A
O674   C680    1.271   .     A
O675   C681    1.271   .     A
O676   C678    1.259   .     A
O677   C679    1.287   .     A
C678   C703    1.430   .     S
C679   C702    1.466   .     S
C680   C705    1.431   .     S
C681   C704    1.460   .     S
C682   C687    1.457   .     S
C683   C699    1.480   .     S
C684   C698    1.388   .     A
C684   H686    1.082   .     S
H685   C698    1.084   .     S
C687   C697    1.392   .     A
C687   C698    1.395   .     A
C688   C689    1.393   .     A
C688   H701    1.084   .     S
C688   C699    1.401   .     A
C689   C96     1.408   1_556 S
C689   N124    1.432   1_556 S
C690   N715    1.439   .     S
C691   C692    1.419   .     A
C691   C96     1.429   1_556 S
C691   C99     1.423   1_556 S
C692   C696    1.421   .     A
C692   C699    1.419   .     A
C693   C697    1.413   .     A
C694   C695    1.407   .     A
C694   C99     1.423   1_556 S
C694   C90     1.408   1_556 S
C695   N712    1.434   .     S
C695   C696    1.407   .     A
C696   N721    1.441   .     S
C697   H700    1.078   .     S
C702   C769    1.359   .     S
C702   N790    1.446   .     S
C704   C903    1.355   .     S
C704   C906    1.454   .     S
C705   C1100   1.355   1_545 S
C705   C1106   1.451   1_545 S
C706   N707    1.158   .     T
C706   C769    1.452   .     S
C708   N709    1.158   .     T
C708   C1100   1.454   1_545 S
C710   N711    1.158   .     T
C710   C903    1.451   .     S
N712   O713    1.301   .     A
N712   O714    1.301   .     A
N715   O716    1.301   .     A
N715   O717    1.301   .     A
N718   O720    1.301   .     A
O719   N124    1.301   1_556 S
N721   O722    1.300   .     A
N721   O723    1.302   .     A
N724   O725    1.301   .     A
N724   O726    1.302   .     A
Zn727  O731    1.963   .     S
Zn727  O739    1.915   .     S
Zn727  O740    1.936   .     S
Zn727  O733    1.936   .     S
Zn728  O742    1.943   .     S
Zn728  O731    1.929   .     S
Zn728  O736    1.922   .     S
Zn728  O734    1.953   .     S
Zn729  O735    1.944   .     S
Zn729  O738    1.914   .     S
Zn729  O743    1.946   .     S
Zn729  O731    1.943   .     S
Zn730  O741    1.944   .     S
Zn730  O737    1.924   .     S
Zn730  O732    1.936   .     S
Zn730  O731    1.944   .     S
O732   C744    1.270   .     A
O733   C745    1.278   .     A
O734   C746    1.266   .     A
O735   C747    1.280   .     A
O736   C748    1.271   .     A
O737   C749    1.289   .     A
O738   C748    1.283   .     A
O739   C749    1.295   .     A
O740   C746    1.271   .     A
O741   C747    1.271   .     A
O742   C744    1.259   .     A
O743   C745    1.287   .     A
C744   C769    1.430   .     S
C745   C768    1.466   .     S
C746   C771    1.431   .     S
C747   C770    1.460   .     S
C748   C753    1.457   .     S
C749   C765    1.480   .     S
C750   C764    1.388   .     A
C750   H752    1.082   .     S
H751   C764    1.084   .     S
C753   C763    1.392   .     A
C753   C764    1.395   .     A
C754   C755    1.393   .     A
C754   H767    1.084   .     S
C754   C765    1.401   .     A
C755   C162    1.408   1_556 S
C755   N190    1.432   1_556 S
C756   N781    1.439   .     S
C757   C758    1.419   .     A
C757   C162    1.429   1_556 S
C757   C165    1.423   1_556 S
C758   C762    1.421   .     A
C758   C765    1.419   .     A
C759   C763    1.413   .     A
C760   C761    1.407   .     A
C760   C165    1.423   1_556 S
C760   C156    1.408   1_556 S
C761   N778    1.434   .     S
C761   C762    1.407   .     A
C762   N787    1.441   .     S
C763   H766    1.078   .     S
C768   C637    1.359   1_655 S
C768   N658    1.446   1_655 S
C770   C969    1.355   .     S
C770   C972    1.454   .     S
C771   C1166   1.355   1_545 S
C771   C1172   1.451   1_545 S
C772   N773    1.158   .     T
C772   C637    1.452   1_655 S
C774   N775    1.158   .     T
C774   C1166   1.454   1_545 S
C776   N777    1.158   .     T
C776   C969    1.451   .     S
N778   O779    1.301   .     A
N778   O780    1.301   .     A
N781   O782    1.301   .     A
N781   O783    1.301   .     A
N784   O786    1.301   .     A
O785   N190    1.301   1_556 S
N787   O788    1.300   .     A
N787   O789    1.302   .     A
N790   O791    1.301   .     A
N790   O792    1.302   .     A
Zn793  O797    1.963   .     S
Zn793  O805    1.915   .     S
Zn793  O806    1.936   .     S
Zn793  O799    1.936   .     S
Zn794  O808    1.943   .     S
Zn794  O797    1.929   .     S
Zn794  O802    1.922   .     S
Zn794  O800    1.953   .     S
Zn795  O801    1.944   .     S
Zn795  O804    1.914   .     S
Zn795  O809    1.946   .     S
Zn795  O797    1.943   .     S
Zn796  O807    1.944   .     S
Zn796  O803    1.924   .     S
Zn796  O798    1.936   .     S
Zn796  O797    1.944   .     S
O798   C810    1.270   .     A
O799   C811    1.278   .     A
O800   C812    1.266   .     A
O801   C813    1.280   .     A
O802   C814    1.271   .     A
O803   C815    1.289   .     A
O804   C814    1.283   .     A
O805   C815    1.295   .     A
O806   C812    1.271   .     A
O807   C813    1.271   .     A
O808   C810    1.259   .     A
O809   C811    1.287   .     A
C810   C835    1.430   .     S
C811   C834    1.466   .     S
C812   C837    1.431   .     S
C813   C836    1.460   .     S
C814   C819    1.457   .     S
C815   C831    1.480   .     S
C816   C830    1.388   .     A
C816   H818    1.082   .     S
H817   C830    1.084   .     S
C819   C829    1.392   .     A
C819   C830    1.395   .     A
C820   C821    1.393   .     A
C820   H833    1.084   .     S
C820   C831    1.401   .     A
C821   C228    1.408   1_556 S
C821   N256    1.432   1_556 S
C822   N847    1.439   .     S
C823   C824    1.419   .     A
C823   C228    1.429   1_556 S
C823   C231    1.423   1_556 S
C824   C828    1.421   .     A
C824   C831    1.419   .     A
C825   C829    1.413   .     A
C826   C827    1.407   .     A
C826   C231    1.423   1_556 S
C826   C222    1.408   1_556 S
C827   N844    1.434   .     S
C827   C828    1.407   .     A
C828   N853    1.441   .     S
C829   H832    1.078   .     S
C834   C901    1.359   .     S
C834   N922    1.446   .     S
C835   C966    1.359   1_455 S
C835   C970    1.452   1_455 S
C836   C1035   1.355   .     S
C836   C1038   1.454   .     S
C838   N839    1.158   .     T
C838   C901    1.452   .     S
C840   N841    1.158   .     T
C842   N843    1.158   .     T
C842   C1035   1.451   .     S
N844   O845    1.301   .     A
N844   O846    1.301   .     A
N847   O848    1.301   .     A
N847   O849    1.301   .     A
N850   O852    1.301   .     A
O851   N256    1.301   1_556 S
N853   O854    1.300   .     A
N853   O855    1.302   .     A
N856   O857    1.301   .     A
N856   O858    1.302   .     A
N856   C966    1.446   1_455 S
Zn859  O863    1.963   .     S
Zn859  O871    1.915   .     S
Zn859  O872    1.936   .     S
Zn859  O865    1.936   .     S
Zn860  O874    1.943   .     S
Zn860  O863    1.929   .     S
Zn860  O868    1.922   .     S
Zn860  O866    1.953   .     S
Zn861  O867    1.944   .     S
Zn861  O870    1.914   .     S
Zn861  O875    1.946   .     S
Zn861  O863    1.943   .     S
Zn862  O873    1.944   .     S
Zn862  O869    1.924   .     S
Zn862  O864    1.936   .     S
Zn862  O863    1.944   .     S
O864   C876    1.270   .     A
O865   C877    1.278   .     A
O866   C878    1.266   .     A
O867   C879    1.280   .     A
O868   C880    1.271   .     A
O869   C881    1.289   .     A
O870   C880    1.283   .     A
O871   C881    1.295   .     A
O872   C878    1.271   .     A
O873   C879    1.271   .     A
O874   C876    1.259   .     A
O875   C877    1.287   .     A
C876   C901    1.430   .     S
C877   C900    1.466   .     S
C878   C903    1.431   .     S
C879   C902    1.460   .     S
C880   C885    1.457   .     S
C881   C897    1.480   .     S
C882   C896    1.388   .     A
C882   H884    1.082   .     S
H883   C896    1.084   .     S
C885   C895    1.392   .     A
C885   C896    1.395   .     A
C886   C887    1.393   .     A
C886   H899    1.084   .     S
C886   C897    1.401   .     A
C887   C294    1.408   1_556 S
C887   N322    1.432   1_556 S
C888   N913    1.439   .     S
C889   C890    1.419   .     A
C889   C294    1.429   1_556 S
C889   C297    1.423   1_556 S
C890   C894    1.421   .     A
C890   C897    1.419   .     A
C891   C895    1.413   .     A
C892   C893    1.407   .     A
C892   C297    1.423   1_556 S
C892   C288    1.408   1_556 S
C893   N910    1.434   .     S
C893   C894    1.407   .     A
C894   N919    1.441   .     S
C895   H898    1.078   .     S
C900   C967    1.359   .     S
C900   N988    1.446   .     S
C902   C1101   1.355   .     S
C902   C1104   1.454   .     S
C904   N905    1.158   .     T
C904   C967    1.452   .     S
C906   N907    1.158   .     T
C908   N909    1.158   .     T
C908   C1101   1.451   .     S
N910   O911    1.301   .     A
N910   O912    1.301   .     A
N913   O914    1.301   .     A
N913   O915    1.301   .     A
N916   O918    1.301   .     A
O917   N322    1.301   1_556 S
N919   O920    1.300   .     A
N919   O921    1.302   .     A
N922   O923    1.301   .     A
N922   O924    1.302   .     A
Zn925  O929    1.963   .     S
Zn925  O937    1.915   .     S
Zn925  O938    1.936   .     S
Zn925  O931    1.936   .     S
Zn926  O940    1.943   .     S
Zn926  O929    1.929   .     S
Zn926  O934    1.922   .     S
Zn926  O932    1.953   .     S
Zn927  O933    1.944   .     S
Zn927  O936    1.914   .     S
Zn927  O941    1.946   .     S
Zn927  O929    1.943   .     S
Zn928  O939    1.944   .     S
Zn928  O935    1.924   .     S
Zn928  O930    1.936   .     S
Zn928  O929    1.944   .     S
O930   C942    1.270   .     A
O931   C943    1.278   .     A
O932   C944    1.266   .     A
O933   C945    1.280   .     A
O934   C946    1.271   .     A
O935   C947    1.289   .     A
O936   C946    1.283   .     A
O937   C947    1.295   .     A
O938   C944    1.271   .     A
O939   C945    1.271   .     A
O940   C942    1.259   .     A
O941   C943    1.287   .     A
C942   C967    1.430   .     S
C943   C966    1.466   .     S
C944   C969    1.431   .     S
C945   C968    1.460   .     S
C946   C951    1.457   .     S
C947   C963    1.480   .     S
C948   C962    1.388   .     A
C948   H950    1.082   .     S
H949   C962    1.084   .     S
C951   C961    1.392   .     A
C951   C962    1.395   .     A
C952   C953    1.393   .     A
C952   H965    1.084   .     S
C952   C963    1.401   .     A
C953   C360    1.408   1_556 S
C953   N388    1.432   1_556 S
C954   N979    1.439   .     S
C955   C956    1.419   .     A
C955   C360    1.429   1_556 S
C955   C363    1.423   1_556 S
C956   C960    1.421   .     A
C956   C963    1.419   .     A
C957   C961    1.413   .     A
C958   C959    1.407   .     A
C958   C363    1.423   1_556 S
C958   C354    1.408   1_556 S
C959   N976    1.434   .     S
C959   C960    1.407   .     A
C960   N985    1.441   .     S
C961   H964    1.078   .     S
C966   C835    1.359   1_655 S
C966   N856    1.446   1_655 S
C968   C1167   1.355   .     S
C968   C1170   1.454   .     S
C970   N971    1.158   .     T
C970   C835    1.452   1_655 S
C972   N973    1.158   .     T
C974   N975    1.158   .     T
C974   C1167   1.451   .     S
N976   O977    1.301   .     A
N976   O978    1.301   .     A
N979   O980    1.301   .     A
N979   O981    1.301   .     A
N982   O984    1.301   .     A
O983   N388    1.301   1_556 S
N985   O986    1.300   .     A
N985   O987    1.302   .     A
N988   O989    1.301   .     A
N988   O990    1.302   .     A
Zn991  O995    1.963   .     S
Zn991  O1003   1.915   .     S
Zn991  O1004   1.936   .     S
Zn991  O997    1.936   .     S
Zn992  O1006   1.943   .     S
Zn992  O995    1.929   .     S
Zn992  O1000   1.922   .     S
Zn992  O998    1.953   .     S
Zn993  O999    1.944   .     S
Zn993  O1002   1.914   .     S
Zn993  O1007   1.946   .     S
Zn993  O995    1.943   .     S
Zn994  O1005   1.944   .     S
Zn994  O1001   1.924   .     S
Zn994  O996    1.936   .     S
Zn994  O995    1.944   .     S
O996   C1008   1.270   .     A
O997   C1009   1.278   .     A
O998   C1010   1.266   .     A
O999   C1011   1.280   .     A
O1000  C1012   1.271   .     A
O1001  C1013   1.289   .     A
O1002  C1012   1.283   .     A
O1003  C1013   1.295   .     A
O1004  C1010   1.271   .     A
O1005  C1011   1.271   .     A
O1006  C1008   1.259   .     A
O1007  C1009   1.287   .     A
C1008  C1033   1.430   .     S
C1009  C1032   1.466   .     S
C1010  C1035   1.431   .     S
C1011  C1034   1.460   .     S
C1012  C1017   1.457   .     S
C1013  C1029   1.480   .     S
C1014  C1028   1.388   .     A
C1014  H1016   1.082   .     S
H1015  C1028   1.084   .     S
C1017  C1027   1.392   .     A
C1017  C1028   1.395   .     A
C1018  C1019   1.393   .     A
C1018  H1031   1.084   .     S
C1018  C1029   1.401   .     A
C1019  C426    1.408   1_556 S
C1019  N454    1.432   1_556 S
C1020  N1045   1.439   .     S
C1021  C1022   1.419   .     A
C1021  C426    1.429   1_556 S
C1021  C429    1.423   1_556 S
C1022  C1026   1.421   .     A
C1022  C1029   1.419   .     A
C1023  C1027   1.413   .     A
C1024  C1025   1.407   .     A
C1024  C429    1.423   1_556 S
C1024  C420    1.408   1_556 S
C1025  N1042   1.434   .     S
C1025  C1026   1.407   .     A
C1026  N1051   1.441   .     S
C1027  H1030   1.078   .     S
C1032  C1099   1.359   .     S
C1032  N1120   1.446   .     S
C1033  C1164   1.359   1_455 S
C1033  C1168   1.452   1_455 S
C1034  C639    1.355   1_565 S
C1034  C642    1.454   1_565 S
C1036  N1037   1.158   .     T
C1036  C1099   1.452   .     S
C1038  N1039   1.158   .     T
C1040  N1041   1.158   .     T
C1040  C639    1.451   1_565 S
N1042  O1043   1.301   .     A
N1042  O1044   1.301   .     A
N1045  O1046   1.301   .     A
N1045  O1047   1.301   .     A
N1048  O1050   1.301   .     A
O1049  N454    1.301   1_556 S
N1051  O1052   1.300   .     A
N1051  O1053   1.302   .     A
N1054  O1055   1.301   .     A
N1054  O1056   1.302   .     A
N1054  C1164   1.446   1_455 S
Zn1057 O1061   1.963   .     S
Zn1057 O1069   1.915   .     S
Zn1057 O1070   1.936   .     S
Zn1057 O1063   1.936   .     S
Zn1058 O1072   1.943   .     S
Zn1058 O1061   1.929   .     S
Zn1058 O1066   1.922   .     S
Zn1058 O1064   1.953   .     S
Zn1059 O1065   1.944   .     S
Zn1059 O1068   1.914   .     S
Zn1059 O1073   1.946   .     S
Zn1059 O1061   1.943   .     S
Zn1060 O1071   1.944   .     S
Zn1060 O1067   1.924   .     S
Zn1060 O1062   1.936   .     S
Zn1060 O1061   1.944   .     S
O1062  C1074   1.270   .     A
O1063  C1075   1.278   .     A
O1064  C1076   1.266   .     A
O1065  C1077   1.280   .     A
O1066  C1078   1.271   .     A
O1067  C1079   1.289   .     A
O1068  C1078   1.283   .     A
O1069  C1079   1.295   .     A
O1070  C1076   1.271   .     A
O1071  C1077   1.271   .     A
O1072  C1074   1.259   .     A
O1073  C1075   1.287   .     A
C1074  C1099   1.430   .     S
C1075  C1098   1.466   .     S
C1076  C1101   1.431   .     S
C1077  C1100   1.460   .     S
C1078  C1083   1.457   .     S
C1079  C1095   1.480   .     S
C1080  C1094   1.388   .     A
C1080  H1082   1.082   .     S
H1081  C1094   1.084   .     S
C1083  C1093   1.392   .     A
C1083  C1094   1.395   .     A
C1084  C1085   1.393   .     A
C1084  H1097   1.084   .     S
C1084  C1095   1.401   .     A
C1085  C492    1.408   1_556 S
C1085  N520    1.432   1_556 S
C1086  N1111   1.439   .     S
C1087  C1088   1.419   .     A
C1087  C492    1.429   1_556 S
C1087  C495    1.423   1_556 S
C1088  C1092   1.421   .     A
C1088  C1095   1.419   .     A
C1089  C1093   1.413   .     A
C1090  C1091   1.407   .     A
C1090  C495    1.423   1_556 S
C1090  C486    1.408   1_556 S
C1091  N1108   1.434   .     S
C1091  C1092   1.407   .     A
C1092  N1117   1.441   .     S
C1093  H1096   1.078   .     S
C1098  C1165   1.359   .     S
C1098  N1186   1.446   .     S
C1100  C705    1.355   1_565 S
C1100  C708    1.454   1_565 S
C1102  N1103   1.158   .     T
C1102  C1165   1.452   .     S
C1104  N1105   1.158   .     T
C1106  N1107   1.158   .     T
C1106  C705    1.451   1_565 S
N1108  O1109   1.301   .     A
N1108  O1110   1.301   .     A
N1111  O1112   1.301   .     A
N1111  O1113   1.301   .     A
N1114  O1116   1.301   .     A
O1115  N520    1.301   1_556 S
N1117  O1118   1.300   .     A
N1117  O1119   1.302   .     A
N1120  O1121   1.301   .     A
N1120  O1122   1.302   .     A
Zn1123 O1127   1.963   .     S
Zn1123 O1135   1.915   .     S
Zn1123 O1136   1.936   .     S
Zn1123 O1129   1.936   .     S
Zn1124 O1138   1.943   .     S
Zn1124 O1127   1.929   .     S
Zn1124 O1132   1.922   .     S
Zn1124 O1130   1.953   .     S
Zn1125 O1131   1.944   .     S
Zn1125 O1134   1.914   .     S
Zn1125 O1139   1.946   .     S
Zn1125 O1127   1.943   .     S
Zn1126 O1137   1.944   .     S
Zn1126 O1133   1.924   .     S
Zn1126 O1128   1.936   .     S
Zn1126 O1127   1.944   .     S
O1128  C1140   1.270   .     A
O1129  C1141   1.278   .     A
O1130  C1142   1.266   .     A
O1131  C1143   1.280   .     A
O1132  C1144   1.271   .     A
O1133  C1145   1.289   .     A
O1134  C1144   1.283   .     A
O1135  C1145   1.295   .     A
O1136  C1142   1.271   .     A
O1137  C1143   1.271   .     A
O1138  C1140   1.259   .     A
O1139  C1141   1.287   .     A
C1140  C1165   1.430   .     S
C1141  C1164   1.466   .     S
C1142  C1167   1.431   .     S
C1143  C1166   1.460   .     S
C1144  C1149   1.457   .     S
C1145  C1161   1.480   .     S
C1146  C1160   1.388   .     A
C1146  H1148   1.082   .     S
H1147  C1160   1.084   .     S
C1149  C1159   1.392   .     A
C1149  C1160   1.395   .     A
C1150  C1151   1.393   .     A
C1150  H1163   1.084   .     S
C1150  C1161   1.401   .     A
C1151  C558    1.408   1_556 S
C1151  N586    1.432   1_556 S
C1152  N1177   1.439   .     S
C1153  C1154   1.419   .     A
C1153  C558    1.429   1_556 S
C1153  C561    1.423   1_556 S
C1154  C1158   1.421   .     A
C1154  C1161   1.419   .     A
C1155  C1159   1.413   .     A
C1156  C1157   1.407   .     A
C1156  C561    1.423   1_556 S
C1156  C552    1.408   1_556 S
C1157  N1174   1.434   .     S
C1157  C1158   1.407   .     A
C1158  N1183   1.441   .     S
C1159  H1162   1.078   .     S
C1164  C1033   1.359   1_655 S
C1164  N1054   1.446   1_655 S
C1166  C771    1.355   1_565 S
C1166  C774    1.454   1_565 S
C1168  N1169   1.158   .     T
C1168  C1033   1.452   1_655 S
C1170  N1171   1.158   .     T
C1172  N1173   1.158   .     T
C1172  C771    1.451   1_565 S
N1174  O1175   1.301   .     A
N1174  O1176   1.301   .     A
N1177  O1178   1.301   .     A
N1177  O1179   1.301   .     A
N1180  O1182   1.301   .     A
O1181  N586    1.301   1_556 S
N1183  O1184   1.300   .     A
N1183  O1185   1.302   .     A
N1186  O1187   1.301   .     A
N1186  O1188   1.302   .     A
