data_str_m1_o1_o17_pcu_sym.63
_audit_creation_date              2020-01-03
_audit_creation_method            'Materials Studio'
_symmetry_space_group_name_H-M    'P1'
_symmetry_Int_Tables_number       1
_symmetry_cell_setting            triclinic
loop_
_symmetry_equiv_pos_as_xyz
  x,y,z
_cell_length_a                    36.8764
_cell_length_b                    36.8775
_cell_length_c                    34.2899
_cell_angle_alpha                 89.5110
_cell_angle_beta                  89.5088
_cell_angle_gamma                 89.9805
loop_
_atom_site_label
_atom_site_type_symbol
_atom_site_fract_x
_atom_site_fract_y
_atom_site_fract_z
_atom_site_U_iso_or_equiv
_atom_site_adp_type
_atom_site_occupancy
C1     C     0.00207   0.28323   0.41753   0.00000  Uiso   1.00
C2     C     0.24798   0.46677   0.08247   0.00000  Uiso   1.00
C3     C     0.21658   0.49615   0.54142   0.00000  Uiso   1.00
C4     C     0.00392   0.28341   0.45858   0.00000  Uiso   1.00
C5     C     0.49609   0.21658   0.54142   0.00000  Uiso   1.00
C6     C     0.21655   0.00321   0.45923   0.00000  Uiso   1.00
C7     C     0.28344   0.49673   0.54077   0.00000  Uiso   1.00
C8     C     0.25319   0.46654   0.95923   0.00000  Uiso   1.00
C9     C     0.24678   0.03345   0.04077   0.00000  Uiso   1.00
C10    C     0.03343   0.25384   0.95859   0.00000  Uiso   1.00
C11    C     0.46657   0.24613   0.04141   0.00000  Uiso   1.00
C12    C     0.25384   0.03341   0.95858   0.00000  Uiso   1.00
C13    C     0.46676   0.25130   0.91821   0.00000  Uiso   1.00
C14    C     0.24611   0.46659   0.04142   0.00000  Uiso   1.00
C15    C     0.46655   0.25326   0.95923   0.00000  Uiso   1.00
C16    C     0.03345   0.24674   0.04077   0.00000  Uiso   1.00
C17    C     0.09733   0.34894   0.24990   0.00000  Uiso   1.00
C18    C     0.40267   0.15106   0.75010   0.00000  Uiso   1.00
C19    C     0.15189   0.09810   0.25000   0.00000  Uiso   1.00
C20    C     0.34810   0.40189   0.75000   0.00000  Uiso   1.00
C21    C     0.40105   0.15268   0.25010   0.00000  Uiso   1.00
C22    C     0.09895   0.34732   0.74990   0.00000  Uiso   1.00
C23    C     0.34814   0.40186   0.25000   0.00000  Uiso   1.00
C24    C     0.03324   0.24871   0.08179   0.00000  Uiso   1.00
C25    C     0.15186   0.09814   0.75000   0.00000  Uiso   1.00
C26    C     0.09814   0.15186   0.75000   0.00000  Uiso   1.00
C27    C     0.40186   0.34814   0.25000   0.00000  Uiso   1.00
C28    C     0.15105   0.40268   0.75010   0.00000  Uiso   1.00
C29    C     0.34896   0.09731   0.24990   0.00000  Uiso   1.00
C30    C     0.40190   0.34811   0.75000   0.00000  Uiso   1.00
C31    C     0.09810   0.15189   0.25000   0.00000  Uiso   1.00
C32    C     0.34733   0.09894   0.74990   0.00000  Uiso   1.00
C33    C     0.15267   0.40105   0.25010   0.00000  Uiso   1.00
C34    C     0.00138   0.24999   0.47938   0.00000  Uiso   1.00
C35    C     0.25125   0.46676   0.91821   0.00000  Uiso   1.00
C36    C     0.49862   0.25001   0.52062   0.00000  Uiso   1.00
C37    C     0.24999   0.00136   0.47938   0.00000  Uiso   1.00
C38    C     0.25000   0.49860   0.52062   0.00000  Uiso   1.00
C39    C     0.25136   0.49999   0.97938   0.00000  Uiso   1.00
C40    C     0.24860   0.00000   0.02062   0.00000  Uiso   1.00
C41    C     0.00000   0.25138   0.97938   0.00000  Uiso   1.00
C42    C     0.00000   0.24860   0.02062   0.00000  Uiso   1.00
C43    C     0.24876   0.03324   0.08179   0.00000  Uiso   1.00
C44    C     0.03324   0.25200   0.91753   0.00000  Uiso   1.00
C45    C     0.46676   0.24797   0.08247   0.00000  Uiso   1.00
C46    C     0.00064   0.24999   0.39802   0.00000  Uiso   1.00
C47    C     0.49936   0.25001   0.60198   0.00000  Uiso   1.00
C48    C     0.24999   0.00063   0.39802   0.00000  Uiso   1.00
C49    C     0.49796   0.21677   0.58247   0.00000  Uiso   1.00
C50    C     0.25001   0.49936   0.60198   0.00000  Uiso   1.00
C51    C     0.25064   0.49999   0.89802   0.00000  Uiso   1.00
C52    C     0.24937   0.00001   0.10198   0.00000  Uiso   1.00
C53    C    -0.00000   0.25065   0.89802   0.00000  Uiso   1.00
C54    C     0.00001   0.24935   0.10197   0.00000  Uiso   1.00
C55    C     0.00436   0.18399   0.48107   0.00000  Uiso   1.00
C56    C     0.49563   0.31600   0.51892   0.00000  Uiso   1.00
C57    C     0.31591   0.00557   0.47985   0.00000  Uiso   1.00
C58    C     0.18409   0.49439   0.52016   0.00000  Uiso   1.00
C59    C     0.00575   0.31591   0.47984   0.00000  Uiso   1.00
C60    C     0.21676   0.00124   0.41821   0.00000  Uiso   1.00
C61    C     0.49427   0.18408   0.52016   0.00000  Uiso   1.00
C62    C     0.18402   0.00448   0.48107   0.00000  Uiso   1.00
C63    C     0.31597   0.49546   0.51892   0.00000  Uiso   1.00
C64    C     0.25441   0.43401   0.98108   0.00000  Uiso   1.00
C65    C     0.24552   0.06597   0.01893   0.00000  Uiso   1.00
C66    C     0.06594   0.25557   0.97985   0.00000  Uiso   1.00
C67    C     0.43407   0.24440   0.02015   0.00000  Uiso   1.00
C68    C     0.25560   0.06590   0.97985   0.00000  Uiso   1.00
C69    C     0.24430   0.43410   0.02016   0.00000  Uiso   1.00
C70    C     0.43402   0.25453   0.98107   0.00000  Uiso   1.00
C71    C     0.28324   0.49869   0.58179   0.00000  Uiso   1.00
C72    C     0.06599   0.24546   0.01893   0.00000  Uiso   1.00
C73    C     0.24997  -0.00000   0.35570   0.00000  Uiso   1.00
C74    C     0.25003  -0.00000   0.64430   0.00000  Uiso   1.00
C75    C     0.00000   0.24997   0.35571   0.00000  Uiso   1.00
C76    C     0.00000   0.25003   0.64429   0.00000  Uiso   1.00
C77    C     0.49997   0.25000   0.85570   0.00000  Uiso   1.00
C78    C     0.00003   0.25000   0.14429   0.00000  Uiso   1.00
C79    C     0.25000   0.49997   0.85570   0.00000  Uiso   1.00
C80    C     0.25000   0.00003   0.14430   0.00000  Uiso   1.00
C81    C     0.18000   0.07000   0.25000   0.00000  Uiso   1.00
C82    C     0.00121   0.21675   0.41821   0.00000  Uiso   1.00
C83    C     0.32000   0.43000   0.75000   0.00000  Uiso   1.00
C84    C     0.42974   0.18015   0.25009   0.00000  Uiso   1.00
C85    C     0.07026   0.31985   0.74991   0.00000  Uiso   1.00
C86    C     0.32009   0.42991   0.25000   0.00000  Uiso   1.00
C87    C     0.17991   0.07009   0.75000   0.00000  Uiso   1.00
C88    C     0.06985   0.32026   0.24991   0.00000  Uiso   1.00
C89    C     0.43015   0.17974   0.75010   0.00000  Uiso   1.00
C90    C     0.17974   0.43015   0.75010   0.00000  Uiso   1.00
C91    C     0.32026   0.06985   0.24991   0.00000  Uiso   1.00
C92    C     0.43000   0.32000   0.75000   0.00000  Uiso   1.00
C93    C     0.49877   0.28325   0.58179   0.00000  Uiso   1.00
C94    C     0.07000   0.18000   0.25000   0.00000  Uiso   1.00
C95    C     0.31985   0.07026   0.74990   0.00000  Uiso   1.00
C96    C     0.18015   0.42974   0.25010   0.00000  Uiso   1.00
C97    C     0.07009   0.17991   0.75000   0.00000  Uiso   1.00
C98    C     0.42991   0.32009   0.25000   0.00000  Uiso   1.00
C99    C     0.13685   0.39094   0.21446   0.00000  Uiso   1.00
C100   C     0.36309   0.10912   0.78554   0.00000  Uiso   1.00
C101   C     0.11337   0.14030   0.21433   0.00000  Uiso   1.00
C102   C     0.38668   0.35975   0.78568   0.00000  Uiso   1.00
C103   C     0.36575   0.10841   0.21444   0.00000  Uiso   1.00
C104   C     0.28323   0.00199   0.41753   0.00000  Uiso   1.00
C105   C     0.13429   0.39156   0.78557   0.00000  Uiso   1.00
C106   C     0.39367   0.36682   0.21488   0.00000  Uiso   1.00
C107   C     0.10629   0.13314   0.78511   0.00000  Uiso   1.00
C108   C     0.13313   0.10629   0.78510   0.00000  Uiso   1.00
C109   C     0.36684   0.39369   0.21489   0.00000  Uiso   1.00
C110   C     0.10909   0.36312   0.78554   0.00000  Uiso   1.00
C111   C     0.39094   0.13685   0.21446   0.00000  Uiso   1.00
C112   C     0.35976   0.38669   0.78569   0.00000  Uiso   1.00
C113   C     0.14031   0.11338   0.21433   0.00000  Uiso   1.00
C114   C     0.39152   0.13432   0.78557   0.00000  Uiso   1.00
C115   C     0.21677   0.49801   0.58247   0.00000  Uiso   1.00
C116   C     0.10843   0.36571   0.21443   0.00000  Uiso   1.00
C117   C     0.38691   0.14088   0.71446   0.00000  Uiso   1.00
C118   C     0.11316   0.35906   0.28554   0.00000  Uiso   1.00
C119   C     0.36331   0.39023   0.71432   0.00000  Uiso   1.00
C120   C     0.13662   0.10969   0.28568   0.00000  Uiso   1.00
C121   C     0.11573   0.35843   0.71443   0.00000  Uiso   1.00
C122   C     0.38426   0.14158   0.28556   0.00000  Uiso   1.00
C123   C     0.14372   0.11687   0.71490   0.00000  Uiso   1.00
C124   C     0.35631   0.38315   0.28511   0.00000  Uiso   1.00
C125   C     0.38319   0.35634   0.28512   0.00000  Uiso   1.00
C126   C     0.25199   0.03323   0.91753   0.00000  Uiso   1.00
C127   C     0.11686   0.14371   0.71490   0.00000  Uiso   1.00
C128   C     0.35908   0.11313   0.28554   0.00000  Uiso   1.00
C129   C     0.14091   0.38688   0.71447   0.00000  Uiso   1.00
C130   C     0.10970   0.13662   0.28568   0.00000  Uiso   1.00
C131   C     0.39026   0.36332   0.71432   0.00000  Uiso   1.00
C132   C     0.14160   0.38425   0.28556   0.00000  Uiso   1.00
C133   C     0.35848   0.11567   0.71443   0.00000  Uiso   1.00
C134   C     0.00317   0.21653   0.45923   0.00000  Uiso   1.00
C135   C     0.49682   0.28347   0.54077   0.00000  Uiso   1.00
C136   C     0.28342   0.00383   0.45858   0.00000  Uiso   1.00
I137   I     0.03749   0.13865   0.46542   0.00000  Uiso   1.00
I138   I     0.21230   0.11122   0.03462   0.00000  Uiso   1.00
I139   I     0.11074   0.28942   0.96349   0.00000  Uiso   1.00
I140   I     0.38929   0.21051   0.03647   0.00000  Uiso   1.00
I141   I     0.28944   0.11070   0.96344   0.00000  Uiso   1.00
I142   I     0.21032   0.38941   0.03655   0.00000  Uiso   1.00
I143   I     0.38878   0.28780   0.96544   0.00000  Uiso   1.00
I144   I     0.11122   0.21220   0.03459   0.00000  Uiso   1.00
I145   I     0.15871   0.41031   0.15953   0.00000  Uiso   1.00
I146   I     0.34112   0.08986   0.84046   0.00000  Uiso   1.00
I147   I     0.09736   0.16494   0.16018   0.00000  Uiso   1.00
I148   I     0.46249   0.36134   0.53454   0.00000  Uiso   1.00
I149   I     0.40275   0.33517   0.83985   0.00000  Uiso   1.00
I150   I     0.35454   0.08249   0.15988   0.00000  Uiso   1.00
I151   I     0.14553   0.41744   0.84014   0.00000  Uiso   1.00
I152   I     0.42010   0.35409   0.16014   0.00000  Uiso   1.00
I153   I     0.07978   0.14577   0.83984   0.00000  Uiso   1.00
I154   I     0.14572   0.07973   0.83982   0.00000  Uiso   1.00
I155   I     0.35427   0.42025   0.16016   0.00000  Uiso   1.00
I156   I     0.08979   0.34120   0.84047   0.00000  Uiso   1.00
I157   I     0.41025   0.15875   0.15953   0.00000  Uiso   1.00
I158   I     0.33524   0.40281   0.83987   0.00000  Uiso   1.00
I159   I     0.36068   0.03946   0.46348   0.00000  Uiso   1.00
I160   I     0.16501   0.09740   0.16019   0.00000  Uiso   1.00
I161   I     0.41733   0.14565   0.84016   0.00000  Uiso   1.00
I162   I     0.08262   0.35438   0.15985   0.00000  Uiso   1.00
I163   I     0.40886   0.16016   0.65954   0.00000  Uiso   1.00
I164   I     0.09128   0.33972   0.34048   0.00000  Uiso   1.00
I165   I     0.34720   0.41476   0.66014   0.00000  Uiso   1.00
I166   I     0.15260   0.08500   0.33982   0.00000  Uiso   1.00
I167   I     0.10454   0.33252   0.65987   0.00000  Uiso   1.00
I168   I     0.39542   0.16752   0.34013   0.00000  Uiso   1.00
I169   I     0.17028   0.10429   0.66019   0.00000  Uiso   1.00
I170   I     0.13930   0.46053   0.53656   0.00000  Uiso   1.00
I171   I     0.32973   0.39571   0.33983   0.00000  Uiso   1.00
I172   I     0.39595   0.32993   0.33986   0.00000  Uiso   1.00
I173   I     0.10422   0.17021   0.66017   0.00000  Uiso   1.00
I174   I     0.33981   0.09118   0.34047   0.00000  Uiso   1.00
I175   I     0.16017   0.40885   0.65954   0.00000  Uiso   1.00
I176   I     0.08505   0.15265   0.33983   0.00000  Uiso   1.00
I177   I     0.41490   0.34730   0.66016   0.00000  Uiso   1.00
I178   I     0.16755   0.39542   0.34012   0.00000  Uiso   1.00
I179   I     0.33268   0.10432   0.65985   0.00000  Uiso   1.00
I180   I     0.49067   0.33122   0.38369   0.00000  Uiso   1.00
I181   I     0.03974   0.36060   0.46347   0.00000  Uiso   1.00
I182   I     0.00946   0.16879   0.61630   0.00000  Uiso   1.00
I183   I     0.16904   0.48836   0.38556   0.00000  Uiso   1.00
I184   I     0.33099   0.01143   0.61445   0.00000  Uiso   1.00
I185   I     0.48835   0.16904   0.38554   0.00000  Uiso   1.00
I186   I     0.01160   0.33097   0.61446   0.00000  Uiso   1.00
I187   I     0.33121   0.49050   0.38367   0.00000  Uiso   1.00
I188   I     0.16881   0.00955   0.61632   0.00000  Uiso   1.00
I189   I     0.24046   0.08119   0.88368   0.00000  Uiso   1.00
I190   I     0.25947   0.41879   0.11629   0.00000  Uiso   1.00
I191   I     0.41901   0.23855   0.88556   0.00000  Uiso   1.00
I192   I     0.46032   0.13937   0.53658   0.00000  Uiso   1.00
I193   I     0.08099   0.26150   0.11443   0.00000  Uiso   1.00
I194   I     0.23847   0.41903   0.88553   0.00000  Uiso   1.00
I195   I     0.26164   0.08097   0.11443   0.00000  Uiso   1.00
I196   I     0.08122   0.24052   0.88367   0.00000  Uiso   1.00
I197   I     0.41878   0.25938   0.11633   0.00000  Uiso   1.00
I198   I     0.13875   0.03767   0.46538   0.00000  Uiso   1.00
I199   I     0.36121   0.46221   0.53456   0.00000  Uiso   1.00
I200   I     0.28758   0.38870   0.96546   0.00000  Uiso   1.00
O201   O     0.25000  -0.00000   0.25000   0.00000  Uiso   1.00
O202   O     0.25000   0.46963   0.66245   0.00000  Uiso   1.00
O203   O     0.46964   0.25000   0.33755   0.00000  Uiso   1.00
O204   O     0.03037   0.25000   0.66245   0.00000  Uiso   1.00
O205   O     0.00000   0.21963   0.83755   0.00000  Uiso   1.00
O206   O     0.00000   0.28036   0.16245   0.00000  Uiso   1.00
O207   O     0.28037  -0.00000   0.83755   0.00000  Uiso   1.00
O208   O     0.21964  -0.00000   0.16245   0.00000  Uiso   1.00
O209   O     0.00000   0.28036   0.83755   0.00000  Uiso   1.00
O210   O     0.00000   0.21963   0.16245   0.00000  Uiso   1.00
O211   O     0.21964  -0.00000   0.83755   0.00000  Uiso   1.00
O212   O     0.25000  -0.00000   0.75000   0.00000  Uiso   1.00
O213   O     0.28037  -0.00000   0.16245   0.00000  Uiso   1.00
O214   O     0.20725   0.07307   0.27302   0.00000  Uiso   1.00
O215   O     0.29276   0.42692   0.72698   0.00000  Uiso   1.00
O216   O     0.42693   0.20724   0.27302   0.00000  Uiso   1.00
O217   O     0.07308   0.29275   0.72698   0.00000  Uiso   1.00
O218   O     0.29276   0.42692   0.27302   0.00000  Uiso   1.00
O219   O     0.20725   0.07307   0.72698   0.00000  Uiso   1.00
O220   O     0.07308   0.29275   0.27302   0.00000  Uiso   1.00
O221   O     0.42693   0.20724   0.72698   0.00000  Uiso   1.00
O222   O     0.20725   0.42692   0.72698   0.00000  Uiso   1.00
O223   O     0.00000   0.25000   0.25000   0.00000  Uiso   1.00
O224   O     0.29276   0.07307   0.27302   0.00000  Uiso   1.00
O225   O     0.42693   0.29275   0.72698   0.00000  Uiso   1.00
O226   O     0.07308   0.20724   0.27302   0.00000  Uiso   1.00
O227   O     0.29276   0.07307   0.72698   0.00000  Uiso   1.00
O228   O     0.20725   0.42692   0.27302   0.00000  Uiso   1.00
O229   O     0.07308   0.20724   0.72698   0.00000  Uiso   1.00
O230   O     0.42693   0.29275   0.27302   0.00000  Uiso   1.00
O231   O     0.45725   0.32307   0.77302   0.00000  Uiso   1.00
O232   O     0.04276   0.17692   0.22698   0.00000  Uiso   1.00
O233   O     0.17693   0.45724   0.77302   0.00000  Uiso   1.00
O234   O     0.00000   0.25000   0.75000   0.00000  Uiso   1.00
O235   O     0.32308   0.04275   0.22698   0.00000  Uiso   1.00
O236   O     0.04276   0.17692   0.77302   0.00000  Uiso   1.00
O237   O     0.45725   0.32307   0.22698   0.00000  Uiso   1.00
O238   O     0.32308   0.04275   0.77302   0.00000  Uiso   1.00
O239   O     0.17693   0.45724   0.22698   0.00000  Uiso   1.00
O240   O     0.45725   0.17692   0.22698   0.00000  Uiso   1.00
O241   O     0.04276   0.32307   0.77302   0.00000  Uiso   1.00
O242   O     0.17693   0.04275   0.22698   0.00000  Uiso   1.00
O243   O     0.32308   0.45724   0.77302   0.00000  Uiso   1.00
O244   O     0.04276   0.32307   0.22698   0.00000  Uiso   1.00
O245   O     0.25000   0.46963   0.33755   0.00000  Uiso   1.00
O246   O     0.45725   0.17692   0.77302   0.00000  Uiso   1.00
O247   O     0.32308   0.45724   0.22698   0.00000  Uiso   1.00
O248   O     0.17693   0.04275   0.77302   0.00000  Uiso   1.00
O249   O     0.25000   0.03036   0.66245   0.00000  Uiso   1.00
O250   O     0.03037   0.25000   0.33755   0.00000  Uiso   1.00
O251   O     0.46964   0.25000   0.66245   0.00000  Uiso   1.00
O252   O     0.25000   0.03036   0.33755   0.00000  Uiso   1.00
Zn253  Zn    0.20660  -0.00000   0.21735   0.00000  Uiso   1.00
Zn254  Zn    0.04341   0.25000   0.28265   0.00000  Uiso   1.00
Zn255  Zn    0.25000   0.45659   0.71735   0.00000  Uiso   1.00
Zn256  Zn    0.25000   0.04340   0.28265   0.00000  Uiso   1.00
Zn257  Zn    0.04341   0.25000   0.71735   0.00000  Uiso   1.00
Zn258  Zn    0.45660   0.25000   0.28265   0.00000  Uiso   1.00
Zn259  Zn    0.25000   0.04340   0.71735   0.00000  Uiso   1.00
Zn260  Zn    0.25000   0.45659   0.28265   0.00000  Uiso   1.00
Zn261  Zn    0.29341  -0.00000   0.78265   0.00000  Uiso   1.00
Zn262  Zn    0.00000   0.20659   0.21735   0.00000  Uiso   1.00
Zn263  Zn    0.00000   0.29340   0.78265   0.00000  Uiso   1.00
Zn264  Zn    0.29341  -0.00000   0.21735   0.00000  Uiso   1.00
Zn265  Zn    0.20660  -0.00000   0.78265   0.00000  Uiso   1.00
Zn266  Zn    0.00000   0.29340   0.21735   0.00000  Uiso   1.00
Zn267  Zn    0.00000   0.20659   0.78265   0.00000  Uiso   1.00
Zn268  Zn    0.45660   0.25000   0.71735   0.00000  Uiso   1.00
C269   C     0.50207   0.28323   0.41753   0.00000  Uiso   1.00
C270   C     0.74798   0.46677   0.08247   0.00000  Uiso   1.00
C271   C     0.71658   0.49615   0.54142   0.00000  Uiso   1.00
C272   C     0.50392   0.28341   0.45858   0.00000  Uiso   1.00
C273   C     0.99609   0.21658   0.54142   0.00000  Uiso   1.00
C274   C     0.71655   0.00321   0.45923   0.00000  Uiso   1.00
C275   C     0.78344   0.49673   0.54077   0.00000  Uiso   1.00
C276   C     0.75319   0.46654   0.95923   0.00000  Uiso   1.00
C277   C     0.74678   0.03345   0.04077   0.00000  Uiso   1.00
C278   C     0.53343   0.25384   0.95859   0.00000  Uiso   1.00
C279   C     0.96657   0.24613   0.04141   0.00000  Uiso   1.00
C280   C     0.75384   0.03341   0.95858   0.00000  Uiso   1.00
C281   C     0.96676   0.25130   0.91821   0.00000  Uiso   1.00
C282   C     0.74611   0.46659   0.04142   0.00000  Uiso   1.00
C283   C     0.96655   0.25326   0.95923   0.00000  Uiso   1.00
C284   C     0.53345   0.24674   0.04077   0.00000  Uiso   1.00
C285   C     0.59733   0.34894   0.24990   0.00000  Uiso   1.00
C286   C     0.90267   0.15106   0.75010   0.00000  Uiso   1.00
C287   C     0.65189   0.09810   0.25000   0.00000  Uiso   1.00
C288   C     0.84810   0.40189   0.75000   0.00000  Uiso   1.00
C289   C     0.90105   0.15268   0.25010   0.00000  Uiso   1.00
C290   C     0.59895   0.34732   0.74990   0.00000  Uiso   1.00
C291   C     0.84814   0.40186   0.25000   0.00000  Uiso   1.00
C292   C     0.53324   0.24871   0.08179   0.00000  Uiso   1.00
C293   C     0.65186   0.09814   0.75000   0.00000  Uiso   1.00
C294   C     0.59814   0.15186   0.75000   0.00000  Uiso   1.00
C295   C     0.90186   0.34814   0.25000   0.00000  Uiso   1.00
C296   C     0.65105   0.40268   0.75010   0.00000  Uiso   1.00
C297   C     0.84896   0.09731   0.24990   0.00000  Uiso   1.00
C298   C     0.90190   0.34811   0.75000   0.00000  Uiso   1.00
C299   C     0.59810   0.15189   0.25000   0.00000  Uiso   1.00
C300   C     0.84733   0.09894   0.74990   0.00000  Uiso   1.00
C301   C     0.65267   0.40105   0.25010   0.00000  Uiso   1.00
C302   C     0.50138   0.24999   0.47938   0.00000  Uiso   1.00
C303   C     0.75125   0.46676   0.91821   0.00000  Uiso   1.00
C304   C     0.99862   0.25001   0.52062   0.00000  Uiso   1.00
C305   C     0.74999   0.00136   0.47938   0.00000  Uiso   1.00
C306   C     0.75000   0.49860   0.52062   0.00000  Uiso   1.00
C307   C     0.75136   0.49999   0.97938   0.00000  Uiso   1.00
C308   C     0.74860   0.00000   0.02062   0.00000  Uiso   1.00
C309   C     0.50000   0.25138   0.97938   0.00000  Uiso   1.00
C310   C     0.50000   0.24860   0.02062   0.00000  Uiso   1.00
C311   C     0.74876   0.03324   0.08179   0.00000  Uiso   1.00
C312   C     0.53324   0.25200   0.91753   0.00000  Uiso   1.00
C313   C     0.96676   0.24797   0.08247   0.00000  Uiso   1.00
C314   C     0.50064   0.24999   0.39802   0.00000  Uiso   1.00
C315   C     0.99936   0.25001   0.60198   0.00000  Uiso   1.00
C316   C     0.74999   0.00063   0.39802   0.00000  Uiso   1.00
C317   C     0.99796   0.21677   0.58247   0.00000  Uiso   1.00
C318   C     0.75001   0.49936   0.60198   0.00000  Uiso   1.00
C319   C     0.75064   0.49999   0.89802   0.00000  Uiso   1.00
C320   C     0.74937   0.00001   0.10198   0.00000  Uiso   1.00
C321   C     0.50000   0.25065   0.89802   0.00000  Uiso   1.00
C322   C     0.50001   0.24935   0.10197   0.00000  Uiso   1.00
C323   C     0.50436   0.18399   0.48107   0.00000  Uiso   1.00
C324   C     0.99563   0.31600   0.51892   0.00000  Uiso   1.00
C325   C     0.81591   0.00557   0.47985   0.00000  Uiso   1.00
C326   C     0.68409   0.49439   0.52016   0.00000  Uiso   1.00
C327   C     0.50575   0.31591   0.47984   0.00000  Uiso   1.00
C328   C     0.71676   0.00124   0.41821   0.00000  Uiso   1.00
C329   C     0.99427   0.18408   0.52016   0.00000  Uiso   1.00
C330   C     0.68402   0.00448   0.48107   0.00000  Uiso   1.00
C331   C     0.81597   0.49546   0.51892   0.00000  Uiso   1.00
C332   C     0.75441   0.43401   0.98108   0.00000  Uiso   1.00
C333   C     0.74552   0.06597   0.01893   0.00000  Uiso   1.00
C334   C     0.56594   0.25557   0.97985   0.00000  Uiso   1.00
C335   C     0.93407   0.24440   0.02015   0.00000  Uiso   1.00
C336   C     0.75560   0.06590   0.97985   0.00000  Uiso   1.00
C337   C     0.74430   0.43410   0.02016   0.00000  Uiso   1.00
C338   C     0.93402   0.25453   0.98107   0.00000  Uiso   1.00
C339   C     0.78324   0.49869   0.58179   0.00000  Uiso   1.00
C340   C     0.56599   0.24546   0.01893   0.00000  Uiso   1.00
C341   C     0.74997  -0.00000   0.35570   0.00000  Uiso   1.00
C342   C     0.75003  -0.00000   0.64430   0.00000  Uiso   1.00
C343   C     0.50000   0.24997   0.35571   0.00000  Uiso   1.00
C344   C     0.50000   0.25003   0.64429   0.00000  Uiso   1.00
C345   C     0.99997   0.25000   0.85570   0.00000  Uiso   1.00
C346   C     0.50003   0.25000   0.14429   0.00000  Uiso   1.00
C347   C     0.75000   0.49997   0.85570   0.00000  Uiso   1.00
C348   C     0.75000   0.00003   0.14430   0.00000  Uiso   1.00
C349   C     0.68000   0.07000   0.25000   0.00000  Uiso   1.00
C350   C     0.50121   0.21675   0.41821   0.00000  Uiso   1.00
C351   C     0.82000   0.43000   0.75000   0.00000  Uiso   1.00
C352   C     0.92974   0.18015   0.25009   0.00000  Uiso   1.00
C353   C     0.57026   0.31985   0.74991   0.00000  Uiso   1.00
C354   C     0.82009   0.42991   0.25000   0.00000  Uiso   1.00
C355   C     0.67991   0.07009   0.75000   0.00000  Uiso   1.00
C356   C     0.56985   0.32026   0.24991   0.00000  Uiso   1.00
C357   C     0.93015   0.17974   0.75010   0.00000  Uiso   1.00
C358   C     0.67974   0.43015   0.75010   0.00000  Uiso   1.00
C359   C     0.82026   0.06985   0.24991   0.00000  Uiso   1.00
C360   C     0.93000   0.32000   0.75000   0.00000  Uiso   1.00
C361   C     0.99877   0.28325   0.58179   0.00000  Uiso   1.00
C362   C     0.57000   0.18000   0.25000   0.00000  Uiso   1.00
C363   C     0.81985   0.07026   0.74990   0.00000  Uiso   1.00
C364   C     0.68015   0.42974   0.25010   0.00000  Uiso   1.00
C365   C     0.57009   0.17991   0.75000   0.00000  Uiso   1.00
C366   C     0.92991   0.32009   0.25000   0.00000  Uiso   1.00
C367   C     0.63685   0.39094   0.21446   0.00000  Uiso   1.00
C368   C     0.86309   0.10912   0.78554   0.00000  Uiso   1.00
C369   C     0.61337   0.14030   0.21433   0.00000  Uiso   1.00
C370   C     0.88668   0.35975   0.78568   0.00000  Uiso   1.00
C371   C     0.86575   0.10841   0.21444   0.00000  Uiso   1.00
C372   C     0.78323   0.00199   0.41753   0.00000  Uiso   1.00
C373   C     0.63429   0.39156   0.78557   0.00000  Uiso   1.00
C374   C     0.89367   0.36682   0.21488   0.00000  Uiso   1.00
C375   C     0.60629   0.13314   0.78511   0.00000  Uiso   1.00
C376   C     0.63313   0.10629   0.78510   0.00000  Uiso   1.00
C377   C     0.86684   0.39369   0.21489   0.00000  Uiso   1.00
C378   C     0.60909   0.36312   0.78554   0.00000  Uiso   1.00
C379   C     0.89094   0.13685   0.21446   0.00000  Uiso   1.00
C380   C     0.85976   0.38669   0.78569   0.00000  Uiso   1.00
C381   C     0.64031   0.11338   0.21433   0.00000  Uiso   1.00
C382   C     0.89152   0.13432   0.78557   0.00000  Uiso   1.00
C383   C     0.71677   0.49801   0.58247   0.00000  Uiso   1.00
C384   C     0.60843   0.36571   0.21443   0.00000  Uiso   1.00
C385   C     0.88691   0.14088   0.71446   0.00000  Uiso   1.00
C386   C     0.61316   0.35906   0.28554   0.00000  Uiso   1.00
C387   C     0.86331   0.39023   0.71432   0.00000  Uiso   1.00
C388   C     0.63662   0.10969   0.28568   0.00000  Uiso   1.00
C389   C     0.61573   0.35843   0.71443   0.00000  Uiso   1.00
C390   C     0.88426   0.14158   0.28556   0.00000  Uiso   1.00
C391   C     0.64372   0.11687   0.71490   0.00000  Uiso   1.00
C392   C     0.85631   0.38315   0.28511   0.00000  Uiso   1.00
C393   C     0.88319   0.35634   0.28512   0.00000  Uiso   1.00
C394   C     0.75199   0.03323   0.91753   0.00000  Uiso   1.00
C395   C     0.61686   0.14371   0.71490   0.00000  Uiso   1.00
C396   C     0.85908   0.11313   0.28554   0.00000  Uiso   1.00
C397   C     0.64091   0.38688   0.71447   0.00000  Uiso   1.00
C398   C     0.60970   0.13662   0.28568   0.00000  Uiso   1.00
C399   C     0.89026   0.36332   0.71432   0.00000  Uiso   1.00
C400   C     0.64160   0.38425   0.28556   0.00000  Uiso   1.00
C401   C     0.85848   0.11567   0.71443   0.00000  Uiso   1.00
C402   C     0.50317   0.21653   0.45923   0.00000  Uiso   1.00
C403   C     0.99682   0.28347   0.54077   0.00000  Uiso   1.00
C404   C     0.78342   0.00383   0.45858   0.00000  Uiso   1.00
I405   I     0.53749   0.13865   0.46542   0.00000  Uiso   1.00
I406   I     0.71230   0.11122   0.03462   0.00000  Uiso   1.00
I407   I     0.61074   0.28942   0.96349   0.00000  Uiso   1.00
I408   I     0.88929   0.21051   0.03647   0.00000  Uiso   1.00
I409   I     0.78944   0.11070   0.96344   0.00000  Uiso   1.00
I410   I     0.71032   0.38941   0.03655   0.00000  Uiso   1.00
I411   I     0.88878   0.28780   0.96544   0.00000  Uiso   1.00
I412   I     0.61122   0.21220   0.03459   0.00000  Uiso   1.00
I413   I     0.65871   0.41031   0.15953   0.00000  Uiso   1.00
I414   I     0.84112   0.08986   0.84046   0.00000  Uiso   1.00
I415   I     0.59736   0.16494   0.16018   0.00000  Uiso   1.00
I416   I     0.96249   0.36134   0.53454   0.00000  Uiso   1.00
I417   I     0.90275   0.33517   0.83985   0.00000  Uiso   1.00
I418   I     0.85454   0.08249   0.15988   0.00000  Uiso   1.00
I419   I     0.64553   0.41744   0.84014   0.00000  Uiso   1.00
I420   I     0.92010   0.35409   0.16014   0.00000  Uiso   1.00
I421   I     0.57978   0.14577   0.83984   0.00000  Uiso   1.00
I422   I     0.64572   0.07973   0.83982   0.00000  Uiso   1.00
I423   I     0.85427   0.42025   0.16016   0.00000  Uiso   1.00
I424   I     0.58979   0.34120   0.84047   0.00000  Uiso   1.00
I425   I     0.91025   0.15875   0.15953   0.00000  Uiso   1.00
I426   I     0.83524   0.40281   0.83987   0.00000  Uiso   1.00
I427   I     0.86068   0.03946   0.46348   0.00000  Uiso   1.00
I428   I     0.66501   0.09740   0.16019   0.00000  Uiso   1.00
I429   I     0.91733   0.14565   0.84016   0.00000  Uiso   1.00
I430   I     0.58262   0.35438   0.15985   0.00000  Uiso   1.00
I431   I     0.90886   0.16016   0.65954   0.00000  Uiso   1.00
I432   I     0.59128   0.33972   0.34048   0.00000  Uiso   1.00
I433   I     0.84720   0.41476   0.66014   0.00000  Uiso   1.00
I434   I     0.65260   0.08500   0.33982   0.00000  Uiso   1.00
I435   I     0.60454   0.33252   0.65987   0.00000  Uiso   1.00
I436   I     0.89542   0.16752   0.34013   0.00000  Uiso   1.00
I437   I     0.67028   0.10429   0.66019   0.00000  Uiso   1.00
I438   I     0.63930   0.46053   0.53656   0.00000  Uiso   1.00
I439   I     0.82973   0.39571   0.33983   0.00000  Uiso   1.00
I440   I     0.89595   0.32993   0.33986   0.00000  Uiso   1.00
I441   I     0.60422   0.17021   0.66017   0.00000  Uiso   1.00
I442   I     0.83981   0.09118   0.34047   0.00000  Uiso   1.00
I443   I     0.66017   0.40885   0.65954   0.00000  Uiso   1.00
I444   I     0.58505   0.15265   0.33983   0.00000  Uiso   1.00
I445   I     0.91490   0.34730   0.66016   0.00000  Uiso   1.00
I446   I     0.66755   0.39542   0.34012   0.00000  Uiso   1.00
I447   I     0.83268   0.10432   0.65985   0.00000  Uiso   1.00
I448   I     0.99067   0.33122   0.38369   0.00000  Uiso   1.00
I449   I     0.53974   0.36060   0.46347   0.00000  Uiso   1.00
I450   I     0.50946   0.16879   0.61630   0.00000  Uiso   1.00
I451   I     0.66904   0.48836   0.38556   0.00000  Uiso   1.00
I452   I     0.83099   0.01143   0.61445   0.00000  Uiso   1.00
I453   I     0.98835   0.16904   0.38554   0.00000  Uiso   1.00
I454   I     0.51160   0.33097   0.61446   0.00000  Uiso   1.00
I455   I     0.83121   0.49050   0.38367   0.00000  Uiso   1.00
I456   I     0.66881   0.00955   0.61632   0.00000  Uiso   1.00
I457   I     0.74046   0.08119   0.88368   0.00000  Uiso   1.00
I458   I     0.75947   0.41879   0.11629   0.00000  Uiso   1.00
I459   I     0.91901   0.23855   0.88556   0.00000  Uiso   1.00
I460   I     0.96032   0.13937   0.53658   0.00000  Uiso   1.00
I461   I     0.58099   0.26150   0.11443   0.00000  Uiso   1.00
I462   I     0.73847   0.41903   0.88553   0.00000  Uiso   1.00
I463   I     0.76164   0.08097   0.11443   0.00000  Uiso   1.00
I464   I     0.58122   0.24052   0.88367   0.00000  Uiso   1.00
I465   I     0.91878   0.25938   0.11633   0.00000  Uiso   1.00
I466   I     0.63875   0.03767   0.46538   0.00000  Uiso   1.00
I467   I     0.86121   0.46221   0.53456   0.00000  Uiso   1.00
I468   I     0.78758   0.38870   0.96546   0.00000  Uiso   1.00
O469   O     0.75000  -0.00000   0.25000   0.00000  Uiso   1.00
O470   O     0.75000   0.46963   0.66245   0.00000  Uiso   1.00
O471   O     0.96964   0.25000   0.33755   0.00000  Uiso   1.00
O472   O     0.53037   0.25000   0.66245   0.00000  Uiso   1.00
O473   O     0.50000   0.21963   0.83755   0.00000  Uiso   1.00
O474   O     0.50000   0.28036   0.16245   0.00000  Uiso   1.00
O475   O     0.78037  -0.00000   0.83755   0.00000  Uiso   1.00
O476   O     0.71964  -0.00000   0.16245   0.00000  Uiso   1.00
O477   O     0.50000   0.28036   0.83755   0.00000  Uiso   1.00
O478   O     0.50000   0.21963   0.16245   0.00000  Uiso   1.00
O479   O     0.71964  -0.00000   0.83755   0.00000  Uiso   1.00
O480   O     0.75000  -0.00000   0.75000   0.00000  Uiso   1.00
O481   O     0.78037  -0.00000   0.16245   0.00000  Uiso   1.00
O482   O     0.70725   0.07307   0.27302   0.00000  Uiso   1.00
O483   O     0.79276   0.42692   0.72698   0.00000  Uiso   1.00
O484   O     0.92693   0.20724   0.27302   0.00000  Uiso   1.00
O485   O     0.57308   0.29275   0.72698   0.00000  Uiso   1.00
O486   O     0.79276   0.42692   0.27302   0.00000  Uiso   1.00
O487   O     0.70725   0.07307   0.72698   0.00000  Uiso   1.00
O488   O     0.57308   0.29275   0.27302   0.00000  Uiso   1.00
O489   O     0.92693   0.20724   0.72698   0.00000  Uiso   1.00
O490   O     0.70725   0.42692   0.72698   0.00000  Uiso   1.00
O491   O     0.50000   0.25000   0.25000   0.00000  Uiso   1.00
O492   O     0.79276   0.07307   0.27302   0.00000  Uiso   1.00
O493   O     0.92693   0.29275   0.72698   0.00000  Uiso   1.00
O494   O     0.57308   0.20724   0.27302   0.00000  Uiso   1.00
O495   O     0.79276   0.07307   0.72698   0.00000  Uiso   1.00
O496   O     0.70725   0.42692   0.27302   0.00000  Uiso   1.00
O497   O     0.57308   0.20724   0.72698   0.00000  Uiso   1.00
O498   O     0.92693   0.29275   0.27302   0.00000  Uiso   1.00
O499   O     0.95725   0.32307   0.77302   0.00000  Uiso   1.00
O500   O     0.54276   0.17692   0.22698   0.00000  Uiso   1.00
O501   O     0.67693   0.45724   0.77302   0.00000  Uiso   1.00
O502   O     0.50000   0.25000   0.75000   0.00000  Uiso   1.00
O503   O     0.82308   0.04275   0.22698   0.00000  Uiso   1.00
O504   O     0.54276   0.17692   0.77302   0.00000  Uiso   1.00
O505   O     0.95725   0.32307   0.22698   0.00000  Uiso   1.00
O506   O     0.82308   0.04275   0.77302   0.00000  Uiso   1.00
O507   O     0.67693   0.45724   0.22698   0.00000  Uiso   1.00
O508   O     0.95725   0.17692   0.22698   0.00000  Uiso   1.00
O509   O     0.54276   0.32307   0.77302   0.00000  Uiso   1.00
O510   O     0.67693   0.04275   0.22698   0.00000  Uiso   1.00
O511   O     0.82308   0.45724   0.77302   0.00000  Uiso   1.00
O512   O     0.54276   0.32307   0.22698   0.00000  Uiso   1.00
O513   O     0.75000   0.46963   0.33755   0.00000  Uiso   1.00
O514   O     0.95725   0.17692   0.77302   0.00000  Uiso   1.00
O515   O     0.82308   0.45724   0.22698   0.00000  Uiso   1.00
O516   O     0.67693   0.04275   0.77302   0.00000  Uiso   1.00
O517   O     0.75000   0.03036   0.66245   0.00000  Uiso   1.00
O518   O     0.53037   0.25000   0.33755   0.00000  Uiso   1.00
O519   O     0.96964   0.25000   0.66245   0.00000  Uiso   1.00
O520   O     0.75000   0.03036   0.33755   0.00000  Uiso   1.00
Zn521  Zn    0.70660  -0.00000   0.21735   0.00000  Uiso   1.00
Zn522  Zn    0.54341   0.25000   0.28265   0.00000  Uiso   1.00
Zn523  Zn    0.75000   0.45659   0.71735   0.00000  Uiso   1.00
Zn524  Zn    0.75000   0.04340   0.28265   0.00000  Uiso   1.00
Zn525  Zn    0.54341   0.25000   0.71735   0.00000  Uiso   1.00
Zn526  Zn    0.95660   0.25000   0.28265   0.00000  Uiso   1.00
Zn527  Zn    0.75000   0.04340   0.71735   0.00000  Uiso   1.00
Zn528  Zn    0.75000   0.45659   0.28265   0.00000  Uiso   1.00
Zn529  Zn    0.79341  -0.00000   0.78265   0.00000  Uiso   1.00
Zn530  Zn    0.50000   0.20659   0.21735   0.00000  Uiso   1.00
Zn531  Zn    0.50000   0.29340   0.78265   0.00000  Uiso   1.00
Zn532  Zn    0.79341  -0.00000   0.21735   0.00000  Uiso   1.00
Zn533  Zn    0.70660  -0.00000   0.78265   0.00000  Uiso   1.00
Zn534  Zn    0.50000   0.29340   0.21735   0.00000  Uiso   1.00
Zn535  Zn    0.50000   0.20659   0.78265   0.00000  Uiso   1.00
Zn536  Zn    0.95660   0.25000   0.71735   0.00000  Uiso   1.00
C537   C     0.00207   0.78323   0.41753   0.00000  Uiso   1.00
C538   C     0.24798   0.96677   0.08247   0.00000  Uiso   1.00
C539   C     0.21658   0.99615   0.54142   0.00000  Uiso   1.00
C540   C     0.00392   0.78341   0.45858   0.00000  Uiso   1.00
C541   C     0.49609   0.71658   0.54142   0.00000  Uiso   1.00
C542   C     0.21655   0.50321   0.45923   0.00000  Uiso   1.00
C543   C     0.28344   0.99673   0.54077   0.00000  Uiso   1.00
C544   C     0.25319   0.96654   0.95923   0.00000  Uiso   1.00
C545   C     0.24678   0.53345   0.04077   0.00000  Uiso   1.00
C546   C     0.03343   0.75384   0.95859   0.00000  Uiso   1.00
C547   C     0.46657   0.74613   0.04141   0.00000  Uiso   1.00
C548   C     0.25384   0.53341   0.95858   0.00000  Uiso   1.00
C549   C     0.46676   0.75130   0.91821   0.00000  Uiso   1.00
C550   C     0.24611   0.96659   0.04142   0.00000  Uiso   1.00
C551   C     0.46655   0.75326   0.95923   0.00000  Uiso   1.00
C552   C     0.03345   0.74674   0.04077   0.00000  Uiso   1.00
C553   C     0.09733   0.84894   0.24990   0.00000  Uiso   1.00
C554   C     0.40267   0.65106   0.75010   0.00000  Uiso   1.00
C555   C     0.15189   0.59810   0.25000   0.00000  Uiso   1.00
C556   C     0.34810   0.90189   0.75000   0.00000  Uiso   1.00
C557   C     0.40105   0.65268   0.25010   0.00000  Uiso   1.00
C558   C     0.09895   0.84732   0.74990   0.00000  Uiso   1.00
C559   C     0.34814   0.90186   0.25000   0.00000  Uiso   1.00
C560   C     0.03324   0.74871   0.08179   0.00000  Uiso   1.00
C561   C     0.15186   0.59814   0.75000   0.00000  Uiso   1.00
C562   C     0.09814   0.65186   0.75000   0.00000  Uiso   1.00
C563   C     0.40186   0.84814   0.25000   0.00000  Uiso   1.00
C564   C     0.15105   0.90268   0.75010   0.00000  Uiso   1.00
C565   C     0.34896   0.59731   0.24990   0.00000  Uiso   1.00
C566   C     0.40190   0.84811   0.75000   0.00000  Uiso   1.00
C567   C     0.09810   0.65189   0.25000   0.00000  Uiso   1.00
C568   C     0.34733   0.59894   0.74990   0.00000  Uiso   1.00
C569   C     0.15267   0.90105   0.25010   0.00000  Uiso   1.00
C570   C     0.00138   0.74999   0.47938   0.00000  Uiso   1.00
C571   C     0.25125   0.96676   0.91821   0.00000  Uiso   1.00
C572   C     0.49862   0.75001   0.52062   0.00000  Uiso   1.00
C573   C     0.24999   0.50136   0.47938   0.00000  Uiso   1.00
C574   C     0.25000   0.99860   0.52062   0.00000  Uiso   1.00
C575   C     0.25136   0.99999   0.97938   0.00000  Uiso   1.00
C576   C     0.24860   0.50000   0.02062   0.00000  Uiso   1.00
C577   C     0.00000   0.75138   0.97938   0.00000  Uiso   1.00
C578   C     0.00000   0.74860   0.02062   0.00000  Uiso   1.00
C579   C     0.24876   0.53324   0.08179   0.00000  Uiso   1.00
C580   C     0.03324   0.75200   0.91753   0.00000  Uiso   1.00
C581   C     0.46676   0.74797   0.08247   0.00000  Uiso   1.00
C582   C     0.00064   0.74999   0.39802   0.00000  Uiso   1.00
C583   C     0.49936   0.75001   0.60198   0.00000  Uiso   1.00
C584   C     0.24999   0.50063   0.39802   0.00000  Uiso   1.00
C585   C     0.49796   0.71677   0.58247   0.00000  Uiso   1.00
C586   C     0.25001   0.99936   0.60198   0.00000  Uiso   1.00
C587   C     0.25064   0.99999   0.89802   0.00000  Uiso   1.00
C588   C     0.24937   0.50001   0.10198   0.00000  Uiso   1.00
C589   C    -0.00000   0.75065   0.89802   0.00000  Uiso   1.00
C590   C     0.00001   0.74935   0.10197   0.00000  Uiso   1.00
C591   C     0.00436   0.68399   0.48107   0.00000  Uiso   1.00
C592   C     0.49563   0.81600   0.51892   0.00000  Uiso   1.00
C593   C     0.31591   0.50557   0.47985   0.00000  Uiso   1.00
C594   C     0.18409   0.99439   0.52016   0.00000  Uiso   1.00
C595   C     0.00575   0.81591   0.47984   0.00000  Uiso   1.00
C596   C     0.21676   0.50124   0.41821   0.00000  Uiso   1.00
C597   C     0.49427   0.68408   0.52016   0.00000  Uiso   1.00
C598   C     0.18402   0.50448   0.48107   0.00000  Uiso   1.00
C599   C     0.31597   0.99546   0.51892   0.00000  Uiso   1.00
C600   C     0.25441   0.93401   0.98108   0.00000  Uiso   1.00
C601   C     0.24552   0.56597   0.01893   0.00000  Uiso   1.00
C602   C     0.06594   0.75557   0.97985   0.00000  Uiso   1.00
C603   C     0.43407   0.74440   0.02015   0.00000  Uiso   1.00
C604   C     0.25560   0.56590   0.97985   0.00000  Uiso   1.00
C605   C     0.24430   0.93410   0.02016   0.00000  Uiso   1.00
C606   C     0.43402   0.75453   0.98107   0.00000  Uiso   1.00
C607   C     0.28324   0.99869   0.58179   0.00000  Uiso   1.00
C608   C     0.06599   0.74546   0.01893   0.00000  Uiso   1.00
C609   C     0.24997   0.50000   0.35570   0.00000  Uiso   1.00
C610   C     0.25003   0.50000   0.64430   0.00000  Uiso   1.00
C611   C     0.00000   0.74997   0.35571   0.00000  Uiso   1.00
C612   C     0.00000   0.75003   0.64429   0.00000  Uiso   1.00
C613   C     0.49997   0.75000   0.85570   0.00000  Uiso   1.00
C614   C     0.00003   0.75000   0.14429   0.00000  Uiso   1.00
C615   C     0.25000   0.99997   0.85570   0.00000  Uiso   1.00
C616   C     0.25000   0.50003   0.14430   0.00000  Uiso   1.00
C617   C     0.18000   0.57000   0.25000   0.00000  Uiso   1.00
C618   C     0.00121   0.71675   0.41821   0.00000  Uiso   1.00
C619   C     0.32000   0.93000   0.75000   0.00000  Uiso   1.00
C620   C     0.42974   0.68015   0.25009   0.00000  Uiso   1.00
C621   C     0.07026   0.81985   0.74991   0.00000  Uiso   1.00
C622   C     0.32009   0.92991   0.25000   0.00000  Uiso   1.00
C623   C     0.17991   0.57009   0.75000   0.00000  Uiso   1.00
C624   C     0.06985   0.82026   0.24991   0.00000  Uiso   1.00
C625   C     0.43015   0.67974   0.75010   0.00000  Uiso   1.00
C626   C     0.17974   0.93015   0.75010   0.00000  Uiso   1.00
C627   C     0.32026   0.56985   0.24991   0.00000  Uiso   1.00
C628   C     0.43000   0.82000   0.75000   0.00000  Uiso   1.00
C629   C     0.49877   0.78325   0.58179   0.00000  Uiso   1.00
C630   C     0.07000   0.68000   0.25000   0.00000  Uiso   1.00
C631   C     0.31985   0.57026   0.74990   0.00000  Uiso   1.00
C632   C     0.18015   0.92974   0.25010   0.00000  Uiso   1.00
C633   C     0.07009   0.67991   0.75000   0.00000  Uiso   1.00
C634   C     0.42991   0.82009   0.25000   0.00000  Uiso   1.00
C635   C     0.13685   0.89094   0.21446   0.00000  Uiso   1.00
C636   C     0.36309   0.60912   0.78554   0.00000  Uiso   1.00
C637   C     0.11337   0.64030   0.21433   0.00000  Uiso   1.00
C638   C     0.38668   0.85975   0.78568   0.00000  Uiso   1.00
C639   C     0.36575   0.60841   0.21444   0.00000  Uiso   1.00
C640   C     0.28323   0.50199   0.41753   0.00000  Uiso   1.00
C641   C     0.13429   0.89156   0.78557   0.00000  Uiso   1.00
C642   C     0.39367   0.86682   0.21488   0.00000  Uiso   1.00
C643   C     0.10629   0.63314   0.78511   0.00000  Uiso   1.00
C644   C     0.13313   0.60629   0.78510   0.00000  Uiso   1.00
C645   C     0.36684   0.89369   0.21489   0.00000  Uiso   1.00
C646   C     0.10909   0.86312   0.78554   0.00000  Uiso   1.00
C647   C     0.39094   0.63685   0.21446   0.00000  Uiso   1.00
C648   C     0.35976   0.88669   0.78569   0.00000  Uiso   1.00
C649   C     0.14031   0.61338   0.21433   0.00000  Uiso   1.00
C650   C     0.39152   0.63432   0.78557   0.00000  Uiso   1.00
C651   C     0.21677   0.99801   0.58247   0.00000  Uiso   1.00
C652   C     0.10843   0.86571   0.21443   0.00000  Uiso   1.00
C653   C     0.38691   0.64088   0.71446   0.00000  Uiso   1.00
C654   C     0.11316   0.85906   0.28554   0.00000  Uiso   1.00
C655   C     0.36331   0.89023   0.71432   0.00000  Uiso   1.00
C656   C     0.13662   0.60969   0.28568   0.00000  Uiso   1.00
C657   C     0.11573   0.85843   0.71443   0.00000  Uiso   1.00
C658   C     0.38426   0.64158   0.28556   0.00000  Uiso   1.00
C659   C     0.14372   0.61687   0.71490   0.00000  Uiso   1.00
C660   C     0.35631   0.88315   0.28511   0.00000  Uiso   1.00
C661   C     0.38319   0.85634   0.28512   0.00000  Uiso   1.00
C662   C     0.25199   0.53323   0.91753   0.00000  Uiso   1.00
C663   C     0.11686   0.64371   0.71490   0.00000  Uiso   1.00
C664   C     0.35908   0.61313   0.28554   0.00000  Uiso   1.00
C665   C     0.14091   0.88688   0.71447   0.00000  Uiso   1.00
C666   C     0.10970   0.63662   0.28568   0.00000  Uiso   1.00
C667   C     0.39026   0.86332   0.71432   0.00000  Uiso   1.00
C668   C     0.14160   0.88425   0.28556   0.00000  Uiso   1.00
C669   C     0.35848   0.61567   0.71443   0.00000  Uiso   1.00
C670   C     0.00317   0.71653   0.45923   0.00000  Uiso   1.00
C671   C     0.49682   0.78347   0.54077   0.00000  Uiso   1.00
C672   C     0.28342   0.50383   0.45858   0.00000  Uiso   1.00
I673   I     0.03749   0.63865   0.46542   0.00000  Uiso   1.00
I674   I     0.21230   0.61122   0.03462   0.00000  Uiso   1.00
I675   I     0.11074   0.78942   0.96349   0.00000  Uiso   1.00
I676   I     0.38929   0.71051   0.03647   0.00000  Uiso   1.00
I677   I     0.28944   0.61070   0.96344   0.00000  Uiso   1.00
I678   I     0.21032   0.88941   0.03655   0.00000  Uiso   1.00
I679   I     0.38878   0.78780   0.96544   0.00000  Uiso   1.00
I680   I     0.11122   0.71220   0.03459   0.00000  Uiso   1.00
I681   I     0.15871   0.91031   0.15953   0.00000  Uiso   1.00
I682   I     0.34112   0.58986   0.84046   0.00000  Uiso   1.00
I683   I     0.09736   0.66494   0.16018   0.00000  Uiso   1.00
I684   I     0.46249   0.86134   0.53454   0.00000  Uiso   1.00
I685   I     0.40275   0.83517   0.83985   0.00000  Uiso   1.00
I686   I     0.35454   0.58249   0.15988   0.00000  Uiso   1.00
I687   I     0.14553   0.91744   0.84014   0.00000  Uiso   1.00
I688   I     0.42010   0.85409   0.16014   0.00000  Uiso   1.00
I689   I     0.07978   0.64577   0.83984   0.00000  Uiso   1.00
I690   I     0.14572   0.57973   0.83982   0.00000  Uiso   1.00
I691   I     0.35427   0.92025   0.16016   0.00000  Uiso   1.00
I692   I     0.08979   0.84120   0.84047   0.00000  Uiso   1.00
I693   I     0.41025   0.65875   0.15953   0.00000  Uiso   1.00
I694   I     0.33524   0.90281   0.83987   0.00000  Uiso   1.00
I695   I     0.36068   0.53946   0.46348   0.00000  Uiso   1.00
I696   I     0.16501   0.59740   0.16019   0.00000  Uiso   1.00
I697   I     0.41733   0.64565   0.84016   0.00000  Uiso   1.00
I698   I     0.08262   0.85438   0.15985   0.00000  Uiso   1.00
I699   I     0.40886   0.66016   0.65954   0.00000  Uiso   1.00
I700   I     0.09128   0.83972   0.34048   0.00000  Uiso   1.00
I701   I     0.34720   0.91476   0.66014   0.00000  Uiso   1.00
I702   I     0.15260   0.58500   0.33982   0.00000  Uiso   1.00
I703   I     0.10454   0.83252   0.65987   0.00000  Uiso   1.00
I704   I     0.39542   0.66752   0.34013   0.00000  Uiso   1.00
I705   I     0.17028   0.60429   0.66019   0.00000  Uiso   1.00
I706   I     0.13930   0.96053   0.53656   0.00000  Uiso   1.00
I707   I     0.32973   0.89571   0.33983   0.00000  Uiso   1.00
I708   I     0.39595   0.82993   0.33986   0.00000  Uiso   1.00
I709   I     0.10422   0.67021   0.66017   0.00000  Uiso   1.00
I710   I     0.33981   0.59118   0.34047   0.00000  Uiso   1.00
I711   I     0.16017   0.90885   0.65954   0.00000  Uiso   1.00
I712   I     0.08505   0.65265   0.33983   0.00000  Uiso   1.00
I713   I     0.41490   0.84730   0.66016   0.00000  Uiso   1.00
I714   I     0.16755   0.89542   0.34012   0.00000  Uiso   1.00
I715   I     0.33268   0.60432   0.65985   0.00000  Uiso   1.00
I716   I     0.49067   0.83122   0.38369   0.00000  Uiso   1.00
I717   I     0.03974   0.86060   0.46347   0.00000  Uiso   1.00
I718   I     0.00946   0.66879   0.61630   0.00000  Uiso   1.00
I719   I     0.16904   0.98836   0.38556   0.00000  Uiso   1.00
I720   I     0.33099   0.51143   0.61445   0.00000  Uiso   1.00
I721   I     0.48835   0.66904   0.38554   0.00000  Uiso   1.00
I722   I     0.01160   0.83097   0.61446   0.00000  Uiso   1.00
I723   I     0.33121   0.99050   0.38367   0.00000  Uiso   1.00
I724   I     0.16881   0.50955   0.61632   0.00000  Uiso   1.00
I725   I     0.24046   0.58119   0.88368   0.00000  Uiso   1.00
I726   I     0.25947   0.91879   0.11629   0.00000  Uiso   1.00
I727   I     0.41901   0.73855   0.88556   0.00000  Uiso   1.00
I728   I     0.46032   0.63937   0.53658   0.00000  Uiso   1.00
I729   I     0.08099   0.76150   0.11443   0.00000  Uiso   1.00
I730   I     0.23847   0.91903   0.88553   0.00000  Uiso   1.00
I731   I     0.26164   0.58097   0.11443   0.00000  Uiso   1.00
I732   I     0.08122   0.74052   0.88367   0.00000  Uiso   1.00
I733   I     0.41878   0.75938   0.11633   0.00000  Uiso   1.00
I734   I     0.13875   0.53767   0.46538   0.00000  Uiso   1.00
I735   I     0.36121   0.96221   0.53456   0.00000  Uiso   1.00
I736   I     0.28758   0.88870   0.96546   0.00000  Uiso   1.00
O737   O     0.25000   0.50000   0.25000   0.00000  Uiso   1.00
O738   O     0.25000   0.96963   0.66245   0.00000  Uiso   1.00
O739   O     0.46964   0.75000   0.33755   0.00000  Uiso   1.00
O740   O     0.03037   0.75000   0.66245   0.00000  Uiso   1.00
O741   O     0.00000   0.71963   0.83755   0.00000  Uiso   1.00
O742   O     0.00000   0.78036   0.16245   0.00000  Uiso   1.00
O743   O     0.28037   0.50000   0.83755   0.00000  Uiso   1.00
O744   O     0.21964   0.50000   0.16245   0.00000  Uiso   1.00
O745   O     0.00000   0.78036   0.83755   0.00000  Uiso   1.00
O746   O     0.00000   0.71963   0.16245   0.00000  Uiso   1.00
O747   O     0.21964   0.50000   0.83755   0.00000  Uiso   1.00
O748   O     0.25000   0.50000   0.75000   0.00000  Uiso   1.00
O749   O     0.28037   0.50000   0.16245   0.00000  Uiso   1.00
O750   O     0.20725   0.57307   0.27302   0.00000  Uiso   1.00
O751   O     0.29276   0.92692   0.72698   0.00000  Uiso   1.00
O752   O     0.42693   0.70724   0.27302   0.00000  Uiso   1.00
O753   O     0.07308   0.79275   0.72698   0.00000  Uiso   1.00
O754   O     0.29276   0.92692   0.27302   0.00000  Uiso   1.00
O755   O     0.20725   0.57307   0.72698   0.00000  Uiso   1.00
O756   O     0.07308   0.79275   0.27302   0.00000  Uiso   1.00
O757   O     0.42693   0.70724   0.72698   0.00000  Uiso   1.00
O758   O     0.20725   0.92692   0.72698   0.00000  Uiso   1.00
O759   O     0.00000   0.75000   0.25000   0.00000  Uiso   1.00
O760   O     0.29276   0.57307   0.27302   0.00000  Uiso   1.00
O761   O     0.42693   0.79275   0.72698   0.00000  Uiso   1.00
O762   O     0.07308   0.70724   0.27302   0.00000  Uiso   1.00
O763   O     0.29276   0.57307   0.72698   0.00000  Uiso   1.00
O764   O     0.20725   0.92692   0.27302   0.00000  Uiso   1.00
O765   O     0.07308   0.70724   0.72698   0.00000  Uiso   1.00
O766   O     0.42693   0.79275   0.27302   0.00000  Uiso   1.00
O767   O     0.45725   0.82307   0.77302   0.00000  Uiso   1.00
O768   O     0.04276   0.67692   0.22698   0.00000  Uiso   1.00
O769   O     0.17693   0.95724   0.77302   0.00000  Uiso   1.00
O770   O     0.00000   0.75000   0.75000   0.00000  Uiso   1.00
O771   O     0.32308   0.54275   0.22698   0.00000  Uiso   1.00
O772   O     0.04276   0.67692   0.77302   0.00000  Uiso   1.00
O773   O     0.45725   0.82307   0.22698   0.00000  Uiso   1.00
O774   O     0.32308   0.54275   0.77302   0.00000  Uiso   1.00
O775   O     0.17693   0.95724   0.22698   0.00000  Uiso   1.00
O776   O     0.45725   0.67692   0.22698   0.00000  Uiso   1.00
O777   O     0.04276   0.82307   0.77302   0.00000  Uiso   1.00
O778   O     0.17693   0.54275   0.22698   0.00000  Uiso   1.00
O779   O     0.32308   0.95724   0.77302   0.00000  Uiso   1.00
O780   O     0.04276   0.82307   0.22698   0.00000  Uiso   1.00
O781   O     0.25000   0.96963   0.33755   0.00000  Uiso   1.00
O782   O     0.45725   0.67692   0.77302   0.00000  Uiso   1.00
O783   O     0.32308   0.95724   0.22698   0.00000  Uiso   1.00
O784   O     0.17693   0.54275   0.77302   0.00000  Uiso   1.00
O785   O     0.25000   0.53036   0.66245   0.00000  Uiso   1.00
O786   O     0.03037   0.75000   0.33755   0.00000  Uiso   1.00
O787   O     0.46964   0.75000   0.66245   0.00000  Uiso   1.00
O788   O     0.25000   0.53036   0.33755   0.00000  Uiso   1.00
Zn789  Zn    0.20660   0.50000   0.21735   0.00000  Uiso   1.00
Zn790  Zn    0.04341   0.75000   0.28265   0.00000  Uiso   1.00
Zn791  Zn    0.25000   0.95659   0.71735   0.00000  Uiso   1.00
Zn792  Zn    0.25000   0.54340   0.28265   0.00000  Uiso   1.00
Zn793  Zn    0.04341   0.75000   0.71735   0.00000  Uiso   1.00
Zn794  Zn    0.45660   0.75000   0.28265   0.00000  Uiso   1.00
Zn795  Zn    0.25000   0.54340   0.71735   0.00000  Uiso   1.00
Zn796  Zn    0.25000   0.95659   0.28265   0.00000  Uiso   1.00
Zn797  Zn    0.29341   0.50000   0.78265   0.00000  Uiso   1.00
Zn798  Zn    0.00000   0.70659   0.21735   0.00000  Uiso   1.00
Zn799  Zn    0.00000   0.79340   0.78265   0.00000  Uiso   1.00
Zn800  Zn    0.29341   0.50000   0.21735   0.00000  Uiso   1.00
Zn801  Zn    0.20660   0.50000   0.78265   0.00000  Uiso   1.00
Zn802  Zn    0.00000   0.79340   0.21735   0.00000  Uiso   1.00
Zn803  Zn    0.00000   0.70659   0.78265   0.00000  Uiso   1.00
Zn804  Zn    0.45660   0.75000   0.71735   0.00000  Uiso   1.00
C805   C     0.50207   0.78323   0.41753   0.00000  Uiso   1.00
C806   C     0.74798   0.96677   0.08247   0.00000  Uiso   1.00
C807   C     0.71658   0.99615   0.54142   0.00000  Uiso   1.00
C808   C     0.50392   0.78341   0.45858   0.00000  Uiso   1.00
C809   C     0.99609   0.71658   0.54142   0.00000  Uiso   1.00
C810   C     0.71655   0.50321   0.45923   0.00000  Uiso   1.00
C811   C     0.78344   0.99673   0.54077   0.00000  Uiso   1.00
C812   C     0.75319   0.96654   0.95923   0.00000  Uiso   1.00
C813   C     0.74678   0.53345   0.04077   0.00000  Uiso   1.00
C814   C     0.53343   0.75384   0.95859   0.00000  Uiso   1.00
C815   C     0.96657   0.74613   0.04141   0.00000  Uiso   1.00
C816   C     0.75384   0.53341   0.95858   0.00000  Uiso   1.00
C817   C     0.96676   0.75130   0.91821   0.00000  Uiso   1.00
C818   C     0.74611   0.96659   0.04142   0.00000  Uiso   1.00
C819   C     0.96655   0.75326   0.95923   0.00000  Uiso   1.00
C820   C     0.53345   0.74674   0.04077   0.00000  Uiso   1.00
C821   C     0.59733   0.84894   0.24990   0.00000  Uiso   1.00
C822   C     0.90267   0.65106   0.75010   0.00000  Uiso   1.00
C823   C     0.65189   0.59810   0.25000   0.00000  Uiso   1.00
C824   C     0.84810   0.90189   0.75000   0.00000  Uiso   1.00
C825   C     0.90105   0.65268   0.25010   0.00000  Uiso   1.00
C826   C     0.59895   0.84732   0.74990   0.00000  Uiso   1.00
C827   C     0.84814   0.90186   0.25000   0.00000  Uiso   1.00
C828   C     0.53324   0.74871   0.08179   0.00000  Uiso   1.00
C829   C     0.65186   0.59814   0.75000   0.00000  Uiso   1.00
C830   C     0.59814   0.65186   0.75000   0.00000  Uiso   1.00
C831   C     0.90186   0.84814   0.25000   0.00000  Uiso   1.00
C832   C     0.65105   0.90268   0.75010   0.00000  Uiso   1.00
C833   C     0.84896   0.59731   0.24990   0.00000  Uiso   1.00
C834   C     0.90190   0.84811   0.75000   0.00000  Uiso   1.00
C835   C     0.59810   0.65189   0.25000   0.00000  Uiso   1.00
C836   C     0.84733   0.59894   0.74990   0.00000  Uiso   1.00
C837   C     0.65267   0.90105   0.25010   0.00000  Uiso   1.00
C838   C     0.50138   0.74999   0.47938   0.00000  Uiso   1.00
C839   C     0.75125   0.96676   0.91821   0.00000  Uiso   1.00
C840   C     0.99862   0.75001   0.52062   0.00000  Uiso   1.00
C841   C     0.74999   0.50136   0.47938   0.00000  Uiso   1.00
C842   C     0.75000   0.99860   0.52062   0.00000  Uiso   1.00
C843   C     0.75136   0.99999   0.97938   0.00000  Uiso   1.00
C844   C     0.74860   0.50000   0.02062   0.00000  Uiso   1.00
C845   C     0.50000   0.75138   0.97938   0.00000  Uiso   1.00
C846   C     0.50000   0.74860   0.02062   0.00000  Uiso   1.00
C847   C     0.74876   0.53324   0.08179   0.00000  Uiso   1.00
C848   C     0.53324   0.75200   0.91753   0.00000  Uiso   1.00
C849   C     0.96676   0.74797   0.08247   0.00000  Uiso   1.00
C850   C     0.50064   0.74999   0.39802   0.00000  Uiso   1.00
C851   C     0.99936   0.75001   0.60198   0.00000  Uiso   1.00
C852   C     0.74999   0.50063   0.39802   0.00000  Uiso   1.00
C853   C     0.99796   0.71677   0.58247   0.00000  Uiso   1.00
C854   C     0.75001   0.99936   0.60198   0.00000  Uiso   1.00
C855   C     0.75064   0.99999   0.89802   0.00000  Uiso   1.00
C856   C     0.74937   0.50001   0.10198   0.00000  Uiso   1.00
C857   C     0.50000   0.75065   0.89802   0.00000  Uiso   1.00
C858   C     0.50001   0.74935   0.10197   0.00000  Uiso   1.00
C859   C     0.50436   0.68399   0.48107   0.00000  Uiso   1.00
C860   C     0.99563   0.81600   0.51892   0.00000  Uiso   1.00
C861   C     0.81591   0.50557   0.47985   0.00000  Uiso   1.00
C862   C     0.68409   0.99439   0.52016   0.00000  Uiso   1.00
C863   C     0.50575   0.81591   0.47984   0.00000  Uiso   1.00
C864   C     0.71676   0.50124   0.41821   0.00000  Uiso   1.00
C865   C     0.99427   0.68408   0.52016   0.00000  Uiso   1.00
C866   C     0.68402   0.50448   0.48107   0.00000  Uiso   1.00
C867   C     0.81597   0.99546   0.51892   0.00000  Uiso   1.00
C868   C     0.75441   0.93401   0.98108   0.00000  Uiso   1.00
C869   C     0.74552   0.56597   0.01893   0.00000  Uiso   1.00
C870   C     0.56594   0.75557   0.97985   0.00000  Uiso   1.00
C871   C     0.93407   0.74440   0.02015   0.00000  Uiso   1.00
C872   C     0.75560   0.56590   0.97985   0.00000  Uiso   1.00
C873   C     0.74430   0.93410   0.02016   0.00000  Uiso   1.00
C874   C     0.93402   0.75453   0.98107   0.00000  Uiso   1.00
C875   C     0.78324   0.99869   0.58179   0.00000  Uiso   1.00
C876   C     0.56599   0.74546   0.01893   0.00000  Uiso   1.00
C877   C     0.74997   0.50000   0.35570   0.00000  Uiso   1.00
C878   C     0.75003   0.50000   0.64430   0.00000  Uiso   1.00
C879   C     0.50000   0.74997   0.35571   0.00000  Uiso   1.00
C880   C     0.50000   0.75003   0.64429   0.00000  Uiso   1.00
C881   C     0.99997   0.75000   0.85570   0.00000  Uiso   1.00
C882   C     0.50003   0.75000   0.14429   0.00000  Uiso   1.00
C883   C     0.75000   0.99997   0.85570   0.00000  Uiso   1.00
C884   C     0.75000   0.50003   0.14430   0.00000  Uiso   1.00
C885   C     0.68000   0.57000   0.25000   0.00000  Uiso   1.00
C886   C     0.50121   0.71675   0.41821   0.00000  Uiso   1.00
C887   C     0.82000   0.93000   0.75000   0.00000  Uiso   1.00
C888   C     0.92974   0.68015   0.25009   0.00000  Uiso   1.00
C889   C     0.57026   0.81985   0.74991   0.00000  Uiso   1.00
C890   C     0.82009   0.92991   0.25000   0.00000  Uiso   1.00
C891   C     0.67991   0.57009   0.75000   0.00000  Uiso   1.00
C892   C     0.56985   0.82026   0.24991   0.00000  Uiso   1.00
C893   C     0.93015   0.67974   0.75010   0.00000  Uiso   1.00
C894   C     0.67974   0.93015   0.75010   0.00000  Uiso   1.00
C895   C     0.82026   0.56985   0.24991   0.00000  Uiso   1.00
C896   C     0.93000   0.82000   0.75000   0.00000  Uiso   1.00
C897   C     0.99877   0.78325   0.58179   0.00000  Uiso   1.00
C898   C     0.57000   0.68000   0.25000   0.00000  Uiso   1.00
C899   C     0.81985   0.57026   0.74990   0.00000  Uiso   1.00
C900   C     0.68015   0.92974   0.25010   0.00000  Uiso   1.00
C901   C     0.57009   0.67991   0.75000   0.00000  Uiso   1.00
C902   C     0.92991   0.82009   0.25000   0.00000  Uiso   1.00
C903   C     0.63685   0.89094   0.21446   0.00000  Uiso   1.00
C904   C     0.86309   0.60912   0.78554   0.00000  Uiso   1.00
C905   C     0.61337   0.64030   0.21433   0.00000  Uiso   1.00
C906   C     0.88668   0.85975   0.78568   0.00000  Uiso   1.00
C907   C     0.86575   0.60841   0.21444   0.00000  Uiso   1.00
C908   C     0.78323   0.50199   0.41753   0.00000  Uiso   1.00
C909   C     0.63429   0.89156   0.78557   0.00000  Uiso   1.00
C910   C     0.89367   0.86682   0.21488   0.00000  Uiso   1.00
C911   C     0.60629   0.63314   0.78511   0.00000  Uiso   1.00
C912   C     0.63313   0.60629   0.78510   0.00000  Uiso   1.00
C913   C     0.86684   0.89369   0.21489   0.00000  Uiso   1.00
C914   C     0.60909   0.86312   0.78554   0.00000  Uiso   1.00
C915   C     0.89094   0.63685   0.21446   0.00000  Uiso   1.00
C916   C     0.85976   0.88669   0.78569   0.00000  Uiso   1.00
C917   C     0.64031   0.61338   0.21433   0.00000  Uiso   1.00
C918   C     0.89152   0.63432   0.78557   0.00000  Uiso   1.00
C919   C     0.71677   0.99801   0.58247   0.00000  Uiso   1.00
C920   C     0.60843   0.86571   0.21443   0.00000  Uiso   1.00
C921   C     0.88691   0.64088   0.71446   0.00000  Uiso   1.00
C922   C     0.61316   0.85906   0.28554   0.00000  Uiso   1.00
C923   C     0.86331   0.89023   0.71432   0.00000  Uiso   1.00
C924   C     0.63662   0.60969   0.28568   0.00000  Uiso   1.00
C925   C     0.61573   0.85843   0.71443   0.00000  Uiso   1.00
C926   C     0.88426   0.64158   0.28556   0.00000  Uiso   1.00
C927   C     0.64372   0.61687   0.71490   0.00000  Uiso   1.00
C928   C     0.85631   0.88315   0.28511   0.00000  Uiso   1.00
C929   C     0.88319   0.85634   0.28512   0.00000  Uiso   1.00
C930   C     0.75199   0.53323   0.91753   0.00000  Uiso   1.00
C931   C     0.61686   0.64371   0.71490   0.00000  Uiso   1.00
C932   C     0.85908   0.61313   0.28554   0.00000  Uiso   1.00
C933   C     0.64091   0.88688   0.71447   0.00000  Uiso   1.00
C934   C     0.60970   0.63662   0.28568   0.00000  Uiso   1.00
C935   C     0.89026   0.86332   0.71432   0.00000  Uiso   1.00
C936   C     0.64160   0.88425   0.28556   0.00000  Uiso   1.00
C937   C     0.85848   0.61567   0.71443   0.00000  Uiso   1.00
C938   C     0.50317   0.71653   0.45923   0.00000  Uiso   1.00
C939   C     0.99682   0.78347   0.54077   0.00000  Uiso   1.00
C940   C     0.78342   0.50383   0.45858   0.00000  Uiso   1.00
I941   I     0.53749   0.63865   0.46542   0.00000  Uiso   1.00
I942   I     0.71230   0.61122   0.03462   0.00000  Uiso   1.00
I943   I     0.61074   0.78942   0.96349   0.00000  Uiso   1.00
I944   I     0.88929   0.71051   0.03647   0.00000  Uiso   1.00
I945   I     0.78944   0.61070   0.96344   0.00000  Uiso   1.00
I946   I     0.71032   0.88941   0.03655   0.00000  Uiso   1.00
I947   I     0.88878   0.78780   0.96544   0.00000  Uiso   1.00
I948   I     0.61122   0.71220   0.03459   0.00000  Uiso   1.00
I949   I     0.65871   0.91031   0.15953   0.00000  Uiso   1.00
I950   I     0.84112   0.58986   0.84046   0.00000  Uiso   1.00
I951   I     0.59736   0.66494   0.16018   0.00000  Uiso   1.00
I952   I     0.96249   0.86134   0.53454   0.00000  Uiso   1.00
I953   I     0.90275   0.83517   0.83985   0.00000  Uiso   1.00
I954   I     0.85454   0.58249   0.15988   0.00000  Uiso   1.00
I955   I     0.64553   0.91744   0.84014   0.00000  Uiso   1.00
I956   I     0.92010   0.85409   0.16014   0.00000  Uiso   1.00
I957   I     0.57978   0.64577   0.83984   0.00000  Uiso   1.00
I958   I     0.64572   0.57973   0.83982   0.00000  Uiso   1.00
I959   I     0.85427   0.92025   0.16016   0.00000  Uiso   1.00
I960   I     0.58979   0.84120   0.84047   0.00000  Uiso   1.00
I961   I     0.91025   0.65875   0.15953   0.00000  Uiso   1.00
I962   I     0.83524   0.90281   0.83987   0.00000  Uiso   1.00
I963   I     0.86068   0.53946   0.46348   0.00000  Uiso   1.00
I964   I     0.66501   0.59740   0.16019   0.00000  Uiso   1.00
I965   I     0.91733   0.64565   0.84016   0.00000  Uiso   1.00
I966   I     0.58262   0.85438   0.15985   0.00000  Uiso   1.00
I967   I     0.90886   0.66016   0.65954   0.00000  Uiso   1.00
I968   I     0.59128   0.83972   0.34048   0.00000  Uiso   1.00
I969   I     0.84720   0.91476   0.66014   0.00000  Uiso   1.00
I970   I     0.65260   0.58500   0.33982   0.00000  Uiso   1.00
I971   I     0.60454   0.83252   0.65987   0.00000  Uiso   1.00
I972   I     0.89542   0.66752   0.34013   0.00000  Uiso   1.00
I973   I     0.67028   0.60429   0.66019   0.00000  Uiso   1.00
I974   I     0.63930   0.96053   0.53656   0.00000  Uiso   1.00
I975   I     0.82973   0.89571   0.33983   0.00000  Uiso   1.00
I976   I     0.89595   0.82993   0.33986   0.00000  Uiso   1.00
I977   I     0.60422   0.67021   0.66017   0.00000  Uiso   1.00
I978   I     0.83981   0.59118   0.34047   0.00000  Uiso   1.00
I979   I     0.66017   0.90885   0.65954   0.00000  Uiso   1.00
I980   I     0.58505   0.65265   0.33983   0.00000  Uiso   1.00
I981   I     0.91490   0.84730   0.66016   0.00000  Uiso   1.00
I982   I     0.66755   0.89542   0.34012   0.00000  Uiso   1.00
I983   I     0.83268   0.60432   0.65985   0.00000  Uiso   1.00
I984   I     0.99067   0.83122   0.38369   0.00000  Uiso   1.00
I985   I     0.53974   0.86060   0.46347   0.00000  Uiso   1.00
I986   I     0.50946   0.66879   0.61630   0.00000  Uiso   1.00
I987   I     0.66904   0.98836   0.38556   0.00000  Uiso   1.00
I988   I     0.83099   0.51143   0.61445   0.00000  Uiso   1.00
I989   I     0.98835   0.66904   0.38554   0.00000  Uiso   1.00
I990   I     0.51160   0.83097   0.61446   0.00000  Uiso   1.00
I991   I     0.83121   0.99050   0.38367   0.00000  Uiso   1.00
I992   I     0.66881   0.50955   0.61632   0.00000  Uiso   1.00
I993   I     0.74046   0.58119   0.88368   0.00000  Uiso   1.00
I994   I     0.75947   0.91879   0.11629   0.00000  Uiso   1.00
I995   I     0.91901   0.73855   0.88556   0.00000  Uiso   1.00
I996   I     0.96032   0.63937   0.53658   0.00000  Uiso   1.00
I997   I     0.58099   0.76150   0.11443   0.00000  Uiso   1.00
I998   I     0.73847   0.91903   0.88553   0.00000  Uiso   1.00
I999   I     0.76164   0.58097   0.11443   0.00000  Uiso   1.00
I1000  I     0.58122   0.74052   0.88367   0.00000  Uiso   1.00
I1001  I     0.91878   0.75938   0.11633   0.00000  Uiso   1.00
I1002  I     0.63875   0.53767   0.46538   0.00000  Uiso   1.00
I1003  I     0.86121   0.96221   0.53456   0.00000  Uiso   1.00
I1004  I     0.78758   0.88870   0.96546   0.00000  Uiso   1.00
O1005  O     0.75000   0.50000   0.25000   0.00000  Uiso   1.00
O1006  O     0.75000   0.96963   0.66245   0.00000  Uiso   1.00
O1007  O     0.96964   0.75000   0.33755   0.00000  Uiso   1.00
O1008  O     0.53037   0.75000   0.66245   0.00000  Uiso   1.00
O1009  O     0.50000   0.71963   0.83755   0.00000  Uiso   1.00
O1010  O     0.50000   0.78036   0.16245   0.00000  Uiso   1.00
O1011  O     0.78037   0.50000   0.83755   0.00000  Uiso   1.00
O1012  O     0.71964   0.50000   0.16245   0.00000  Uiso   1.00
O1013  O     0.50000   0.78036   0.83755   0.00000  Uiso   1.00
O1014  O     0.50000   0.71963   0.16245   0.00000  Uiso   1.00
O1015  O     0.71964   0.50000   0.83755   0.00000  Uiso   1.00
O1016  O     0.75000   0.50000   0.75000   0.00000  Uiso   1.00
O1017  O     0.78037   0.50000   0.16245   0.00000  Uiso   1.00
O1018  O     0.70725   0.57307   0.27302   0.00000  Uiso   1.00
O1019  O     0.79276   0.92692   0.72698   0.00000  Uiso   1.00
O1020  O     0.92693   0.70724   0.27302   0.00000  Uiso   1.00
O1021  O     0.57308   0.79275   0.72698   0.00000  Uiso   1.00
O1022  O     0.79276   0.92692   0.27302   0.00000  Uiso   1.00
O1023  O     0.70725   0.57307   0.72698   0.00000  Uiso   1.00
O1024  O     0.57308   0.79275   0.27302   0.00000  Uiso   1.00
O1025  O     0.92693   0.70724   0.72698   0.00000  Uiso   1.00
O1026  O     0.70725   0.92692   0.72698   0.00000  Uiso   1.00
O1027  O     0.50000   0.75000   0.25000   0.00000  Uiso   1.00
O1028  O     0.79276   0.57307   0.27302   0.00000  Uiso   1.00
O1029  O     0.92693   0.79275   0.72698   0.00000  Uiso   1.00
O1030  O     0.57308   0.70724   0.27302   0.00000  Uiso   1.00
O1031  O     0.79276   0.57307   0.72698   0.00000  Uiso   1.00
O1032  O     0.70725   0.92692   0.27302   0.00000  Uiso   1.00
O1033  O     0.57308   0.70724   0.72698   0.00000  Uiso   1.00
O1034  O     0.92693   0.79275   0.27302   0.00000  Uiso   1.00
O1035  O     0.95725   0.82307   0.77302   0.00000  Uiso   1.00
O1036  O     0.54276   0.67692   0.22698   0.00000  Uiso   1.00
O1037  O     0.67693   0.95724   0.77302   0.00000  Uiso   1.00
O1038  O     0.50000   0.75000   0.75000   0.00000  Uiso   1.00
O1039  O     0.82308   0.54275   0.22698   0.00000  Uiso   1.00
O1040  O     0.54276   0.67692   0.77302   0.00000  Uiso   1.00
O1041  O     0.95725   0.82307   0.22698   0.00000  Uiso   1.00
O1042  O     0.82308   0.54275   0.77302   0.00000  Uiso   1.00
O1043  O     0.67693   0.95724   0.22698   0.00000  Uiso   1.00
O1044  O     0.95725   0.67692   0.22698   0.00000  Uiso   1.00
O1045  O     0.54276   0.82307   0.77302   0.00000  Uiso   1.00
O1046  O     0.67693   0.54275   0.22698   0.00000  Uiso   1.00
O1047  O     0.82308   0.95724   0.77302   0.00000  Uiso   1.00
O1048  O     0.54276   0.82307   0.22698   0.00000  Uiso   1.00
O1049  O     0.75000   0.96963   0.33755   0.00000  Uiso   1.00
O1050  O     0.95725   0.67692   0.77302   0.00000  Uiso   1.00
O1051  O     0.82308   0.95724   0.22698   0.00000  Uiso   1.00
O1052  O     0.67693   0.54275   0.77302   0.00000  Uiso   1.00
O1053  O     0.75000   0.53036   0.66245   0.00000  Uiso   1.00
O1054  O     0.53037   0.75000   0.33755   0.00000  Uiso   1.00
O1055  O     0.96964   0.75000   0.66245   0.00000  Uiso   1.00
O1056  O     0.75000   0.53036   0.33755   0.00000  Uiso   1.00
Zn1057 Zn    0.70660   0.50000   0.21735   0.00000  Uiso   1.00
Zn1058 Zn    0.54341   0.75000   0.28265   0.00000  Uiso   1.00
Zn1059 Zn    0.75000   0.95659   0.71735   0.00000  Uiso   1.00
Zn1060 Zn    0.75000   0.54340   0.28265   0.00000  Uiso   1.00
Zn1061 Zn    0.54341   0.75000   0.71735   0.00000  Uiso   1.00
Zn1062 Zn    0.95660   0.75000   0.28265   0.00000  Uiso   1.00
Zn1063 Zn    0.75000   0.54340   0.71735   0.00000  Uiso   1.00
Zn1064 Zn    0.75000   0.95659   0.28265   0.00000  Uiso   1.00
Zn1065 Zn    0.79341   0.50000   0.78265   0.00000  Uiso   1.00
Zn1066 Zn    0.50000   0.70659   0.21735   0.00000  Uiso   1.00
Zn1067 Zn    0.50000   0.79340   0.78265   0.00000  Uiso   1.00
Zn1068 Zn    0.79341   0.50000   0.21735   0.00000  Uiso   1.00
Zn1069 Zn    0.70660   0.50000   0.78265   0.00000  Uiso   1.00
Zn1070 Zn    0.50000   0.79340   0.21735   0.00000  Uiso   1.00
Zn1071 Zn    0.50000   0.70659   0.78265   0.00000  Uiso   1.00
Zn1072 Zn    0.95660   0.75000   0.71735   0.00000  Uiso   1.00
loop_
_geom_bond_atom_site_label_1
_geom_bond_atom_site_label_2
_geom_bond_distance
_geom_bond_site_symmetry_2
_ccdc_geom_bond_type
C1     C4      1.410   .     A
C1     C46     1.403   .     A
C1     I448    2.152   1_455 S
C2     C14     1.410   .     A
C2     I190    2.152   .     S
C2     C588    1.403   .     S
C3     C38     1.421   .     A
C3     C115    1.410   .     A
C3     C58     1.410   .     A
C4     C59     1.410   .     A
C4     C34     1.421   .     A
C5     C36     1.421   .     A
C5     C49     1.410   .     A
C5     C61     1.410   .     A
C6     C60     1.409   .     A
C6     C37     1.420   .     A
C6     C62     1.410   .     A
C7     C71     1.409   .     A
C7     C63     1.410   .     A
C7     C38     1.420   .     A
C8     C39     1.420   .     A
C8     C64     1.410   .     A
C8     C35     1.409   .     A
C9     C43     1.409   .     A
C9     C40     1.420   .     A
C9     C65     1.409   .     A
C10    C41     1.421   .     A
C10    C66     1.410   .     A
C10    C44     1.410   .     A
C11    C67     1.410   .     A
C11    C45     1.410   .     A
C11    C310    1.421   .     S
C12    C68     1.410   .     A
C12    C126    1.410   .     A
C12    C575    1.421   1_545 S
C13    C321    1.403   .     A
C13    C15     1.409   .     A
C13    I191    2.149   .     S
C14    C69     1.410   .     A
C14    C576    1.421   .     S
C15    C70     1.410   .     A
C15    C309    1.420   .     S
C16    C72     1.410   .     A
C16    C24     1.409   .     A
C16    C42     1.420   .     A
C17    C88     1.465   .     S
C17    C118    1.412   .     A
C17    C116    1.417   .     A
C18    C114    1.417   .     A
C18    C89     1.465   .     S
C18    C117    1.412   .     A
C19    C120    1.412   .     A
C19    C113    1.412   .     A
C19    C81     1.465   .     S
C20    C112    1.412   .     A
C20    C83     1.465   .     S
C20    C119    1.412   .     A
C21    C122    1.417   .     A
C21    C111    1.412   .     A
C21    C84     1.465   .     S
C22    C85     1.465   .     S
C22    C110    1.412   .     A
C22    C121    1.417   .     A
C23    C86     1.463   .     S
C23    C124    1.417   .     A
C23    C109    1.417   .     A
C24    I193    2.149   .     S
C24    C54     1.403   .     A
C25    C108    1.417   .     A
C25    C123    1.417   .     A
C25    C87     1.463   .     S
C26    C107    1.417   .     A
C26    C127    1.417   .     A
C26    C97     1.463   .     S
C27    C98     1.463   .     S
C27    C125    1.417   .     A
C27    C106    1.417   .     A
C28    C105    1.417   .     A
C28    C129    1.412   .     A
C28    C90     1.465   .     S
C29    C128    1.412   .     A
C29    C103    1.417   .     A
C29    C91     1.465   .     S
C30    C131    1.412   .     A
C30    C92     1.465   .     S
C30    C102    1.412   .     A
C31    C101    1.412   .     A
C31    C130    1.412   .     A
C31    C94     1.465   .     S
C32    C133    1.417   .     A
C32    C100    1.412   .     A
C32    C95     1.465   .     S
C33    C99     1.412   .     A
C33    C132    1.417   .     A
C33    C96     1.465   .     S
C34    C134    1.420   .     A
C34    C304    1.417   1_455 S
C35    I194    2.149   .     S
C35    C51     1.403   .     A
C36    C135    1.421   .     A
C36    C302    1.417   .     S
C37    C136    1.421   .     A
C37    C574    1.417   1_545 S
C38    C573    1.417   .     S
C39    C548    1.421   .     S
C39    C576    1.417   1_556 S
C40    C550    1.421   1_545 S
C40    C575    1.417   1_544 S
C41    C283    1.420   1_455 S
C41    C42     1.417   1_556 S
C42    C279    1.421   1_455 S
C42    C41     1.417   1_554 S
C43    I195    2.149   .     S
C43    C52     1.403   .     A
C44    I196    2.152   .     S
C44    C53     1.403   .     S
C45    I197    2.152   .     S
C45    C322    1.403   .     S
C46    C82     1.403   .     A
C46    C75     1.452   .     S
C47    C49     1.403   .     A
C47    C93     1.403   .     A
C47    C344    1.452   .     S
C48    C104    1.403   .     A
C48    C60     1.403   .     A
C48    C73     1.451   .     S
C49    I450    2.152   .     S
C50    C610    1.452   .     S
C50    C115    1.403   .     A
C50    C71     1.402   .     A
C51    C79     1.452   .     S
C51    C662    1.403   .     S
C52    C80     1.451   .     S
C52    C538    1.403   1_545 S
C53    C281    1.403   1_455 A
C53    C345    1.452   1_455 S
C54    C78     1.452   .     S
C54    C313    1.403   1_455 S
C55    I137    2.140   .     S
C55    C134    1.410   .     A
C55    C329    1.388   1_455 S
C56    I148    2.140   .     S
C56    C135    1.410   .     A
C56    C327    1.388   .     S
C57    C136    1.410   .     A
C57    I159    2.139   .     S
C57    C599    1.388   1_545 S
C58    I170    2.139   .     S
C58    C598    1.388   .     S
C59    I181    2.139   .     S
C59    C324    1.388   1_455 S
C60    I719    2.149   1_545 S
C61    I192    2.139   .     S
C61    C323    1.388   .     S
C62    I198    2.140   .     S
C62    C594    1.388   1_545 S
C63    I199    2.140   .     S
C63    C593    1.388   .     S
C64    I200    2.140   .     S
C64    C69     1.388   1_556 S
C65    I138    2.140   .     S
C65    C68     1.388   1_554 S
C66    I139    2.139   .     S
C66    C72     1.388   1_556 S
C67    I140    2.139   .     S
C67    C70     1.388   1_554 S
C68    I141    2.139   .     S
C68    C65     1.388   1_556 S
C69    I142    2.139   .     S
C69    C64     1.388   1_554 S
C70    I143    2.140   .     S
C70    C67     1.388   1_556 S
C71    I720    2.149   .     S
C72    I144    2.140   .     S
C72    C66     1.388   1_554 S
C73    O781    1.286   1_545 A
C73    O252    1.277   .     S
C74    C586    1.452   1_545 S
C74    O738    1.277   1_545 A
C74    O249    1.286   .     S
C75    O471    1.286   1_455 A
C75    O250    1.276   .     S
C76    O204    1.286   .     A
C76    C315    1.452   1_455 S
C76    O519    1.277   1_455 S
C77    C321    1.452   .     S
C77    O473    1.286   .     S
C77    O477    1.276   .     S
C78    O210    1.277   .     A
C78    O206    1.286   .     A
C79    O743    1.277   .     S
C79    O747    1.286   .     S
C80    O208    1.277   .     A
C80    O213    1.286   .     A
C81    O242    1.289   .     A
C81    O214    1.289   .     A
C82    C134    1.409   .     A
C82    I453    2.149   1_455 S
C83    O243    1.289   .     A
C83    O215    1.289   .     A
C84    O240    1.288   .     A
C84    O216    1.280   .     A
C85    O217    1.280   .     A
C85    O241    1.288   .     A
C86    O247    1.279   .     A
C86    O218    1.279   .     A
C87    O248    1.279   .     A
C87    O219    1.279   .     A
C88    O220    1.288   .     A
C88    O244    1.280   .     A
C89    O246    1.280   .     A
C89    O221    1.288   .     A
C90    O222    1.288   .     A
C90    O233    1.280   .     A
C91    O235    1.280   .     A
C91    O224    1.288   .     A
C92    O231    1.289   .     A
C92    O225    1.289   .     A
C93    C135    1.409   .     A
C93    I454    2.149   .     S
C94    O232    1.289   .     A
C94    O226    1.289   .     A
C95    O238    1.288   .     A
C95    O227    1.280   .     A
C96    O228    1.280   .     A
C96    O239    1.288   .     A
C97    O229    1.279   .     A
C97    O236    1.279   .     A
C98    O237    1.279   .     A
C98    O230    1.279   .     A
C99    C116    1.401   .     A
C99    I145    2.159   .     S
C100   I146    2.158   .     S
C100   C114    1.401   .     A
C101   C113    1.404   .     A
C101   I147    2.148   .     S
C102   C112    1.404   .     A
C102   I149    2.148   .     S
C103   C111    1.401   .     A
C103   I150    2.151   .     S
C104   C136    1.410   .     A
C104   I723    2.152   1_545 S
C105   C110    1.401   .     A
C105   I151    2.151   .     S
C106   I152    2.163   .     S
C106   C109    1.400   .     A
C107   C108    1.400   .     A
C107   I153    2.163   .     S
C108   I154    2.163   .     S
C109   I155    2.163   .     S
C110   I156    2.159   .     S
C111   I157    2.159   .     S
C112   I158    2.148   .     S
C113   I160    2.148   .     S
C114   I161    2.151   .     S
C115   I724    2.152   .     S
C116   I162    2.152   .     S
C117   C133    1.401   .     A
C117   I163    2.158   .     S
C118   I164    2.159   .     S
C118   C132    1.401   .     A
C119   C131    1.404   .     A
C119   I165    2.148   .     S
C120   C130    1.404   .     A
C120   I166    2.148   .     S
C121   I167    2.151   .     S
C121   C129    1.401   .     A
C122   C128    1.401   .     A
C122   I168    2.151   .     S
C123   C127    1.400   .     A
C123   I169    2.163   .     S
C124   I171    2.163   .     S
C124   C125    1.400   .     A
C125   I172    2.163   .     S
C126   I189    2.152   .     S
C126   C587    1.403   1_545 S
C127   I173    2.163   .     S
C128   I174    2.158   .     S
C129   I175    2.159   .     S
C130   I176    2.148   .     S
C131   I177    2.148   .     S
C132   I178    2.152   .     S
C133   I179    2.151   .     S
I180   C269    2.152   .     S
I182   C317    2.152   1_455 S
I183   C596    2.149   .     S
I184   C607    2.149   1_545 S
I185   C350    2.149   .     S
I186   C361    2.149   1_455 S
I187   C640    2.152   .     S
I188   C651    2.152   1_545 S
O201   Zn264   1.945   .     S
O201   Zn256   1.961   .     S
O201   Zn253   1.961   .     S
O201   Zn796   1.946   1_545 S
O202   Zn255   1.939   .     S
O202   C610    1.277   .     A
O203   Zn258   1.947   .     S
O203   C343    1.286   .     A
O204   Zn257   1.947   .     S
O205   Zn267   1.947   .     S
O205   C345    1.286   1_455 S
O206   Zn266   1.947   .     S
O207   Zn261   1.939   .     S
O207   C615    1.277   1_545 S
O208   Zn253   1.939   .     S
O209   Zn263   1.939   .     S
O209   C345    1.276   1_455 S
O210   Zn262   1.939   .     S
O211   Zn265   1.947   .     S
O211   C615    1.286   1_545 S
O212   Zn261   1.961   .     S
O212   Zn265   1.945   .     S
O212   Zn259   1.946   .     S
O212   Zn791   1.961   1_545 S
O213   Zn264   1.947   .     S
O214   Zn256   1.948   .     S
O215   Zn255   1.948   .     S
O216   Zn258   1.952   .     S
O217   Zn257   1.952   .     S
O218   Zn260   1.946   .     S
O219   Zn259   1.946   .     S
O220   Zn254   1.944   .     S
O221   Zn268   1.944   .     S
O222   Zn255   1.944   .     S
O223   Zn266   1.946   .     S
O223   Zn254   1.961   .     S
O223   Zn526   1.945   1_455 S
O223   Zn262   1.961   .     S
O224   Zn256   1.944   .     S
O225   Zn268   1.948   .     S
O226   Zn254   1.948   .     S
O227   Zn259   1.951   .     S
O228   Zn260   1.951   .     S
O229   Zn257   1.946   .     S
O230   Zn258   1.946   .     S
O231   Zn531   1.948   .     S
O232   Zn262   1.948   .     S
O233   Zn801   1.952   .     S
O234   Zn257   1.945   .     S
O234   Zn263   1.961   .     S
O234   Zn267   1.946   .     S
O234   Zn536   1.961   1_455 S
O235   Zn264   1.952   .     S
O236   Zn267   1.946   .     S
O237   Zn534   1.946   .     S
O238   Zn261   1.944   .     S
O239   Zn789   1.944   .     S
O240   Zn530   1.944   .     S
O241   Zn263   1.944   .     S
O242   Zn253   1.948   .     S
O243   Zn797   1.948   .     S
O244   Zn266   1.951   .     S
O245   C609    1.286   .     A
O245   Zn260   1.947   .     S
O246   Zn535   1.951   .     S
O247   Zn800   1.946   .     S
O248   Zn265   1.946   .     S
O249   Zn259   1.947   .     S
O250   Zn254   1.939   .     S
O251   Zn268   1.939   .     S
O251   C344    1.277   .     S
O252   Zn256   1.939   .     S
Zn253  O775    1.944   1_545 S
Zn255  O748    1.961   .     S
Zn258  O491    1.945   .     S
Zn260  O737    1.946   .     S
Zn261  O779    1.948   1_545 S
Zn262  O508    1.944   1_455 S
Zn263  O499    1.948   1_455 S
Zn264  O783    1.946   1_545 S
Zn265  O769    1.952   1_545 S
Zn266  O505    1.946   1_455 S
Zn267  O514    1.951   1_455 S
Zn268  O502    1.961   .     S
C269   C272    1.410   .     A
C269   C314    1.403   .     A
C270   C282    1.410   .     A
C270   I458    2.152   .     S
C270   C856    1.403   .     S
C271   C306    1.421   .     A
C271   C383    1.410   .     A
C271   C326    1.410   .     A
C272   C327    1.410   .     A
C272   C302    1.421   .     A
C273   C304    1.421   .     A
C273   C317    1.410   .     A
C273   C329    1.410   .     A
C274   C328    1.409   .     A
C274   C305    1.420   .     A
C274   C330    1.410   .     A
C275   C339    1.409   .     A
C275   C331    1.410   .     A
C275   C306    1.420   .     A
C276   C307    1.420   .     A
C276   C332    1.410   .     A
C276   C303    1.409   .     A
C277   C311    1.409   .     A
C277   C308    1.420   .     A
C277   C333    1.409   .     A
C278   C309    1.421   .     A
C278   C334    1.410   .     A
C278   C312    1.410   .     A
C279   C335    1.410   .     A
C279   C313    1.410   .     A
C279   C42     1.421   1_655 S
C280   C336    1.410   .     A
C280   C394    1.410   .     A
C280   C843    1.421   1_545 S
C281   C53     1.403   1_655 A
C281   C283    1.409   .     A
C281   I459    2.149   .     S
C282   C337    1.410   .     A
C282   C844    1.421   .     S
C283   C338    1.410   .     A
C283   C41     1.420   1_655 S
C284   C340    1.410   .     A
C284   C292    1.409   .     A
C284   C310    1.420   .     A
C285   C356    1.465   .     S
C285   C386    1.412   .     A
C285   C384    1.417   .     A
C286   C382    1.417   .     A
C286   C357    1.465   .     S
C286   C385    1.412   .     A
C287   C388    1.412   .     A
C287   C381    1.412   .     A
C287   C349    1.465   .     S
C288   C380    1.412   .     A
C288   C351    1.465   .     S
C288   C387    1.412   .     A
C289   C390    1.417   .     A
C289   C379    1.412   .     A
C289   C352    1.465   .     S
C290   C353    1.465   .     S
C290   C378    1.412   .     A
C290   C389    1.417   .     A
C291   C354    1.463   .     S
C291   C392    1.417   .     A
C291   C377    1.417   .     A
C292   I461    2.149   .     S
C292   C322    1.403   .     A
C293   C376    1.417   .     A
C293   C391    1.417   .     A
C293   C355    1.463   .     S
C294   C375    1.417   .     A
C294   C395    1.417   .     A
C294   C365    1.463   .     S
C295   C366    1.463   .     S
C295   C393    1.417   .     A
C295   C374    1.417   .     A
C296   C373    1.417   .     A
C296   C397    1.412   .     A
C296   C358    1.465   .     S
C297   C396    1.412   .     A
C297   C371    1.417   .     A
C297   C359    1.465   .     S
C298   C399    1.412   .     A
C298   C360    1.465   .     S
C298   C370    1.412   .     A
C299   C369    1.412   .     A
C299   C398    1.412   .     A
C299   C362    1.465   .     S
C300   C401    1.417   .     A
C300   C368    1.412   .     A
C300   C363    1.465   .     S
C301   C367    1.412   .     A
C301   C400    1.417   .     A
C301   C364    1.465   .     S
C302   C402    1.420   .     A
C303   I462    2.149   .     S
C303   C319    1.403   .     A
C304   C403    1.421   .     A
C304   C34     1.417   1_655 S
C305   C404    1.421   .     A
C305   C842    1.417   1_545 S
C306   C841    1.417   .     S
C307   C816    1.421   .     S
C307   C844    1.417   1_556 S
C308   C818    1.421   1_545 S
C308   C843    1.417   1_544 S
C309   C310    1.417   1_556 S
C310   C309    1.417   1_554 S
C311   I463    2.149   .     S
C311   C320    1.403   .     A
C312   I464    2.152   .     S
C312   C321    1.403   .     S
C313   I465    2.152   .     S
C313   C54     1.403   1_655 S
C314   C350    1.403   .     A
C314   C343    1.452   .     S
C315   C317    1.403   .     A
C315   C361    1.403   .     A
C315   C76     1.452   1_655 S
C316   C372    1.403   .     A
C316   C328    1.403   .     A
C316   C341    1.451   .     S
C317   I182    2.152   1_655 S
C318   C878    1.452   .     S
C318   C383    1.403   .     A
C318   C339    1.402   .     A
C319   C347    1.452   .     S
C319   C930    1.403   .     S
C320   C348    1.451   .     S
C320   C806    1.403   1_545 S
C322   C346    1.452   .     S
C323   I405    2.140   .     S
C323   C402    1.410   .     A
C324   I416    2.140   .     S
C324   C403    1.410   .     A
C324   C59     1.388   1_655 S
C325   C404    1.410   .     A
C325   I427    2.139   .     S
C325   C867    1.388   1_545 S
C326   I438    2.139   .     S
C326   C866    1.388   .     S
C327   I449    2.139   .     S
C328   I987    2.149   1_545 S
C329   I460    2.139   .     S
C329   C55     1.388   1_655 S
C330   I466    2.140   .     S
C330   C862    1.388   1_545 S
C331   I467    2.140   .     S
C331   C861    1.388   .     S
C332   I468    2.140   .     S
C332   C337    1.388   1_556 S
C333   I406    2.140   .     S
C333   C336    1.388   1_554 S
C334   I407    2.139   .     S
C334   C340    1.388   1_556 S
C335   I408    2.139   .     S
C335   C338    1.388   1_554 S
C336   I409    2.139   .     S
C336   C333    1.388   1_556 S
C337   I410    2.139   .     S
C337   C332    1.388   1_554 S
C338   I411    2.140   .     S
C338   C335    1.388   1_556 S
C339   I988    2.149   .     S
C340   I412    2.140   .     S
C340   C334    1.388   1_554 S
C341   O1049   1.286   1_545 A
C341   O520    1.277   .     S
C342   C854    1.452   1_545 S
C342   O1006   1.277   1_545 A
C342   O517    1.286   .     S
C343   O518    1.276   .     S
C344   O472    1.286   .     A
C345   C53     1.452   1_655 S
C345   O205    1.286   1_655 S
C345   O209    1.276   1_655 S
C346   O478    1.277   .     A
C346   O474    1.286   .     A
C347   O1011   1.277   .     S
C347   O1015   1.286   .     S
C348   O476    1.277   .     A
C348   O481    1.286   .     A
C349   O510    1.289   .     A
C349   O482    1.289   .     A
C350   C402    1.409   .     A
C351   O511    1.289   .     A
C351   O483    1.289   .     A
C352   O508    1.288   .     A
C352   O484    1.280   .     A
C353   O485    1.280   .     A
C353   O509    1.288   .     A
C354   O515    1.279   .     A
C354   O486    1.279   .     A
C355   O516    1.279   .     A
C355   O487    1.279   .     A
C356   O488    1.288   .     A
C356   O512    1.280   .     A
C357   O514    1.280   .     A
C357   O489    1.288   .     A
C358   O490    1.288   .     A
C358   O501    1.280   .     A
C359   O503    1.280   .     A
C359   O492    1.288   .     A
C360   O499    1.289   .     A
C360   O493    1.289   .     A
C361   C403    1.409   .     A
C361   I186    2.149   1_655 S
C362   O500    1.289   .     A
C362   O494    1.289   .     A
C363   O506    1.288   .     A
C363   O495    1.280   .     A
C364   O496    1.280   .     A
C364   O507    1.288   .     A
C365   O497    1.279   .     A
C365   O504    1.279   .     A
C366   O505    1.279   .     A
C366   O498    1.279   .     A
C367   C384    1.401   .     A
C367   I413    2.159   .     S
C368   I414    2.158   .     S
C368   C382    1.401   .     A
C369   C381    1.404   .     A
C369   I415    2.148   .     S
C370   C380    1.404   .     A
C370   I417    2.148   .     S
C371   C379    1.401   .     A
C371   I418    2.151   .     S
C372   C404    1.410   .     A
C372   I991    2.152   1_545 S
C373   C378    1.401   .     A
C373   I419    2.151   .     S
C374   I420    2.163   .     S
C374   C377    1.400   .     A
C375   C376    1.400   .     A
C375   I421    2.163   .     S
C376   I422    2.163   .     S
C377   I423    2.163   .     S
C378   I424    2.159   .     S
C379   I425    2.159   .     S
C380   I426    2.148   .     S
C381   I428    2.148   .     S
C382   I429    2.151   .     S
C383   I992    2.152   .     S
C384   I430    2.152   .     S
C385   C401    1.401   .     A
C385   I431    2.158   .     S
C386   I432    2.159   .     S
C386   C400    1.401   .     A
C387   C399    1.404   .     A
C387   I433    2.148   .     S
C388   C398    1.404   .     A
C388   I434    2.148   .     S
C389   I435    2.151   .     S
C389   C397    1.401   .     A
C390   C396    1.401   .     A
C390   I436    2.151   .     S
C391   C395    1.400   .     A
C391   I437    2.163   .     S
C392   I439    2.163   .     S
C392   C393    1.400   .     A
C393   I440    2.163   .     S
C394   I457    2.152   .     S
C394   C855    1.403   1_545 S
C395   I441    2.163   .     S
C396   I442    2.158   .     S
C397   I443    2.159   .     S
C398   I444    2.148   .     S
C399   I445    2.148   .     S
C400   I446    2.152   .     S
C401   I447    2.151   .     S
I448   C1      2.152   1_655 S
I451   C864    2.149   .     S
I452   C875    2.149   1_545 S
I453   C82     2.149   1_655 S
I455   C908    2.152   .     S
I456   C919    2.152   1_545 S
O469   Zn532   1.945   .     S
O469   Zn524   1.961   .     S
O469   Zn521   1.961   .     S
O469   Zn1064  1.946   1_545 S
O470   Zn523   1.939   .     S
O470   C878    1.277   .     A
O471   Zn526   1.947   .     S
O471   C75     1.286   1_655 A
O472   Zn525   1.947   .     S
O473   Zn535   1.947   .     S
O474   Zn534   1.947   .     S
O475   Zn529   1.939   .     S
O475   C883    1.277   1_545 S
O476   Zn521   1.939   .     S
O477   Zn531   1.939   .     S
O478   Zn530   1.939   .     S
O479   Zn533   1.947   .     S
O479   C883    1.286   1_545 S
O480   Zn529   1.961   .     S
O480   Zn533   1.945   .     S
O480   Zn527   1.946   .     S
O480   Zn1059  1.961   1_545 S
O481   Zn532   1.947   .     S
O482   Zn524   1.948   .     S
O483   Zn523   1.948   .     S
O484   Zn526   1.952   .     S
O485   Zn525   1.952   .     S
O486   Zn528   1.946   .     S
O487   Zn527   1.946   .     S
O488   Zn522   1.944   .     S
O489   Zn536   1.944   .     S
O490   Zn523   1.944   .     S
O491   Zn534   1.946   .     S
O491   Zn522   1.961   .     S
O491   Zn530   1.961   .     S
O492   Zn524   1.944   .     S
O493   Zn536   1.948   .     S
O494   Zn522   1.948   .     S
O495   Zn527   1.951   .     S
O496   Zn528   1.951   .     S
O497   Zn525   1.946   .     S
O498   Zn526   1.946   .     S
O499   Zn263   1.948   1_655 S
O500   Zn530   1.948   .     S
O501   Zn1069  1.952   .     S
O502   Zn525   1.945   .     S
O502   Zn531   1.961   .     S
O502   Zn535   1.946   .     S
O503   Zn532   1.952   .     S
O504   Zn535   1.946   .     S
O505   Zn266   1.946   1_655 S
O506   Zn529   1.944   .     S
O507   Zn1057  1.944   .     S
O508   Zn262   1.944   1_655 S
O509   Zn531   1.944   .     S
O510   Zn521   1.948   .     S
O511   Zn1065  1.948   .     S
O512   Zn534   1.951   .     S
O513   C877    1.286   .     A
O513   Zn528   1.947   .     S
O514   Zn267   1.951   1_655 S
O515   Zn1068  1.946   .     S
O516   Zn533   1.946   .     S
O517   Zn527   1.947   .     S
O518   Zn522   1.939   .     S
O519   Zn536   1.939   .     S
O519   C76     1.277   1_655 S
O520   Zn524   1.939   .     S
Zn521  O1043   1.944   1_545 S
Zn523  O1016   1.961   .     S
Zn526  O223    1.945   1_655 S
Zn528  O1005   1.946   .     S
Zn529  O1047   1.948   1_545 S
Zn532  O1051   1.946   1_545 S
Zn533  O1037   1.952   1_545 S
Zn536  O234    1.961   1_655 S
C537   C540    1.410   .     A
C537   C582    1.403   .     A
C537   I984    2.152   1_455 S
C538   C550    1.410   .     A
C538   I726    2.152   .     S
C538   C52     1.403   1_565 S
C539   C574    1.421   .     A
C539   C651    1.410   .     A
C539   C594    1.410   .     A
C540   C595    1.410   .     A
C540   C570    1.421   .     A
C541   C572    1.421   .     A
C541   C585    1.410   .     A
C541   C597    1.410   .     A
C542   C596    1.409   .     A
C542   C573    1.420   .     A
C542   C598    1.410   .     A
C543   C607    1.409   .     A
C543   C599    1.410   .     A
C543   C574    1.420   .     A
C544   C575    1.420   .     A
C544   C600    1.410   .     A
C544   C571    1.409   .     A
C545   C579    1.409   .     A
C545   C576    1.420   .     A
C545   C601    1.409   .     A
C546   C577    1.421   .     A
C546   C602    1.410   .     A
C546   C580    1.410   .     A
C547   C603    1.410   .     A
C547   C581    1.410   .     A
C547   C846    1.421   .     S
C548   C604    1.410   .     A
C548   C662    1.410   .     A
C549   C857    1.403   .     A
C549   C551    1.409   .     A
C549   I727    2.149   .     S
C550   C605    1.410   .     A
C550   C40     1.421   1_565 S
C551   C606    1.410   .     A
C551   C845    1.420   .     S
C552   C608    1.410   .     A
C552   C560    1.409   .     A
C552   C578    1.420   .     A
C553   C624    1.465   .     S
C553   C654    1.412   .     A
C553   C652    1.417   .     A
C554   C650    1.417   .     A
C554   C625    1.465   .     S
C554   C653    1.412   .     A
C555   C656    1.412   .     A
C555   C649    1.412   .     A
C555   C617    1.465   .     S
C556   C648    1.412   .     A
C556   C619    1.465   .     S
C556   C655    1.412   .     A
C557   C658    1.417   .     A
C557   C647    1.412   .     A
C557   C620    1.465   .     S
C558   C621    1.465   .     S
C558   C646    1.412   .     A
C558   C657    1.417   .     A
C559   C622    1.463   .     S
C559   C660    1.417   .     A
C559   C645    1.417   .     A
C560   I729    2.149   .     S
C560   C590    1.403   .     A
C561   C644    1.417   .     A
C561   C659    1.417   .     A
C561   C623    1.463   .     S
C562   C643    1.417   .     A
C562   C663    1.417   .     A
C562   C633    1.463   .     S
C563   C634    1.463   .     S
C563   C661    1.417   .     A
C563   C642    1.417   .     A
C564   C641    1.417   .     A
C564   C665    1.412   .     A
C564   C626    1.465   .     S
C565   C664    1.412   .     A
C565   C639    1.417   .     A
C565   C627    1.465   .     S
C566   C667    1.412   .     A
C566   C628    1.465   .     S
C566   C638    1.412   .     A
C567   C637    1.412   .     A
C567   C666    1.412   .     A
C567   C630    1.465   .     S
C568   C669    1.417   .     A
C568   C636    1.412   .     A
C568   C631    1.465   .     S
C569   C635    1.412   .     A
C569   C668    1.417   .     A
C569   C632    1.465   .     S
C570   C670    1.420   .     A
C570   C840    1.417   1_455 S
C571   I730    2.149   .     S
C571   C587    1.403   .     A
C572   C671    1.421   .     A
C572   C838    1.417   .     S
C573   C672    1.421   .     A
C574   C37     1.417   1_565 S
C575   C12     1.421   1_565 S
C575   C40     1.417   1_566 S
C576   C39     1.417   1_554 S
C577   C819    1.420   1_455 S
C577   C578    1.417   1_556 S
C578   C815    1.421   1_455 S
C578   C577    1.417   1_554 S
C579   I731    2.149   .     S
C579   C588    1.403   .     A
C580   I732    2.152   .     S
C580   C589    1.403   .     S
C581   I733    2.152   .     S
C581   C858    1.403   .     S
C582   C618    1.403   .     A
C582   C611    1.452   .     S
C583   C585    1.403   .     A
C583   C629    1.403   .     A
C583   C880    1.452   .     S
C584   C640    1.403   .     A
C584   C596    1.403   .     A
C584   C609    1.451   .     S
C585   I986    2.152   .     S
C586   C74     1.452   1_565 S
C586   C651    1.403   .     A
C586   C607    1.402   .     A
C587   C615    1.452   .     S
C587   C126    1.403   1_565 S
C588   C616    1.451   .     S
C589   C817    1.403   1_455 A
C589   C881    1.452   1_455 S
C590   C614    1.452   .     S
C590   C849    1.403   1_455 S
C591   I673    2.140   .     S
C591   C670    1.410   .     A
C591   C865    1.388   1_455 S
C592   I684    2.140   .     S
C592   C671    1.410   .     A
C592   C863    1.388   .     S
C593   C672    1.410   .     A
C593   I695    2.139   .     S
C594   I706    2.139   .     S
C594   C62     1.388   1_565 S
C595   I717    2.139   .     S
C595   C860    1.388   1_455 S
C597   I728    2.139   .     S
C597   C859    1.388   .     S
C598   I734    2.140   .     S
C599   I735    2.140   .     S
C599   C57     1.388   1_565 S
C600   I736    2.140   .     S
C600   C605    1.388   1_556 S
C601   I674    2.140   .     S
C601   C604    1.388   1_554 S
C602   I675    2.139   .     S
C602   C608    1.388   1_556 S
C603   I676    2.139   .     S
C603   C606    1.388   1_554 S
C604   I677    2.139   .     S
C604   C601    1.388   1_556 S
C605   I678    2.139   .     S
C605   C600    1.388   1_554 S
C606   I679    2.140   .     S
C606   C603    1.388   1_556 S
C607   I184    2.149   1_565 S
C608   I680    2.140   .     S
C608   C602    1.388   1_554 S
C609   O788    1.277   .     S
C610   O785    1.286   .     S
C611   O1007   1.286   1_455 A
C611   O786    1.276   .     S
C612   O740    1.286   .     A
C612   C851    1.452   1_455 S
C612   O1055   1.277   1_455 S
C613   C857    1.452   .     S
C613   O1009   1.286   .     S
C613   O1013   1.276   .     S
C614   O746    1.277   .     A
C614   O742    1.286   .     A
C615   O207    1.277   1_565 S
C615   O211    1.286   1_565 S
C616   O744    1.277   .     A
C616   O749    1.286   .     A
C617   O778    1.289   .     A
C617   O750    1.289   .     A
C618   C670    1.409   .     A
C618   I989    2.149   1_455 S
C619   O779    1.289   .     A
C619   O751    1.289   .     A
C620   O776    1.288   .     A
C620   O752    1.280   .     A
C621   O753    1.280   .     A
C621   O777    1.288   .     A
C622   O783    1.279   .     A
C622   O754    1.279   .     A
C623   O784    1.279   .     A
C623   O755    1.279   .     A
C624   O756    1.288   .     A
C624   O780    1.280   .     A
C625   O782    1.280   .     A
C625   O757    1.288   .     A
C626   O758    1.288   .     A
C626   O769    1.280   .     A
C627   O771    1.280   .     A
C627   O760    1.288   .     A
C628   O767    1.289   .     A
C628   O761    1.289   .     A
C629   C671    1.409   .     A
C629   I990    2.149   .     S
C630   O768    1.289   .     A
C630   O762    1.289   .     A
C631   O774    1.288   .     A
C631   O763    1.280   .     A
C632   O764    1.280   .     A
C632   O775    1.288   .     A
C633   O765    1.279   .     A
C633   O772    1.279   .     A
C634   O773    1.279   .     A
C634   O766    1.279   .     A
C635   C652    1.401   .     A
C635   I681    2.159   .     S
C636   I682    2.158   .     S
C636   C650    1.401   .     A
C637   C649    1.404   .     A
C637   I683    2.148   .     S
C638   C648    1.404   .     A
C638   I685    2.148   .     S
C639   C647    1.401   .     A
C639   I686    2.151   .     S
C640   C672    1.410   .     A
C641   C646    1.401   .     A
C641   I687    2.151   .     S
C642   I688    2.163   .     S
C642   C645    1.400   .     A
C643   C644    1.400   .     A
C643   I689    2.163   .     S
C644   I690    2.163   .     S
C645   I691    2.163   .     S
C646   I692    2.159   .     S
C647   I693    2.159   .     S
C648   I694    2.148   .     S
C649   I696    2.148   .     S
C650   I697    2.151   .     S
C651   I188    2.152   1_565 S
C652   I698    2.152   .     S
C653   C669    1.401   .     A
C653   I699    2.158   .     S
C654   I700    2.159   .     S
C654   C668    1.401   .     A
C655   C667    1.404   .     A
C655   I701    2.148   .     S
C656   C666    1.404   .     A
C656   I702    2.148   .     S
C657   I703    2.151   .     S
C657   C665    1.401   .     A
C658   C664    1.401   .     A
C658   I704    2.151   .     S
C659   C663    1.400   .     A
C659   I705    2.163   .     S
C660   I707    2.163   .     S
C660   C661    1.400   .     A
C661   I708    2.163   .     S
C662   I725    2.152   .     S
C663   I709    2.163   .     S
C664   I710    2.158   .     S
C665   I711    2.159   .     S
C666   I712    2.148   .     S
C667   I713    2.148   .     S
C668   I714    2.152   .     S
C669   I715    2.151   .     S
I716   C805    2.152   .     S
I718   C853    2.152   1_455 S
I719   C60     2.149   1_565 S
I721   C886    2.149   .     S
I722   C897    2.149   1_455 S
I723   C104    2.152   1_565 S
O737   Zn800   1.945   .     S
O737   Zn792   1.961   .     S
O737   Zn789   1.961   .     S
O738   Zn791   1.939   .     S
O738   C74     1.277   1_565 A
O739   Zn794   1.947   .     S
O739   C879    1.286   .     A
O740   Zn793   1.947   .     S
O741   Zn803   1.947   .     S
O741   C881    1.286   1_455 S
O742   Zn802   1.947   .     S
O743   Zn797   1.939   .     S
O744   Zn789   1.939   .     S
O745   Zn799   1.939   .     S
O745   C881    1.276   1_455 S
O746   Zn798   1.939   .     S
O747   Zn801   1.947   .     S
O748   Zn797   1.961   .     S
O748   Zn801   1.945   .     S
O748   Zn795   1.946   .     S
O749   Zn800   1.947   .     S
O750   Zn792   1.948   .     S
O751   Zn791   1.948   .     S
O752   Zn794   1.952   .     S
O753   Zn793   1.952   .     S
O754   Zn796   1.946   .     S
O755   Zn795   1.946   .     S
O756   Zn790   1.944   .     S
O757   Zn804   1.944   .     S
O758   Zn791   1.944   .     S
O759   Zn802   1.946   .     S
O759   Zn790   1.961   .     S
O759   Zn1062  1.945   1_455 S
O759   Zn798   1.961   .     S
O760   Zn792   1.944   .     S
O761   Zn804   1.948   .     S
O762   Zn790   1.948   .     S
O763   Zn795   1.951   .     S
O764   Zn796   1.951   .     S
O765   Zn793   1.946   .     S
O766   Zn794   1.946   .     S
O767   Zn1067  1.948   .     S
O768   Zn798   1.948   .     S
O769   Zn265   1.952   1_565 S
O770   Zn793   1.945   .     S
O770   Zn799   1.961   .     S
O770   Zn803   1.946   .     S
O770   Zn1072  1.961   1_455 S
O771   Zn800   1.952   .     S
O772   Zn803   1.946   .     S
O773   Zn1070  1.946   .     S
O774   Zn797   1.944   .     S
O775   Zn253   1.944   1_565 S
O776   Zn1066  1.944   .     S
O777   Zn799   1.944   .     S
O778   Zn789   1.948   .     S
O779   Zn261   1.948   1_565 S
O780   Zn802   1.951   .     S
O781   C73     1.286   1_565 A
O781   Zn796   1.947   .     S
O782   Zn1071  1.951   .     S
O783   Zn264   1.946   1_565 S
O784   Zn801   1.946   .     S
O785   Zn795   1.947   .     S
O786   Zn790   1.939   .     S
O787   Zn804   1.939   .     S
O787   C880    1.277   .     S
O788   Zn792   1.939   .     S
Zn791  O212    1.961   1_565 S
Zn794  O1027   1.945   .     S
Zn796  O201    1.946   1_565 S
Zn798  O1044   1.944   1_455 S
Zn799  O1035   1.948   1_455 S
Zn802  O1041   1.946   1_455 S
Zn803  O1050   1.951   1_455 S
Zn804  O1038   1.961   .     S
C805   C808    1.410   .     A
C805   C850    1.403   .     A
C806   C818    1.410   .     A
C806   I994    2.152   .     S
C806   C320    1.403   1_565 S
C807   C842    1.421   .     A
C807   C919    1.410   .     A
C807   C862    1.410   .     A
C808   C863    1.410   .     A
C808   C838    1.421   .     A
C809   C840    1.421   .     A
C809   C853    1.410   .     A
C809   C865    1.410   .     A
C810   C864    1.409   .     A
C810   C841    1.420   .     A
C810   C866    1.410   .     A
C811   C875    1.409   .     A
C811   C867    1.410   .     A
C811   C842    1.420   .     A
C812   C843    1.420   .     A
C812   C868    1.410   .     A
C812   C839    1.409   .     A
C813   C847    1.409   .     A
C813   C844    1.420   .     A
C813   C869    1.409   .     A
C814   C845    1.421   .     A
C814   C870    1.410   .     A
C814   C848    1.410   .     A
C815   C871    1.410   .     A
C815   C849    1.410   .     A
C815   C578    1.421   1_655 S
C816   C872    1.410   .     A
C816   C930    1.410   .     A
C817   C589    1.403   1_655 A
C817   C819    1.409   .     A
C817   I995    2.149   .     S
C818   C873    1.410   .     A
C818   C308    1.421   1_565 S
C819   C874    1.410   .     A
C819   C577    1.420   1_655 S
C820   C876    1.410   .     A
C820   C828    1.409   .     A
C820   C846    1.420   .     A
C821   C892    1.465   .     S
C821   C922    1.412   .     A
C821   C920    1.417   .     A
C822   C918    1.417   .     A
C822   C893    1.465   .     S
C822   C921    1.412   .     A
C823   C924    1.412   .     A
C823   C917    1.412   .     A
C823   C885    1.465   .     S
C824   C916    1.412   .     A
C824   C887    1.465   .     S
C824   C923    1.412   .     A
C825   C926    1.417   .     A
C825   C915    1.412   .     A
C825   C888    1.465   .     S
C826   C889    1.465   .     S
C826   C914    1.412   .     A
C826   C925    1.417   .     A
C827   C890    1.463   .     S
C827   C928    1.417   .     A
C827   C913    1.417   .     A
C828   I997    2.149   .     S
C828   C858    1.403   .     A
C829   C912    1.417   .     A
C829   C927    1.417   .     A
C829   C891    1.463   .     S
C830   C911    1.417   .     A
C830   C931    1.417   .     A
C830   C901    1.463   .     S
C831   C902    1.463   .     S
C831   C929    1.417   .     A
C831   C910    1.417   .     A
C832   C909    1.417   .     A
C832   C933    1.412   .     A
C832   C894    1.465   .     S
C833   C932    1.412   .     A
C833   C907    1.417   .     A
C833   C895    1.465   .     S
C834   C935    1.412   .     A
C834   C896    1.465   .     S
C834   C906    1.412   .     A
C835   C905    1.412   .     A
C835   C934    1.412   .     A
C835   C898    1.465   .     S
C836   C937    1.417   .     A
C836   C904    1.412   .     A
C836   C899    1.465   .     S
C837   C903    1.412   .     A
C837   C936    1.417   .     A
C837   C900    1.465   .     S
C838   C938    1.420   .     A
C839   I998    2.149   .     S
C839   C855    1.403   .     A
C840   C939    1.421   .     A
C840   C570    1.417   1_655 S
C841   C940    1.421   .     A
C842   C305    1.417   1_565 S
C843   C280    1.421   1_565 S
C843   C308    1.417   1_566 S
C844   C307    1.417   1_554 S
C845   C846    1.417   1_556 S
C846   C845    1.417   1_554 S
C847   I999    2.149   .     S
C847   C856    1.403   .     A
C848   I1000   2.152   .     S
C848   C857    1.403   .     S
C849   I1001   2.152   .     S
C849   C590    1.403   1_655 S
C850   C886    1.403   .     A
C850   C879    1.452   .     S
C851   C853    1.403   .     A
C851   C897    1.403   .     A
C851   C612    1.452   1_655 S
C852   C908    1.403   .     A
C852   C864    1.403   .     A
C852   C877    1.451   .     S
C853   I718    2.152   1_655 S
C854   C342    1.452   1_565 S
C854   C919    1.403   .     A
C854   C875    1.402   .     A
C855   C883    1.452   .     S
C855   C394    1.403   1_565 S
C856   C884    1.451   .     S
C858   C882    1.452   .     S
C859   I941    2.140   .     S
C859   C938    1.410   .     A
C860   I952    2.140   .     S
C860   C939    1.410   .     A
C860   C595    1.388   1_655 S
C861   C940    1.410   .     A
C861   I963    2.139   .     S
C862   I974    2.139   .     S
C862   C330    1.388   1_565 S
C863   I985    2.139   .     S
C865   I996    2.139   .     S
C865   C591    1.388   1_655 S
C866   I1002   2.140   .     S
C867   I1003   2.140   .     S
C867   C325    1.388   1_565 S
C868   I1004   2.140   .     S
C868   C873    1.388   1_556 S
C869   I942    2.140   .     S
C869   C872    1.388   1_554 S
C870   I943    2.139   .     S
C870   C876    1.388   1_556 S
C871   I944    2.139   .     S
C871   C874    1.388   1_554 S
C872   I945    2.139   .     S
C872   C869    1.388   1_556 S
C873   I946    2.139   .     S
C873   C868    1.388   1_554 S
C874   I947    2.140   .     S
C874   C871    1.388   1_556 S
C875   I452    2.149   1_565 S
C876   I948    2.140   .     S
C876   C870    1.388   1_554 S
C877   O1056   1.277   .     S
C878   O1053   1.286   .     S
C879   O1054   1.276   .     S
C880   O1008   1.286   .     A
C881   C589    1.452   1_655 S
C881   O741    1.286   1_655 S
C881   O745    1.276   1_655 S
C882   O1014   1.277   .     A
C882   O1010   1.286   .     A
C883   O475    1.277   1_565 S
C883   O479    1.286   1_565 S
C884   O1012   1.277   .     A
C884   O1017   1.286   .     A
C885   O1046   1.289   .     A
C885   O1018   1.289   .     A
C886   C938    1.409   .     A
C887   O1047   1.289   .     A
C887   O1019   1.289   .     A
C888   O1044   1.288   .     A
C888   O1020   1.280   .     A
C889   O1021   1.280   .     A
C889   O1045   1.288   .     A
C890   O1051   1.279   .     A
C890   O1022   1.279   .     A
C891   O1052   1.279   .     A
C891   O1023   1.279   .     A
C892   O1024   1.288   .     A
C892   O1048   1.280   .     A
C893   O1050   1.280   .     A
C893   O1025   1.288   .     A
C894   O1026   1.288   .     A
C894   O1037   1.280   .     A
C895   O1039   1.280   .     A
C895   O1028   1.288   .     A
C896   O1035   1.289   .     A
C896   O1029   1.289   .     A
C897   C939    1.409   .     A
C897   I722    2.149   1_655 S
C898   O1036   1.289   .     A
C898   O1030   1.289   .     A
C899   O1042   1.288   .     A
C899   O1031   1.280   .     A
C900   O1032   1.280   .     A
C900   O1043   1.288   .     A
C901   O1033   1.279   .     A
C901   O1040   1.279   .     A
C902   O1041   1.279   .     A
C902   O1034   1.279   .     A
C903   C920    1.401   .     A
C903   I949    2.159   .     S
C904   I950    2.158   .     S
C904   C918    1.401   .     A
C905   C917    1.404   .     A
C905   I951    2.148   .     S
C906   C916    1.404   .     A
C906   I953    2.148   .     S
C907   C915    1.401   .     A
C907   I954    2.151   .     S
C908   C940    1.410   .     A
C909   C914    1.401   .     A
C909   I955    2.151   .     S
C910   I956    2.163   .     S
C910   C913    1.400   .     A
C911   C912    1.400   .     A
C911   I957    2.163   .     S
C912   I958    2.163   .     S
C913   I959    2.163   .     S
C914   I960    2.159   .     S
C915   I961    2.159   .     S
C916   I962    2.148   .     S
C917   I964    2.148   .     S
C918   I965    2.151   .     S
C919   I456    2.152   1_565 S
C920   I966    2.152   .     S
C921   C937    1.401   .     A
C921   I967    2.158   .     S
C922   I968    2.159   .     S
C922   C936    1.401   .     A
C923   C935    1.404   .     A
C923   I969    2.148   .     S
C924   C934    1.404   .     A
C924   I970    2.148   .     S
C925   I971    2.151   .     S
C925   C933    1.401   .     A
C926   C932    1.401   .     A
C926   I972    2.151   .     S
C927   C931    1.400   .     A
C927   I973    2.163   .     S
C928   I975    2.163   .     S
C928   C929    1.400   .     A
C929   I976    2.163   .     S
C930   I993    2.152   .     S
C931   I977    2.163   .     S
C932   I978    2.158   .     S
C933   I979    2.159   .     S
C934   I980    2.148   .     S
C935   I981    2.148   .     S
C936   I982    2.152   .     S
C937   I983    2.151   .     S
I984   C537    2.152   1_655 S
I987   C328    2.149   1_565 S
I989   C618    2.149   1_655 S
I991   C372    2.152   1_565 S
O1005  Zn1068  1.945   .     S
O1005  Zn1060  1.961   .     S
O1005  Zn1057  1.961   .     S
O1006  Zn1059  1.939   .     S
O1006  C342    1.277   1_565 A
O1007  Zn1062  1.947   .     S
O1007  C611    1.286   1_655 A
O1008  Zn1061  1.947   .     S
O1009  Zn1071  1.947   .     S
O1010  Zn1070  1.947   .     S
O1011  Zn1065  1.939   .     S
O1012  Zn1057  1.939   .     S
O1013  Zn1067  1.939   .     S
O1014  Zn1066  1.939   .     S
O1015  Zn1069  1.947   .     S
O1016  Zn1065  1.961   .     S
O1016  Zn1069  1.945   .     S
O1016  Zn1063  1.946   .     S
O1017  Zn1068  1.947   .     S
O1018  Zn1060  1.948   .     S
O1019  Zn1059  1.948   .     S
O1020  Zn1062  1.952   .     S
O1021  Zn1061  1.952   .     S
O1022  Zn1064  1.946   .     S
O1023  Zn1063  1.946   .     S
O1024  Zn1058  1.944   .     S
O1025  Zn1072  1.944   .     S
O1026  Zn1059  1.944   .     S
O1027  Zn1070  1.946   .     S
O1027  Zn1058  1.961   .     S
O1027  Zn1066  1.961   .     S
O1028  Zn1060  1.944   .     S
O1029  Zn1072  1.948   .     S
O1030  Zn1058  1.948   .     S
O1031  Zn1063  1.951   .     S
O1032  Zn1064  1.951   .     S
O1033  Zn1061  1.946   .     S
O1034  Zn1062  1.946   .     S
O1035  Zn799   1.948   1_655 S
O1036  Zn1066  1.948   .     S
O1037  Zn533   1.952   1_565 S
O1038  Zn1061  1.945   .     S
O1038  Zn1067  1.961   .     S
O1038  Zn1071  1.946   .     S
O1039  Zn1068  1.952   .     S
O1040  Zn1071  1.946   .     S
O1041  Zn802   1.946   1_655 S
O1042  Zn1065  1.944   .     S
O1043  Zn521   1.944   1_565 S
O1044  Zn798   1.944   1_655 S
O1045  Zn1067  1.944   .     S
O1046  Zn1057  1.948   .     S
O1047  Zn529   1.948   1_565 S
O1048  Zn1070  1.951   .     S
O1049  C341    1.286   1_565 A
O1049  Zn1064  1.947   .     S
O1050  Zn803   1.951   1_655 S
O1051  Zn532   1.946   1_565 S
O1052  Zn1069  1.946   .     S
O1053  Zn1063  1.947   .     S
O1054  Zn1058  1.939   .     S
O1055  Zn1072  1.939   .     S
O1055  C612    1.277   1_655 S
O1056  Zn1060  1.939   .     S
Zn1059 O480    1.961   1_565 S
Zn1062 O759    1.945   1_655 S
Zn1064 O469    1.946   1_565 S
Zn1072 O770    1.961   1_655 S
