data_str_m2_o2_o10_pcu_sym.157
_audit_creation_date              2020-01-03
_audit_creation_method            'Materials Studio'
_symmetry_space_group_name_H-M    'P1'
_symmetry_Int_Tables_number       1
_symmetry_cell_setting            triclinic
loop_
_symmetry_equiv_pos_as_xyz
  x,y,z
_cell_length_a                    26.1685
_cell_length_b                    30.3330
_cell_length_c                    27.6773
_cell_angle_alpha                 91.4770
_cell_angle_beta                  97.9912
_cell_angle_gamma                 89.4127
loop_
_atom_site_label
_atom_site_type_symbol
_atom_site_fract_x
_atom_site_fract_y
_atom_site_fract_z
_atom_site_U_iso_or_equiv
_atom_site_adp_type
_atom_site_occupancy
C1     C     0.16763   0.16507   0.24947   0.00000  Uiso   1.00
C2     C     0.16546   0.33531   0.25057   0.00000  Uiso   1.00
C3     C     0.20385   0.22740   0.05769   0.00000  Uiso   1.00
C4     C     0.12677   0.23130   0.44081   0.00000  Uiso   1.00
C5     C     0.20367   0.22759   0.10847   0.00000  Uiso   1.00
C6     C     0.12711   0.23137   0.39005   0.00000  Uiso   1.00
C7     C     0.12903   0.27261   0.10086   0.00000  Uiso   1.00
C8     C     0.20716   0.26803   0.40082   0.00000  Uiso   1.00
C9     C     0.12729   0.27367   0.04976   0.00000  Uiso   1.00
C10    C     0.20891   0.26880   0.45200   0.00000  Uiso   1.00
C11    C     0.16580   0.25062   0.02722   0.00000  Uiso   1.00
C12    C     0.16741   0.25045   0.47287   0.00000  Uiso   1.00
C13    C     0.06788   0.25106   0.23757   0.00000  Uiso   1.00
C14    C     0.26546   0.25057   0.26249   0.00000  Uiso   1.00
C15    C     0.01260   0.25268   0.23075   0.00000  Uiso   1.00
C16    C     0.32073   0.25154   0.26945   0.00000  Uiso   1.00
C17    C     0.12892   0.04915   0.26625   0.00000  Uiso   1.00
C18    C     0.16082   0.45140   0.20588   0.00000  Uiso   1.00
C19    C     0.13031   0.09481   0.26798   0.00000  Uiso   1.00
C20    C     0.16047   0.40575   0.20715   0.00000  Uiso   1.00
C21    C     0.16842   0.11703   0.24780   0.00000  Uiso   1.00
C22    C     0.16370   0.38407   0.25172   0.00000  Uiso   1.00
C23    C     0.20612   0.09310   0.22589   0.00000  Uiso   1.00
C24    C     0.16637   0.40964   0.29585   0.00000  Uiso   1.00
C25    C     0.20641   0.04681   0.22618   0.00000  Uiso   1.00
C26    C     0.16984   0.45580   0.29463   0.00000  Uiso   1.00
C27    C     0.16709   0.02483   0.24634   0.00000  Uiso   1.00
C28    C     0.16629   0.47661   0.24918   0.00000  Uiso   1.00
Cu29   Cu    0.16667   0.24999   0.29822   0.00000  Uiso   1.00
Cu30   Cu    0.16667   0.25000   0.20179   0.00000  Uiso   1.00
H31    H     0.32588   0.25358   0.19364   0.00000  Uiso   1.00
H32    H     0.00744   0.25053   0.30655   0.00000  Uiso   1.00
H33    H     0.09875   0.03254   0.28173   0.00000  Uiso   1.00
H34    H     0.15761   0.46723   0.17092   0.00000  Uiso   1.00
H35    H     0.10131   0.11289   0.28488   0.00000  Uiso   1.00
H36    H     0.15749   0.38740   0.17279   0.00000  Uiso   1.00
H37    H     0.23381   0.20928   0.04219   0.00000  Uiso   1.00
H38    H     0.09470   0.21641   0.45507   0.00000  Uiso   1.00
H39    H     0.23341   0.20987   0.13129   0.00000  Uiso   1.00
H40    H     0.09550   0.21631   0.36620   0.00000  Uiso   1.00
H41    H     0.10005   0.29049   0.11795   0.00000  Uiso   1.00
H42    H     0.23826   0.28293   0.38518   0.00000  Uiso   1.00
N43    N     0.16667   0.25001   0.12934   0.00000  Uiso   1.00
N44    N     0.16667   0.24999   0.37066   0.00000  Uiso   1.00
O45    O     0.16667   0.18572   0.29072   0.00000  Uiso   1.00
O46    O     0.16666   0.31427   0.20929   0.00000  Uiso   1.00
O47    O     0.16667   0.18573   0.20928   0.00000  Uiso   1.00
O48    O     0.16666   0.31427   0.29072   0.00000  Uiso   1.00
O49    O     0.09161   0.24999   0.28132   0.00000  Uiso   1.00
O50    O     0.24172   0.25000   0.21868   0.00000  Uiso   1.00
O51    O     0.09161   0.25000   0.19989   0.00000  Uiso   1.00
O52    O     0.24172   0.25000   0.30012   0.00000  Uiso   1.00
C53    C     0.24895   0.11539   0.20695   0.00000  Uiso   1.00
C54    C     0.25069   0.11607   0.15652   0.00000  Uiso   1.00
C55    C     0.29396   0.13282   0.13888   0.00000  Uiso   1.00
C56    C     0.00246   0.14852   0.17149   0.00000  Uiso   1.00
C57    C     0.00099   0.14758   0.22173   0.00000  Uiso   1.00
C58    C     0.29090   0.13143   0.23950   0.00000  Uiso   1.00
H59    H     0.21889   0.10315   0.13102   0.00000  Uiso   1.00
H60    H     0.29516   0.13342   0.09998   0.00000  Uiso   1.00
H61    H     0.03606   0.16130   0.15789   0.00000  Uiso   1.00
H62    H     0.03348   0.15946   0.24696   0.00000  Uiso   1.00
H63    H     0.29049   0.13037   0.27853   0.00000  Uiso   1.00
C64    C     0.16449   0.39016   0.34409   0.00000  Uiso   1.00
C65    C     0.11748   0.37479   0.35606   0.00000  Uiso   1.00
C66    C     0.11383   0.36223   0.40370   0.00000  Uiso   1.00
C67    C     0.15679   0.36559   0.43973   0.00000  Uiso   1.00
C68    C     0.20386   0.38020   0.42788   0.00000  Uiso   1.00
C69    C     0.20786   0.39227   0.38019   0.00000  Uiso   1.00
H70    H     0.08353   0.37354   0.32879   0.00000  Uiso   1.00
H71    H     0.07748   0.35064   0.41288   0.00000  Uiso   1.00
H72    H     0.15382   0.35662   0.47681   0.00000  Uiso   1.00
H73    H     0.23715   0.38252   0.45578   0.00000  Uiso   1.00
H74    H     0.24421   0.40455   0.37167   0.00000  Uiso   1.00
O75    O     0.24666   0.02470   0.20829   0.00000  Uiso   1.00
H76    H     0.24957   0.49432   0.22051   0.00000  Uiso   1.00
O77    O     0.17610   0.47939   0.33854   0.00000  Uiso   1.00
H78    H     0.19248   0.00803   0.33435   0.00000  Uiso   1.00
O79    O     0.08811   0.29811   0.02431   0.00000  Uiso   1.00
H80    H     0.09266   0.29882   0.48953   0.00000  Uiso   1.00
O81    O     0.25080   0.28896   0.47934   0.00000  Uiso   1.00
H82    H     0.24394   0.29372   0.01332   0.00000  Uiso   1.00
C83    C     0.50096   0.16507   0.24947   0.00000  Uiso   1.00
C84    C     0.49879   0.33531   0.25057   0.00000  Uiso   1.00
C85    C     0.53719   0.22740   0.05769   0.00000  Uiso   1.00
C86    C     0.46010   0.23130   0.44081   0.00000  Uiso   1.00
C87    C     0.53701   0.22759   0.10847   0.00000  Uiso   1.00
C88    C     0.46044   0.23137   0.39005   0.00000  Uiso   1.00
C89    C     0.46236   0.27261   0.10086   0.00000  Uiso   1.00
C90    C     0.54050   0.26803   0.40082   0.00000  Uiso   1.00
C91    C     0.46062   0.27367   0.04976   0.00000  Uiso   1.00
C92    C     0.54225   0.26880   0.45200   0.00000  Uiso   1.00
C93    C     0.49913   0.25062   0.02722   0.00000  Uiso   1.00
C94    C     0.50074   0.25045   0.47287   0.00000  Uiso   1.00
C95    C     0.40121   0.25106   0.23757   0.00000  Uiso   1.00
C96    C     0.59880   0.25057   0.26249   0.00000  Uiso   1.00
C97    C     0.34593   0.25268   0.23075   0.00000  Uiso   1.00
C98    C     0.65406   0.25154   0.26945   0.00000  Uiso   1.00
C99    C     0.46226   0.04915   0.26625   0.00000  Uiso   1.00
C100   C     0.49415   0.45140   0.20588   0.00000  Uiso   1.00
C101   C     0.46364   0.09481   0.26798   0.00000  Uiso   1.00
C102   C     0.49380   0.40575   0.20715   0.00000  Uiso   1.00
C103   C     0.50175   0.11703   0.24780   0.00000  Uiso   1.00
C104   C     0.49704   0.38407   0.25172   0.00000  Uiso   1.00
C105   C     0.53945   0.09310   0.22589   0.00000  Uiso   1.00
C106   C     0.49970   0.40964   0.29585   0.00000  Uiso   1.00
C107   C     0.53974   0.04681   0.22618   0.00000  Uiso   1.00
C108   C     0.50318   0.45580   0.29463   0.00000  Uiso   1.00
C109   C     0.50042   0.02483   0.24634   0.00000  Uiso   1.00
C110   C     0.49962   0.47661   0.24918   0.00000  Uiso   1.00
Cu111  Cu    0.50000   0.24999   0.29822   0.00000  Uiso   1.00
Cu112  Cu    0.50000   0.25000   0.20179   0.00000  Uiso   1.00
H113   H     0.65921   0.25358   0.19364   0.00000  Uiso   1.00
H114   H     0.34077   0.25053   0.30655   0.00000  Uiso   1.00
H115   H     0.43208   0.03254   0.28173   0.00000  Uiso   1.00
H116   H     0.49095   0.46723   0.17092   0.00000  Uiso   1.00
H117   H     0.43464   0.11289   0.28488   0.00000  Uiso   1.00
H118   H     0.49083   0.38740   0.17279   0.00000  Uiso   1.00
H119   H     0.56715   0.20928   0.04219   0.00000  Uiso   1.00
H120   H     0.42804   0.21641   0.45507   0.00000  Uiso   1.00
H121   H     0.56674   0.20987   0.13129   0.00000  Uiso   1.00
H122   H     0.42884   0.21631   0.36620   0.00000  Uiso   1.00
H123   H     0.43338   0.29049   0.11795   0.00000  Uiso   1.00
H124   H     0.57159   0.28293   0.38518   0.00000  Uiso   1.00
N125   N     0.50000   0.25001   0.12934   0.00000  Uiso   1.00
N126   N     0.50000   0.24999   0.37066   0.00000  Uiso   1.00
O127   O     0.50000   0.18572   0.29072   0.00000  Uiso   1.00
O128   O     0.50000   0.31427   0.20929   0.00000  Uiso   1.00
O129   O     0.50000   0.18573   0.20928   0.00000  Uiso   1.00
O130   O     0.50000   0.31427   0.29072   0.00000  Uiso   1.00
O131   O     0.42495   0.24999   0.28132   0.00000  Uiso   1.00
O132   O     0.57505   0.25000   0.21868   0.00000  Uiso   1.00
O133   O     0.42495   0.25000   0.19989   0.00000  Uiso   1.00
O134   O     0.57505   0.25000   0.30012   0.00000  Uiso   1.00
C135   C     0.58228   0.11539   0.20695   0.00000  Uiso   1.00
C136   C     0.58402   0.11607   0.15652   0.00000  Uiso   1.00
C137   C     0.62729   0.13282   0.13888   0.00000  Uiso   1.00
C138   C     0.33580   0.14852   0.17149   0.00000  Uiso   1.00
C139   C     0.33432   0.14758   0.22173   0.00000  Uiso   1.00
C140   C     0.62424   0.13143   0.23950   0.00000  Uiso   1.00
H141   H     0.55223   0.10315   0.13102   0.00000  Uiso   1.00
H142   H     0.62849   0.13342   0.09998   0.00000  Uiso   1.00
H143   H     0.36939   0.16130   0.15789   0.00000  Uiso   1.00
H144   H     0.36681   0.15946   0.24696   0.00000  Uiso   1.00
H145   H     0.62383   0.13037   0.27853   0.00000  Uiso   1.00
C146   C     0.49783   0.39016   0.34409   0.00000  Uiso   1.00
C147   C     0.45082   0.37479   0.35606   0.00000  Uiso   1.00
C148   C     0.44716   0.36223   0.40370   0.00000  Uiso   1.00
C149   C     0.49012   0.36559   0.43973   0.00000  Uiso   1.00
C150   C     0.53720   0.38020   0.42788   0.00000  Uiso   1.00
C151   C     0.54119   0.39227   0.38019   0.00000  Uiso   1.00
H152   H     0.41686   0.37354   0.32879   0.00000  Uiso   1.00
H153   H     0.41082   0.35064   0.41288   0.00000  Uiso   1.00
H154   H     0.48715   0.35662   0.47681   0.00000  Uiso   1.00
H155   H     0.57049   0.38252   0.45578   0.00000  Uiso   1.00
H156   H     0.57754   0.40455   0.37167   0.00000  Uiso   1.00
O157   O     0.57999   0.02470   0.20829   0.00000  Uiso   1.00
H158   H     0.58291   0.49432   0.22051   0.00000  Uiso   1.00
O159   O     0.50944   0.47939   0.33854   0.00000  Uiso   1.00
H160   H     0.52581   0.00803   0.33435   0.00000  Uiso   1.00
O161   O     0.42144   0.29811   0.02431   0.00000  Uiso   1.00
H162   H     0.42599   0.29882   0.48953   0.00000  Uiso   1.00
O163   O     0.58414   0.28896   0.47934   0.00000  Uiso   1.00
H164   H     0.57728   0.29372   0.01332   0.00000  Uiso   1.00
C165   C     0.83430   0.16507   0.24947   0.00000  Uiso   1.00
C166   C     0.83213   0.33531   0.25057   0.00000  Uiso   1.00
C167   C     0.87052   0.22740   0.05769   0.00000  Uiso   1.00
C168   C     0.79344   0.23130   0.44081   0.00000  Uiso   1.00
C169   C     0.87034   0.22759   0.10847   0.00000  Uiso   1.00
C170   C     0.79377   0.23137   0.39005   0.00000  Uiso   1.00
C171   C     0.79569   0.27261   0.10086   0.00000  Uiso   1.00
C172   C     0.87383   0.26803   0.40082   0.00000  Uiso   1.00
C173   C     0.79396   0.27367   0.04976   0.00000  Uiso   1.00
C174   C     0.87558   0.26880   0.45200   0.00000  Uiso   1.00
C175   C     0.83246   0.25062   0.02722   0.00000  Uiso   1.00
C176   C     0.83407   0.25045   0.47287   0.00000  Uiso   1.00
C177   C     0.73454   0.25106   0.23757   0.00000  Uiso   1.00
C178   C     0.93213   0.25057   0.26249   0.00000  Uiso   1.00
C179   C     0.67926   0.25268   0.23075   0.00000  Uiso   1.00
C180   C     0.98740   0.25154   0.26945   0.00000  Uiso   1.00
C181   C     0.79559   0.04915   0.26625   0.00000  Uiso   1.00
C182   C     0.82749   0.45140   0.20588   0.00000  Uiso   1.00
C183   C     0.79697   0.09481   0.26798   0.00000  Uiso   1.00
C184   C     0.82713   0.40575   0.20715   0.00000  Uiso   1.00
C185   C     0.83509   0.11703   0.24780   0.00000  Uiso   1.00
C186   C     0.83037   0.38407   0.25172   0.00000  Uiso   1.00
C187   C     0.87278   0.09310   0.22589   0.00000  Uiso   1.00
C188   C     0.83303   0.40964   0.29585   0.00000  Uiso   1.00
C189   C     0.87307   0.04681   0.22618   0.00000  Uiso   1.00
C190   C     0.83651   0.45580   0.29463   0.00000  Uiso   1.00
C191   C     0.83376   0.02483   0.24634   0.00000  Uiso   1.00
C192   C     0.83295   0.47661   0.24918   0.00000  Uiso   1.00
Cu193  Cu    0.83333   0.24999   0.29822   0.00000  Uiso   1.00
Cu194  Cu    0.83333   0.25000   0.20179   0.00000  Uiso   1.00
H195   H     0.99255   0.25358   0.19364   0.00000  Uiso   1.00
H196   H     0.67410   0.25053   0.30655   0.00000  Uiso   1.00
H197   H     0.76541   0.03254   0.28173   0.00000  Uiso   1.00
H198   H     0.82428   0.46723   0.17092   0.00000  Uiso   1.00
H199   H     0.76797   0.11289   0.28488   0.00000  Uiso   1.00
H200   H     0.82416   0.38740   0.17279   0.00000  Uiso   1.00
H201   H     0.90048   0.20928   0.04219   0.00000  Uiso   1.00
H202   H     0.76137   0.21641   0.45507   0.00000  Uiso   1.00
H203   H     0.90008   0.20987   0.13129   0.00000  Uiso   1.00
H204   H     0.76217   0.21631   0.36620   0.00000  Uiso   1.00
H205   H     0.76672   0.29049   0.11795   0.00000  Uiso   1.00
H206   H     0.90493   0.28293   0.38518   0.00000  Uiso   1.00
N207   N     0.83333   0.25001   0.12934   0.00000  Uiso   1.00
N208   N     0.83333   0.24999   0.37066   0.00000  Uiso   1.00
O209   O     0.83334   0.18572   0.29072   0.00000  Uiso   1.00
O210   O     0.83333   0.31427   0.20929   0.00000  Uiso   1.00
O211   O     0.83334   0.18573   0.20928   0.00000  Uiso   1.00
O212   O     0.83333   0.31427   0.29072   0.00000  Uiso   1.00
O213   O     0.75828   0.24999   0.28132   0.00000  Uiso   1.00
O214   O     0.90839   0.25000   0.21868   0.00000  Uiso   1.00
O215   O     0.75828   0.25000   0.19989   0.00000  Uiso   1.00
O216   O     0.90839   0.25000   0.30012   0.00000  Uiso   1.00
C217   C     0.91562   0.11539   0.20695   0.00000  Uiso   1.00
C218   C     0.91736   0.11607   0.15652   0.00000  Uiso   1.00
C219   C     0.96063   0.13282   0.13888   0.00000  Uiso   1.00
C220   C     0.66913   0.14852   0.17149   0.00000  Uiso   1.00
C221   C     0.66765   0.14758   0.22173   0.00000  Uiso   1.00
C222   C     0.95757   0.13143   0.23950   0.00000  Uiso   1.00
H223   H     0.88556   0.10315   0.13102   0.00000  Uiso   1.00
H224   H     0.96183   0.13342   0.09998   0.00000  Uiso   1.00
H225   H     0.70273   0.16130   0.15789   0.00000  Uiso   1.00
H226   H     0.70014   0.15946   0.24696   0.00000  Uiso   1.00
H227   H     0.95716   0.13037   0.27853   0.00000  Uiso   1.00
C228   C     0.83116   0.39016   0.34409   0.00000  Uiso   1.00
C229   C     0.78415   0.37479   0.35606   0.00000  Uiso   1.00
C230   C     0.78050   0.36223   0.40370   0.00000  Uiso   1.00
C231   C     0.82345   0.36559   0.43973   0.00000  Uiso   1.00
C232   C     0.87053   0.38020   0.42788   0.00000  Uiso   1.00
C233   C     0.87452   0.39227   0.38019   0.00000  Uiso   1.00
H234   H     0.75019   0.37354   0.32879   0.00000  Uiso   1.00
H235   H     0.74415   0.35064   0.41288   0.00000  Uiso   1.00
H236   H     0.82049   0.35662   0.47681   0.00000  Uiso   1.00
H237   H     0.90382   0.38252   0.45578   0.00000  Uiso   1.00
H238   H     0.91087   0.40455   0.37167   0.00000  Uiso   1.00
O239   O     0.91333   0.02470   0.20829   0.00000  Uiso   1.00
H240   H     0.91624   0.49432   0.22051   0.00000  Uiso   1.00
O241   O     0.84277   0.47939   0.33854   0.00000  Uiso   1.00
H242   H     0.85914   0.00803   0.33435   0.00000  Uiso   1.00
O243   O     0.75478   0.29811   0.02431   0.00000  Uiso   1.00
H244   H     0.75933   0.29882   0.48953   0.00000  Uiso   1.00
O245   O     0.91747   0.28896   0.47934   0.00000  Uiso   1.00
H246   H     0.91061   0.29372   0.01332   0.00000  Uiso   1.00
C247   C     0.16763   0.66507   0.24947   0.00000  Uiso   1.00
C248   C     0.16546   0.83531   0.25057   0.00000  Uiso   1.00
C249   C     0.20385   0.72740   0.05769   0.00000  Uiso   1.00
C250   C     0.12677   0.73130   0.44081   0.00000  Uiso   1.00
C251   C     0.20367   0.72759   0.10847   0.00000  Uiso   1.00
C252   C     0.12711   0.73137   0.39005   0.00000  Uiso   1.00
C253   C     0.12903   0.77261   0.10086   0.00000  Uiso   1.00
C254   C     0.20716   0.76803   0.40082   0.00000  Uiso   1.00
C255   C     0.12729   0.77367   0.04976   0.00000  Uiso   1.00
C256   C     0.20891   0.76880   0.45200   0.00000  Uiso   1.00
C257   C     0.16580   0.75062   0.02722   0.00000  Uiso   1.00
C258   C     0.16741   0.75045   0.47287   0.00000  Uiso   1.00
C259   C     0.06788   0.75106   0.23757   0.00000  Uiso   1.00
C260   C     0.26546   0.75057   0.26249   0.00000  Uiso   1.00
C261   C     0.01260   0.75268   0.23075   0.00000  Uiso   1.00
C262   C     0.32073   0.75154   0.26945   0.00000  Uiso   1.00
C263   C     0.12892   0.54915   0.26625   0.00000  Uiso   1.00
C264   C     0.16082   0.95140   0.20588   0.00000  Uiso   1.00
C265   C     0.13031   0.59481   0.26798   0.00000  Uiso   1.00
C266   C     0.16047   0.90575   0.20715   0.00000  Uiso   1.00
C267   C     0.16842   0.61703   0.24780   0.00000  Uiso   1.00
C268   C     0.16370   0.88407   0.25172   0.00000  Uiso   1.00
C269   C     0.20612   0.59310   0.22589   0.00000  Uiso   1.00
C270   C     0.16637   0.90964   0.29585   0.00000  Uiso   1.00
C271   C     0.20641   0.54681   0.22618   0.00000  Uiso   1.00
C272   C     0.16984   0.95580   0.29463   0.00000  Uiso   1.00
C273   C     0.16709   0.52483   0.24634   0.00000  Uiso   1.00
C274   C     0.16629   0.97661   0.24918   0.00000  Uiso   1.00
Cu275  Cu    0.16667   0.74999   0.29822   0.00000  Uiso   1.00
Cu276  Cu    0.16667   0.75000   0.20179   0.00000  Uiso   1.00
H277   H     0.32588   0.75358   0.19364   0.00000  Uiso   1.00
H278   H     0.00744   0.75053   0.30655   0.00000  Uiso   1.00
H279   H     0.09875   0.53254   0.28173   0.00000  Uiso   1.00
H280   H     0.15761   0.96723   0.17092   0.00000  Uiso   1.00
H281   H     0.10131   0.61289   0.28488   0.00000  Uiso   1.00
H282   H     0.15749   0.88740   0.17279   0.00000  Uiso   1.00
H283   H     0.23381   0.70928   0.04219   0.00000  Uiso   1.00
H284   H     0.09470   0.71641   0.45507   0.00000  Uiso   1.00
H285   H     0.23341   0.70987   0.13129   0.00000  Uiso   1.00
H286   H     0.09550   0.71631   0.36620   0.00000  Uiso   1.00
H287   H     0.10005   0.79049   0.11795   0.00000  Uiso   1.00
H288   H     0.23826   0.78293   0.38518   0.00000  Uiso   1.00
N289   N     0.16667   0.75001   0.12934   0.00000  Uiso   1.00
N290   N     0.16667   0.74999   0.37066   0.00000  Uiso   1.00
O291   O     0.16667   0.68572   0.29072   0.00000  Uiso   1.00
O292   O     0.16666   0.81427   0.20929   0.00000  Uiso   1.00
O293   O     0.16667   0.68573   0.20928   0.00000  Uiso   1.00
O294   O     0.16666   0.81427   0.29072   0.00000  Uiso   1.00
O295   O     0.09161   0.74999   0.28132   0.00000  Uiso   1.00
O296   O     0.24172   0.75000   0.21868   0.00000  Uiso   1.00
O297   O     0.09161   0.75000   0.19989   0.00000  Uiso   1.00
O298   O     0.24172   0.75000   0.30012   0.00000  Uiso   1.00
C299   C     0.24895   0.61539   0.20695   0.00000  Uiso   1.00
C300   C     0.25069   0.61607   0.15652   0.00000  Uiso   1.00
C301   C     0.29396   0.63282   0.13888   0.00000  Uiso   1.00
C302   C     0.00246   0.64852   0.17149   0.00000  Uiso   1.00
C303   C     0.00099   0.64758   0.22173   0.00000  Uiso   1.00
C304   C     0.29090   0.63143   0.23950   0.00000  Uiso   1.00
H305   H     0.21889   0.60315   0.13102   0.00000  Uiso   1.00
H306   H     0.29516   0.63342   0.09998   0.00000  Uiso   1.00
H307   H     0.03606   0.66130   0.15789   0.00000  Uiso   1.00
H308   H     0.03348   0.65946   0.24696   0.00000  Uiso   1.00
H309   H     0.29049   0.63037   0.27853   0.00000  Uiso   1.00
C310   C     0.16449   0.89016   0.34409   0.00000  Uiso   1.00
C311   C     0.11748   0.87479   0.35606   0.00000  Uiso   1.00
C312   C     0.11383   0.86223   0.40370   0.00000  Uiso   1.00
C313   C     0.15679   0.86559   0.43973   0.00000  Uiso   1.00
C314   C     0.20386   0.88020   0.42788   0.00000  Uiso   1.00
C315   C     0.20786   0.89227   0.38019   0.00000  Uiso   1.00
H316   H     0.08353   0.87354   0.32879   0.00000  Uiso   1.00
H317   H     0.07748   0.85064   0.41288   0.00000  Uiso   1.00
H318   H     0.15382   0.85662   0.47681   0.00000  Uiso   1.00
H319   H     0.23715   0.88252   0.45578   0.00000  Uiso   1.00
H320   H     0.24421   0.90455   0.37167   0.00000  Uiso   1.00
O321   O     0.24666   0.52470   0.20829   0.00000  Uiso   1.00
H322   H     0.24957   0.99432   0.22051   0.00000  Uiso   1.00
O323   O     0.17610   0.97939   0.33854   0.00000  Uiso   1.00
H324   H     0.19248   0.50803   0.33435   0.00000  Uiso   1.00
O325   O     0.08811   0.79811   0.02431   0.00000  Uiso   1.00
H326   H     0.09266   0.79882   0.48953   0.00000  Uiso   1.00
O327   O     0.25080   0.78896   0.47934   0.00000  Uiso   1.00
H328   H     0.24394   0.79372   0.01332   0.00000  Uiso   1.00
C329   C     0.50096   0.66507   0.24947   0.00000  Uiso   1.00
C330   C     0.49879   0.83531   0.25057   0.00000  Uiso   1.00
C331   C     0.53719   0.72740   0.05769   0.00000  Uiso   1.00
C332   C     0.46010   0.73130   0.44081   0.00000  Uiso   1.00
C333   C     0.53701   0.72759   0.10847   0.00000  Uiso   1.00
C334   C     0.46044   0.73137   0.39005   0.00000  Uiso   1.00
C335   C     0.46236   0.77261   0.10086   0.00000  Uiso   1.00
C336   C     0.54050   0.76803   0.40082   0.00000  Uiso   1.00
C337   C     0.46062   0.77367   0.04976   0.00000  Uiso   1.00
C338   C     0.54225   0.76880   0.45200   0.00000  Uiso   1.00
C339   C     0.49913   0.75062   0.02722   0.00000  Uiso   1.00
C340   C     0.50074   0.75045   0.47287   0.00000  Uiso   1.00
C341   C     0.40121   0.75106   0.23757   0.00000  Uiso   1.00
C342   C     0.59880   0.75057   0.26249   0.00000  Uiso   1.00
C343   C     0.34593   0.75268   0.23075   0.00000  Uiso   1.00
C344   C     0.65406   0.75154   0.26945   0.00000  Uiso   1.00
C345   C     0.46226   0.54915   0.26625   0.00000  Uiso   1.00
C346   C     0.49415   0.95140   0.20588   0.00000  Uiso   1.00
C347   C     0.46364   0.59481   0.26798   0.00000  Uiso   1.00
C348   C     0.49380   0.90575   0.20715   0.00000  Uiso   1.00
C349   C     0.50175   0.61703   0.24780   0.00000  Uiso   1.00
C350   C     0.49704   0.88407   0.25172   0.00000  Uiso   1.00
C351   C     0.53945   0.59310   0.22589   0.00000  Uiso   1.00
C352   C     0.49970   0.90964   0.29585   0.00000  Uiso   1.00
C353   C     0.53974   0.54681   0.22618   0.00000  Uiso   1.00
C354   C     0.50318   0.95580   0.29463   0.00000  Uiso   1.00
C355   C     0.50042   0.52483   0.24634   0.00000  Uiso   1.00
C356   C     0.49962   0.97661   0.24918   0.00000  Uiso   1.00
Cu357  Cu    0.50000   0.74999   0.29822   0.00000  Uiso   1.00
Cu358  Cu    0.50000   0.75000   0.20179   0.00000  Uiso   1.00
H359   H     0.65921   0.75358   0.19364   0.00000  Uiso   1.00
H360   H     0.34077   0.75053   0.30655   0.00000  Uiso   1.00
H361   H     0.43208   0.53254   0.28173   0.00000  Uiso   1.00
H362   H     0.49095   0.96723   0.17092   0.00000  Uiso   1.00
H363   H     0.43464   0.61289   0.28488   0.00000  Uiso   1.00
H364   H     0.49083   0.88740   0.17279   0.00000  Uiso   1.00
H365   H     0.56715   0.70928   0.04219   0.00000  Uiso   1.00
H366   H     0.42804   0.71641   0.45507   0.00000  Uiso   1.00
H367   H     0.56674   0.70987   0.13129   0.00000  Uiso   1.00
H368   H     0.42884   0.71631   0.36620   0.00000  Uiso   1.00
H369   H     0.43338   0.79049   0.11795   0.00000  Uiso   1.00
H370   H     0.57159   0.78293   0.38518   0.00000  Uiso   1.00
N371   N     0.50000   0.75001   0.12934   0.00000  Uiso   1.00
N372   N     0.50000   0.74999   0.37066   0.00000  Uiso   1.00
O373   O     0.50000   0.68572   0.29072   0.00000  Uiso   1.00
O374   O     0.50000   0.81427   0.20929   0.00000  Uiso   1.00
O375   O     0.50000   0.68573   0.20928   0.00000  Uiso   1.00
O376   O     0.50000   0.81427   0.29072   0.00000  Uiso   1.00
O377   O     0.42495   0.74999   0.28132   0.00000  Uiso   1.00
O378   O     0.57505   0.75000   0.21868   0.00000  Uiso   1.00
O379   O     0.42495   0.75000   0.19989   0.00000  Uiso   1.00
O380   O     0.57505   0.75000   0.30012   0.00000  Uiso   1.00
C381   C     0.58228   0.61539   0.20695   0.00000  Uiso   1.00
C382   C     0.58402   0.61607   0.15652   0.00000  Uiso   1.00
C383   C     0.62729   0.63282   0.13888   0.00000  Uiso   1.00
C384   C     0.33580   0.64852   0.17149   0.00000  Uiso   1.00
C385   C     0.33432   0.64758   0.22173   0.00000  Uiso   1.00
C386   C     0.62424   0.63143   0.23950   0.00000  Uiso   1.00
H387   H     0.55223   0.60315   0.13102   0.00000  Uiso   1.00
H388   H     0.62849   0.63342   0.09998   0.00000  Uiso   1.00
H389   H     0.36939   0.66130   0.15789   0.00000  Uiso   1.00
H390   H     0.36681   0.65946   0.24696   0.00000  Uiso   1.00
H391   H     0.62383   0.63037   0.27853   0.00000  Uiso   1.00
C392   C     0.49783   0.89016   0.34409   0.00000  Uiso   1.00
C393   C     0.45082   0.87479   0.35606   0.00000  Uiso   1.00
C394   C     0.44716   0.86223   0.40370   0.00000  Uiso   1.00
C395   C     0.49012   0.86559   0.43973   0.00000  Uiso   1.00
C396   C     0.53720   0.88020   0.42788   0.00000  Uiso   1.00
C397   C     0.54119   0.89227   0.38019   0.00000  Uiso   1.00
H398   H     0.41686   0.87354   0.32879   0.00000  Uiso   1.00
H399   H     0.41082   0.85064   0.41288   0.00000  Uiso   1.00
H400   H     0.48715   0.85662   0.47681   0.00000  Uiso   1.00
H401   H     0.57049   0.88252   0.45578   0.00000  Uiso   1.00
H402   H     0.57754   0.90455   0.37167   0.00000  Uiso   1.00
O403   O     0.57999   0.52470   0.20829   0.00000  Uiso   1.00
H404   H     0.58291   0.99432   0.22051   0.00000  Uiso   1.00
O405   O     0.50944   0.97939   0.33854   0.00000  Uiso   1.00
H406   H     0.52581   0.50803   0.33435   0.00000  Uiso   1.00
O407   O     0.42144   0.79811   0.02431   0.00000  Uiso   1.00
H408   H     0.42599   0.79882   0.48953   0.00000  Uiso   1.00
O409   O     0.58414   0.78896   0.47934   0.00000  Uiso   1.00
H410   H     0.57728   0.79372   0.01332   0.00000  Uiso   1.00
C411   C     0.83430   0.66507   0.24947   0.00000  Uiso   1.00
C412   C     0.83213   0.83531   0.25057   0.00000  Uiso   1.00
C413   C     0.87052   0.72740   0.05769   0.00000  Uiso   1.00
C414   C     0.79344   0.73130   0.44081   0.00000  Uiso   1.00
C415   C     0.87034   0.72759   0.10847   0.00000  Uiso   1.00
C416   C     0.79377   0.73137   0.39005   0.00000  Uiso   1.00
C417   C     0.79569   0.77261   0.10086   0.00000  Uiso   1.00
C418   C     0.87383   0.76803   0.40082   0.00000  Uiso   1.00
C419   C     0.79396   0.77367   0.04976   0.00000  Uiso   1.00
C420   C     0.87558   0.76880   0.45200   0.00000  Uiso   1.00
C421   C     0.83246   0.75062   0.02722   0.00000  Uiso   1.00
C422   C     0.83407   0.75045   0.47287   0.00000  Uiso   1.00
C423   C     0.73454   0.75106   0.23757   0.00000  Uiso   1.00
C424   C     0.93213   0.75057   0.26249   0.00000  Uiso   1.00
C425   C     0.67926   0.75268   0.23075   0.00000  Uiso   1.00
C426   C     0.98740   0.75154   0.26945   0.00000  Uiso   1.00
C427   C     0.79559   0.54915   0.26625   0.00000  Uiso   1.00
C428   C     0.82749   0.95140   0.20588   0.00000  Uiso   1.00
C429   C     0.79697   0.59481   0.26798   0.00000  Uiso   1.00
C430   C     0.82713   0.90575   0.20715   0.00000  Uiso   1.00
C431   C     0.83509   0.61703   0.24780   0.00000  Uiso   1.00
C432   C     0.83037   0.88407   0.25172   0.00000  Uiso   1.00
C433   C     0.87278   0.59310   0.22589   0.00000  Uiso   1.00
C434   C     0.83303   0.90964   0.29585   0.00000  Uiso   1.00
C435   C     0.87307   0.54681   0.22618   0.00000  Uiso   1.00
C436   C     0.83651   0.95580   0.29463   0.00000  Uiso   1.00
C437   C     0.83376   0.52483   0.24634   0.00000  Uiso   1.00
C438   C     0.83295   0.97661   0.24918   0.00000  Uiso   1.00
Cu439  Cu    0.83333   0.74999   0.29822   0.00000  Uiso   1.00
Cu440  Cu    0.83333   0.75000   0.20179   0.00000  Uiso   1.00
H441   H     0.99255   0.75358   0.19364   0.00000  Uiso   1.00
H442   H     0.67410   0.75053   0.30655   0.00000  Uiso   1.00
H443   H     0.76541   0.53254   0.28173   0.00000  Uiso   1.00
H444   H     0.82428   0.96723   0.17092   0.00000  Uiso   1.00
H445   H     0.76797   0.61289   0.28488   0.00000  Uiso   1.00
H446   H     0.82416   0.88740   0.17279   0.00000  Uiso   1.00
H447   H     0.90048   0.70928   0.04219   0.00000  Uiso   1.00
H448   H     0.76137   0.71641   0.45507   0.00000  Uiso   1.00
H449   H     0.90008   0.70987   0.13129   0.00000  Uiso   1.00
H450   H     0.76217   0.71631   0.36620   0.00000  Uiso   1.00
H451   H     0.76672   0.79049   0.11795   0.00000  Uiso   1.00
H452   H     0.90493   0.78293   0.38518   0.00000  Uiso   1.00
N453   N     0.83333   0.75001   0.12934   0.00000  Uiso   1.00
N454   N     0.83333   0.74999   0.37066   0.00000  Uiso   1.00
O455   O     0.83334   0.68572   0.29072   0.00000  Uiso   1.00
O456   O     0.83333   0.81427   0.20929   0.00000  Uiso   1.00
O457   O     0.83334   0.68573   0.20928   0.00000  Uiso   1.00
O458   O     0.83333   0.81427   0.29072   0.00000  Uiso   1.00
O459   O     0.75828   0.74999   0.28132   0.00000  Uiso   1.00
O460   O     0.90839   0.75000   0.21868   0.00000  Uiso   1.00
O461   O     0.75828   0.75000   0.19989   0.00000  Uiso   1.00
O462   O     0.90839   0.75000   0.30012   0.00000  Uiso   1.00
C463   C     0.91562   0.61539   0.20695   0.00000  Uiso   1.00
C464   C     0.91736   0.61607   0.15652   0.00000  Uiso   1.00
C465   C     0.96063   0.63282   0.13888   0.00000  Uiso   1.00
C466   C     0.66913   0.64852   0.17149   0.00000  Uiso   1.00
C467   C     0.66765   0.64758   0.22173   0.00000  Uiso   1.00
C468   C     0.95757   0.63143   0.23950   0.00000  Uiso   1.00
H469   H     0.88556   0.60315   0.13102   0.00000  Uiso   1.00
H470   H     0.96183   0.63342   0.09998   0.00000  Uiso   1.00
H471   H     0.70273   0.66130   0.15789   0.00000  Uiso   1.00
H472   H     0.70014   0.65946   0.24696   0.00000  Uiso   1.00
H473   H     0.95716   0.63037   0.27853   0.00000  Uiso   1.00
C474   C     0.83116   0.89016   0.34409   0.00000  Uiso   1.00
C475   C     0.78415   0.87479   0.35606   0.00000  Uiso   1.00
C476   C     0.78050   0.86223   0.40370   0.00000  Uiso   1.00
C477   C     0.82345   0.86559   0.43973   0.00000  Uiso   1.00
C478   C     0.87053   0.88020   0.42788   0.00000  Uiso   1.00
C479   C     0.87452   0.89227   0.38019   0.00000  Uiso   1.00
H480   H     0.75019   0.87354   0.32879   0.00000  Uiso   1.00
H481   H     0.74415   0.85064   0.41288   0.00000  Uiso   1.00
H482   H     0.82049   0.85662   0.47681   0.00000  Uiso   1.00
H483   H     0.90382   0.88252   0.45578   0.00000  Uiso   1.00
H484   H     0.91087   0.90455   0.37167   0.00000  Uiso   1.00
O485   O     0.91333   0.52470   0.20829   0.00000  Uiso   1.00
H486   H     0.91624   0.99432   0.22051   0.00000  Uiso   1.00
O487   O     0.84277   0.97939   0.33854   0.00000  Uiso   1.00
H488   H     0.85914   0.50803   0.33435   0.00000  Uiso   1.00
O489   O     0.75478   0.79811   0.02431   0.00000  Uiso   1.00
H490   H     0.75933   0.79882   0.48953   0.00000  Uiso   1.00
O491   O     0.91747   0.78896   0.47934   0.00000  Uiso   1.00
H492   H     0.91061   0.79372   0.01332   0.00000  Uiso   1.00
C493   C     0.16763   0.16507   0.74947   0.00000  Uiso   1.00
C494   C     0.16546   0.33531   0.75057   0.00000  Uiso   1.00
C495   C     0.20385   0.22740   0.55769   0.00000  Uiso   1.00
C496   C     0.12677   0.23130   0.94081   0.00000  Uiso   1.00
C497   C     0.20367   0.22759   0.60847   0.00000  Uiso   1.00
C498   C     0.12711   0.23137   0.89005   0.00000  Uiso   1.00
C499   C     0.12903   0.27261   0.60086   0.00000  Uiso   1.00
C500   C     0.20716   0.26803   0.90082   0.00000  Uiso   1.00
C501   C     0.12729   0.27367   0.54976   0.00000  Uiso   1.00
C502   C     0.20891   0.26880   0.95200   0.00000  Uiso   1.00
C503   C     0.16580   0.25062   0.52722   0.00000  Uiso   1.00
C504   C     0.16741   0.25045   0.97287   0.00000  Uiso   1.00
C505   C     0.06788   0.25106   0.73757   0.00000  Uiso   1.00
C506   C     0.26546   0.25057   0.76249   0.00000  Uiso   1.00
C507   C     0.01260   0.25268   0.73075   0.00000  Uiso   1.00
C508   C     0.32073   0.25154   0.76945   0.00000  Uiso   1.00
C509   C     0.12892   0.04915   0.76625   0.00000  Uiso   1.00
C510   C     0.16082   0.45140   0.70588   0.00000  Uiso   1.00
C511   C     0.13031   0.09481   0.76798   0.00000  Uiso   1.00
C512   C     0.16047   0.40575   0.70715   0.00000  Uiso   1.00
C513   C     0.16842   0.11703   0.74780   0.00000  Uiso   1.00
C514   C     0.16370   0.38407   0.75172   0.00000  Uiso   1.00
C515   C     0.20612   0.09310   0.72589   0.00000  Uiso   1.00
C516   C     0.16637   0.40964   0.79585   0.00000  Uiso   1.00
C517   C     0.20641   0.04681   0.72618   0.00000  Uiso   1.00
C518   C     0.16984   0.45580   0.79463   0.00000  Uiso   1.00
C519   C     0.16709   0.02483   0.74634   0.00000  Uiso   1.00
C520   C     0.16629   0.47661   0.74918   0.00000  Uiso   1.00
Cu521  Cu    0.16667   0.24999   0.79822   0.00000  Uiso   1.00
Cu522  Cu    0.16667   0.25000   0.70179   0.00000  Uiso   1.00
H523   H     0.32588   0.25358   0.69364   0.00000  Uiso   1.00
H524   H     0.00744   0.25053   0.80655   0.00000  Uiso   1.00
H525   H     0.09875   0.03254   0.78173   0.00000  Uiso   1.00
H526   H     0.15761   0.46723   0.67092   0.00000  Uiso   1.00
H527   H     0.10131   0.11289   0.78488   0.00000  Uiso   1.00
H528   H     0.15749   0.38740   0.67279   0.00000  Uiso   1.00
H529   H     0.23381   0.20928   0.54219   0.00000  Uiso   1.00
H530   H     0.09470   0.21641   0.95507   0.00000  Uiso   1.00
H531   H     0.23341   0.20987   0.63129   0.00000  Uiso   1.00
H532   H     0.09550   0.21631   0.86620   0.00000  Uiso   1.00
H533   H     0.10005   0.29049   0.61795   0.00000  Uiso   1.00
H534   H     0.23826   0.28293   0.88518   0.00000  Uiso   1.00
N535   N     0.16667   0.25001   0.62934   0.00000  Uiso   1.00
N536   N     0.16667   0.24999   0.87066   0.00000  Uiso   1.00
O537   O     0.16667   0.18572   0.79072   0.00000  Uiso   1.00
O538   O     0.16666   0.31427   0.70929   0.00000  Uiso   1.00
O539   O     0.16667   0.18573   0.70928   0.00000  Uiso   1.00
O540   O     0.16666   0.31427   0.79072   0.00000  Uiso   1.00
O541   O     0.09161   0.24999   0.78132   0.00000  Uiso   1.00
O542   O     0.24172   0.25000   0.71868   0.00000  Uiso   1.00
O543   O     0.09161   0.25000   0.69989   0.00000  Uiso   1.00
O544   O     0.24172   0.25000   0.80012   0.00000  Uiso   1.00
C545   C     0.24895   0.11539   0.70695   0.00000  Uiso   1.00
C546   C     0.25069   0.11607   0.65652   0.00000  Uiso   1.00
C547   C     0.29396   0.13282   0.63888   0.00000  Uiso   1.00
C548   C     0.00246   0.14852   0.67149   0.00000  Uiso   1.00
C549   C     0.00099   0.14758   0.72173   0.00000  Uiso   1.00
C550   C     0.29090   0.13143   0.73950   0.00000  Uiso   1.00
H551   H     0.21889   0.10315   0.63102   0.00000  Uiso   1.00
H552   H     0.29516   0.13342   0.59998   0.00000  Uiso   1.00
H553   H     0.03606   0.16130   0.65789   0.00000  Uiso   1.00
H554   H     0.03348   0.15946   0.74696   0.00000  Uiso   1.00
H555   H     0.29049   0.13037   0.77853   0.00000  Uiso   1.00
C556   C     0.16449   0.39016   0.84409   0.00000  Uiso   1.00
C557   C     0.11748   0.37479   0.85606   0.00000  Uiso   1.00
C558   C     0.11383   0.36223   0.90370   0.00000  Uiso   1.00
C559   C     0.15679   0.36559   0.93973   0.00000  Uiso   1.00
C560   C     0.20386   0.38020   0.92788   0.00000  Uiso   1.00
C561   C     0.20786   0.39227   0.88019   0.00000  Uiso   1.00
H562   H     0.08353   0.37354   0.82879   0.00000  Uiso   1.00
H563   H     0.07748   0.35064   0.91288   0.00000  Uiso   1.00
H564   H     0.15382   0.35662   0.97681   0.00000  Uiso   1.00
H565   H     0.23715   0.38252   0.95578   0.00000  Uiso   1.00
H566   H     0.24421   0.40455   0.87167   0.00000  Uiso   1.00
O567   O     0.24666   0.02470   0.70829   0.00000  Uiso   1.00
H568   H     0.24957   0.49432   0.72051   0.00000  Uiso   1.00
O569   O     0.17610   0.47939   0.83854   0.00000  Uiso   1.00
H570   H     0.19248   0.00803   0.83435   0.00000  Uiso   1.00
O571   O     0.08811   0.29811   0.52431   0.00000  Uiso   1.00
H572   H     0.09266   0.29882   0.98953   0.00000  Uiso   1.00
O573   O     0.25080   0.28896   0.97934   0.00000  Uiso   1.00
H574   H     0.24394   0.29372   0.51332   0.00000  Uiso   1.00
C575   C     0.50096   0.16507   0.74947   0.00000  Uiso   1.00
C576   C     0.49879   0.33531   0.75057   0.00000  Uiso   1.00
C577   C     0.53719   0.22740   0.55769   0.00000  Uiso   1.00
C578   C     0.46010   0.23130   0.94081   0.00000  Uiso   1.00
C579   C     0.53701   0.22759   0.60847   0.00000  Uiso   1.00
C580   C     0.46044   0.23137   0.89005   0.00000  Uiso   1.00
C581   C     0.46236   0.27261   0.60086   0.00000  Uiso   1.00
C582   C     0.54050   0.26803   0.90082   0.00000  Uiso   1.00
C583   C     0.46062   0.27367   0.54976   0.00000  Uiso   1.00
C584   C     0.54225   0.26880   0.95200   0.00000  Uiso   1.00
C585   C     0.49913   0.25062   0.52722   0.00000  Uiso   1.00
C586   C     0.50074   0.25045   0.97287   0.00000  Uiso   1.00
C587   C     0.40121   0.25106   0.73757   0.00000  Uiso   1.00
C588   C     0.59880   0.25057   0.76249   0.00000  Uiso   1.00
C589   C     0.34593   0.25268   0.73075   0.00000  Uiso   1.00
C590   C     0.65406   0.25154   0.76945   0.00000  Uiso   1.00
C591   C     0.46226   0.04915   0.76625   0.00000  Uiso   1.00
C592   C     0.49415   0.45140   0.70588   0.00000  Uiso   1.00
C593   C     0.46364   0.09481   0.76798   0.00000  Uiso   1.00
C594   C     0.49380   0.40575   0.70715   0.00000  Uiso   1.00
C595   C     0.50175   0.11703   0.74780   0.00000  Uiso   1.00
C596   C     0.49704   0.38407   0.75172   0.00000  Uiso   1.00
C597   C     0.53945   0.09310   0.72589   0.00000  Uiso   1.00
C598   C     0.49970   0.40964   0.79585   0.00000  Uiso   1.00
C599   C     0.53974   0.04681   0.72618   0.00000  Uiso   1.00
C600   C     0.50318   0.45580   0.79463   0.00000  Uiso   1.00
C601   C     0.50042   0.02483   0.74634   0.00000  Uiso   1.00
C602   C     0.49962   0.47661   0.74918   0.00000  Uiso   1.00
Cu603  Cu    0.50000   0.24999   0.79822   0.00000  Uiso   1.00
Cu604  Cu    0.50000   0.25000   0.70179   0.00000  Uiso   1.00
H605   H     0.65921   0.25358   0.69364   0.00000  Uiso   1.00
H606   H     0.34077   0.25053   0.80655   0.00000  Uiso   1.00
H607   H     0.43208   0.03254   0.78173   0.00000  Uiso   1.00
H608   H     0.49095   0.46723   0.67092   0.00000  Uiso   1.00
H609   H     0.43464   0.11289   0.78488   0.00000  Uiso   1.00
H610   H     0.49083   0.38740   0.67279   0.00000  Uiso   1.00
H611   H     0.56715   0.20928   0.54219   0.00000  Uiso   1.00
H612   H     0.42804   0.21641   0.95507   0.00000  Uiso   1.00
H613   H     0.56674   0.20987   0.63129   0.00000  Uiso   1.00
H614   H     0.42884   0.21631   0.86620   0.00000  Uiso   1.00
H615   H     0.43338   0.29049   0.61795   0.00000  Uiso   1.00
H616   H     0.57159   0.28293   0.88518   0.00000  Uiso   1.00
N617   N     0.50000   0.25001   0.62934   0.00000  Uiso   1.00
N618   N     0.50000   0.24999   0.87066   0.00000  Uiso   1.00
O619   O     0.50000   0.18572   0.79072   0.00000  Uiso   1.00
O620   O     0.50000   0.31427   0.70929   0.00000  Uiso   1.00
O621   O     0.50000   0.18573   0.70928   0.00000  Uiso   1.00
O622   O     0.50000   0.31427   0.79072   0.00000  Uiso   1.00
O623   O     0.42495   0.24999   0.78132   0.00000  Uiso   1.00
O624   O     0.57505   0.25000   0.71868   0.00000  Uiso   1.00
O625   O     0.42495   0.25000   0.69989   0.00000  Uiso   1.00
O626   O     0.57505   0.25000   0.80012   0.00000  Uiso   1.00
C627   C     0.58228   0.11539   0.70695   0.00000  Uiso   1.00
C628   C     0.58402   0.11607   0.65652   0.00000  Uiso   1.00
C629   C     0.62729   0.13282   0.63888   0.00000  Uiso   1.00
C630   C     0.33580   0.14852   0.67149   0.00000  Uiso   1.00
C631   C     0.33432   0.14758   0.72173   0.00000  Uiso   1.00
C632   C     0.62424   0.13143   0.73950   0.00000  Uiso   1.00
H633   H     0.55223   0.10315   0.63102   0.00000  Uiso   1.00
H634   H     0.62849   0.13342   0.59998   0.00000  Uiso   1.00
H635   H     0.36939   0.16130   0.65789   0.00000  Uiso   1.00
H636   H     0.36681   0.15946   0.74696   0.00000  Uiso   1.00
H637   H     0.62383   0.13037   0.77853   0.00000  Uiso   1.00
C638   C     0.49783   0.39016   0.84409   0.00000  Uiso   1.00
C639   C     0.45082   0.37479   0.85606   0.00000  Uiso   1.00
C640   C     0.44716   0.36223   0.90370   0.00000  Uiso   1.00
C641   C     0.49012   0.36559   0.93973   0.00000  Uiso   1.00
C642   C     0.53720   0.38020   0.92788   0.00000  Uiso   1.00
C643   C     0.54119   0.39227   0.88019   0.00000  Uiso   1.00
H644   H     0.41686   0.37354   0.82879   0.00000  Uiso   1.00
H645   H     0.41082   0.35064   0.91288   0.00000  Uiso   1.00
H646   H     0.48715   0.35662   0.97681   0.00000  Uiso   1.00
H647   H     0.57049   0.38252   0.95578   0.00000  Uiso   1.00
H648   H     0.57754   0.40455   0.87167   0.00000  Uiso   1.00
O649   O     0.57999   0.02470   0.70829   0.00000  Uiso   1.00
H650   H     0.58291   0.49432   0.72051   0.00000  Uiso   1.00
O651   O     0.50944   0.47939   0.83854   0.00000  Uiso   1.00
H652   H     0.52581   0.00803   0.83435   0.00000  Uiso   1.00
O653   O     0.42144   0.29811   0.52431   0.00000  Uiso   1.00
H654   H     0.42599   0.29882   0.98953   0.00000  Uiso   1.00
O655   O     0.58414   0.28896   0.97934   0.00000  Uiso   1.00
H656   H     0.57728   0.29372   0.51332   0.00000  Uiso   1.00
C657   C     0.83430   0.16507   0.74947   0.00000  Uiso   1.00
C658   C     0.83213   0.33531   0.75057   0.00000  Uiso   1.00
C659   C     0.87052   0.22740   0.55769   0.00000  Uiso   1.00
C660   C     0.79344   0.23130   0.94081   0.00000  Uiso   1.00
C661   C     0.87034   0.22759   0.60847   0.00000  Uiso   1.00
C662   C     0.79377   0.23137   0.89005   0.00000  Uiso   1.00
C663   C     0.79569   0.27261   0.60086   0.00000  Uiso   1.00
C664   C     0.87383   0.26803   0.90082   0.00000  Uiso   1.00
C665   C     0.79396   0.27367   0.54976   0.00000  Uiso   1.00
C666   C     0.87558   0.26880   0.95200   0.00000  Uiso   1.00
C667   C     0.83246   0.25062   0.52722   0.00000  Uiso   1.00
C668   C     0.83407   0.25045   0.97287   0.00000  Uiso   1.00
C669   C     0.73454   0.25106   0.73757   0.00000  Uiso   1.00
C670   C     0.93213   0.25057   0.76249   0.00000  Uiso   1.00
C671   C     0.67926   0.25268   0.73075   0.00000  Uiso   1.00
C672   C     0.98740   0.25154   0.76945   0.00000  Uiso   1.00
C673   C     0.79559   0.04915   0.76625   0.00000  Uiso   1.00
C674   C     0.82749   0.45140   0.70588   0.00000  Uiso   1.00
C675   C     0.79697   0.09481   0.76798   0.00000  Uiso   1.00
C676   C     0.82713   0.40575   0.70715   0.00000  Uiso   1.00
C677   C     0.83509   0.11703   0.74780   0.00000  Uiso   1.00
C678   C     0.83037   0.38407   0.75172   0.00000  Uiso   1.00
C679   C     0.87278   0.09310   0.72589   0.00000  Uiso   1.00
C680   C     0.83303   0.40964   0.79585   0.00000  Uiso   1.00
C681   C     0.87307   0.04681   0.72618   0.00000  Uiso   1.00
C682   C     0.83651   0.45580   0.79463   0.00000  Uiso   1.00
C683   C     0.83376   0.02483   0.74634   0.00000  Uiso   1.00
C684   C     0.83295   0.47661   0.74918   0.00000  Uiso   1.00
Cu685  Cu    0.83333   0.24999   0.79822   0.00000  Uiso   1.00
Cu686  Cu    0.83333   0.25000   0.70179   0.00000  Uiso   1.00
H687   H     0.99255   0.25358   0.69364   0.00000  Uiso   1.00
H688   H     0.67410   0.25053   0.80655   0.00000  Uiso   1.00
H689   H     0.76541   0.03254   0.78173   0.00000  Uiso   1.00
H690   H     0.82428   0.46723   0.67092   0.00000  Uiso   1.00
H691   H     0.76797   0.11289   0.78488   0.00000  Uiso   1.00
H692   H     0.82416   0.38740   0.67279   0.00000  Uiso   1.00
H693   H     0.90048   0.20928   0.54219   0.00000  Uiso   1.00
H694   H     0.76137   0.21641   0.95507   0.00000  Uiso   1.00
H695   H     0.90008   0.20987   0.63129   0.00000  Uiso   1.00
H696   H     0.76217   0.21631   0.86620   0.00000  Uiso   1.00
H697   H     0.76672   0.29049   0.61795   0.00000  Uiso   1.00
H698   H     0.90493   0.28293   0.88518   0.00000  Uiso   1.00
N699   N     0.83333   0.25001   0.62934   0.00000  Uiso   1.00
N700   N     0.83333   0.24999   0.87066   0.00000  Uiso   1.00
O701   O     0.83334   0.18572   0.79072   0.00000  Uiso   1.00
O702   O     0.83333   0.31427   0.70929   0.00000  Uiso   1.00
O703   O     0.83334   0.18573   0.70928   0.00000  Uiso   1.00
O704   O     0.83333   0.31427   0.79072   0.00000  Uiso   1.00
O705   O     0.75828   0.24999   0.78132   0.00000  Uiso   1.00
O706   O     0.90839   0.25000   0.71868   0.00000  Uiso   1.00
O707   O     0.75828   0.25000   0.69989   0.00000  Uiso   1.00
O708   O     0.90839   0.25000   0.80012   0.00000  Uiso   1.00
C709   C     0.91562   0.11539   0.70695   0.00000  Uiso   1.00
C710   C     0.91736   0.11607   0.65652   0.00000  Uiso   1.00
C711   C     0.96063   0.13282   0.63888   0.00000  Uiso   1.00
C712   C     0.66913   0.14852   0.67149   0.00000  Uiso   1.00
C713   C     0.66765   0.14758   0.72173   0.00000  Uiso   1.00
C714   C     0.95757   0.13143   0.73950   0.00000  Uiso   1.00
H715   H     0.88556   0.10315   0.63102   0.00000  Uiso   1.00
H716   H     0.96183   0.13342   0.59998   0.00000  Uiso   1.00
H717   H     0.70273   0.16130   0.65789   0.00000  Uiso   1.00
H718   H     0.70014   0.15946   0.74696   0.00000  Uiso   1.00
H719   H     0.95716   0.13037   0.77853   0.00000  Uiso   1.00
C720   C     0.83116   0.39016   0.84409   0.00000  Uiso   1.00
C721   C     0.78415   0.37479   0.85606   0.00000  Uiso   1.00
C722   C     0.78050   0.36223   0.90370   0.00000  Uiso   1.00
C723   C     0.82345   0.36559   0.93973   0.00000  Uiso   1.00
C724   C     0.87053   0.38020   0.92788   0.00000  Uiso   1.00
C725   C     0.87452   0.39227   0.88019   0.00000  Uiso   1.00
H726   H     0.75019   0.37354   0.82879   0.00000  Uiso   1.00
H727   H     0.74415   0.35064   0.91288   0.00000  Uiso   1.00
H728   H     0.82049   0.35662   0.97681   0.00000  Uiso   1.00
H729   H     0.90382   0.38252   0.95578   0.00000  Uiso   1.00
H730   H     0.91087   0.40455   0.87167   0.00000  Uiso   1.00
O731   O     0.91333   0.02470   0.70829   0.00000  Uiso   1.00
H732   H     0.91624   0.49432   0.72051   0.00000  Uiso   1.00
O733   O     0.84277   0.47939   0.83854   0.00000  Uiso   1.00
H734   H     0.85914   0.00803   0.83435   0.00000  Uiso   1.00
O735   O     0.75478   0.29811   0.52431   0.00000  Uiso   1.00
H736   H     0.75933   0.29882   0.98953   0.00000  Uiso   1.00
O737   O     0.91747   0.28896   0.97934   0.00000  Uiso   1.00
H738   H     0.91061   0.29372   0.51332   0.00000  Uiso   1.00
C739   C     0.16763   0.66507   0.74947   0.00000  Uiso   1.00
C740   C     0.16546   0.83531   0.75057   0.00000  Uiso   1.00
C741   C     0.20385   0.72740   0.55769   0.00000  Uiso   1.00
C742   C     0.12677   0.73130   0.94081   0.00000  Uiso   1.00
C743   C     0.20367   0.72759   0.60847   0.00000  Uiso   1.00
C744   C     0.12711   0.73137   0.89005   0.00000  Uiso   1.00
C745   C     0.12903   0.77261   0.60086   0.00000  Uiso   1.00
C746   C     0.20716   0.76803   0.90082   0.00000  Uiso   1.00
C747   C     0.12729   0.77367   0.54976   0.00000  Uiso   1.00
C748   C     0.20891   0.76880   0.95200   0.00000  Uiso   1.00
C749   C     0.16580   0.75062   0.52722   0.00000  Uiso   1.00
C750   C     0.16741   0.75045   0.97287   0.00000  Uiso   1.00
C751   C     0.06788   0.75106   0.73757   0.00000  Uiso   1.00
C752   C     0.26546   0.75057   0.76249   0.00000  Uiso   1.00
C753   C     0.01260   0.75268   0.73075   0.00000  Uiso   1.00
C754   C     0.32073   0.75154   0.76945   0.00000  Uiso   1.00
C755   C     0.12892   0.54915   0.76625   0.00000  Uiso   1.00
C756   C     0.16082   0.95140   0.70588   0.00000  Uiso   1.00
C757   C     0.13031   0.59481   0.76798   0.00000  Uiso   1.00
C758   C     0.16047   0.90575   0.70715   0.00000  Uiso   1.00
C759   C     0.16842   0.61703   0.74780   0.00000  Uiso   1.00
C760   C     0.16370   0.88407   0.75172   0.00000  Uiso   1.00
C761   C     0.20612   0.59310   0.72589   0.00000  Uiso   1.00
C762   C     0.16637   0.90964   0.79585   0.00000  Uiso   1.00
C763   C     0.20641   0.54681   0.72618   0.00000  Uiso   1.00
C764   C     0.16984   0.95580   0.79463   0.00000  Uiso   1.00
C765   C     0.16709   0.52483   0.74634   0.00000  Uiso   1.00
C766   C     0.16629   0.97661   0.74918   0.00000  Uiso   1.00
Cu767  Cu    0.16667   0.74999   0.79822   0.00000  Uiso   1.00
Cu768  Cu    0.16667   0.75000   0.70179   0.00000  Uiso   1.00
H769   H     0.32588   0.75358   0.69364   0.00000  Uiso   1.00
H770   H     0.00744   0.75053   0.80655   0.00000  Uiso   1.00
H771   H     0.09875   0.53254   0.78173   0.00000  Uiso   1.00
H772   H     0.15761   0.96723   0.67092   0.00000  Uiso   1.00
H773   H     0.10131   0.61289   0.78488   0.00000  Uiso   1.00
H774   H     0.15749   0.88740   0.67279   0.00000  Uiso   1.00
H775   H     0.23381   0.70928   0.54219   0.00000  Uiso   1.00
H776   H     0.09470   0.71641   0.95507   0.00000  Uiso   1.00
H777   H     0.23341   0.70987   0.63129   0.00000  Uiso   1.00
H778   H     0.09550   0.71631   0.86620   0.00000  Uiso   1.00
H779   H     0.10005   0.79049   0.61795   0.00000  Uiso   1.00
H780   H     0.23826   0.78293   0.88518   0.00000  Uiso   1.00
N781   N     0.16667   0.75001   0.62934   0.00000  Uiso   1.00
N782   N     0.16667   0.74999   0.87066   0.00000  Uiso   1.00
O783   O     0.16667   0.68572   0.79072   0.00000  Uiso   1.00
O784   O     0.16666   0.81427   0.70929   0.00000  Uiso   1.00
O785   O     0.16667   0.68573   0.70928   0.00000  Uiso   1.00
O786   O     0.16666   0.81427   0.79072   0.00000  Uiso   1.00
O787   O     0.09161   0.74999   0.78132   0.00000  Uiso   1.00
O788   O     0.24172   0.75000   0.71868   0.00000  Uiso   1.00
O789   O     0.09161   0.75000   0.69989   0.00000  Uiso   1.00
O790   O     0.24172   0.75000   0.80012   0.00000  Uiso   1.00
C791   C     0.24895   0.61539   0.70695   0.00000  Uiso   1.00
C792   C     0.25069   0.61607   0.65652   0.00000  Uiso   1.00
C793   C     0.29396   0.63282   0.63888   0.00000  Uiso   1.00
C794   C     0.00246   0.64852   0.67149   0.00000  Uiso   1.00
C795   C     0.00099   0.64758   0.72173   0.00000  Uiso   1.00
C796   C     0.29090   0.63143   0.73950   0.00000  Uiso   1.00
H797   H     0.21889   0.60315   0.63102   0.00000  Uiso   1.00
H798   H     0.29516   0.63342   0.59998   0.00000  Uiso   1.00
H799   H     0.03606   0.66130   0.65789   0.00000  Uiso   1.00
H800   H     0.03348   0.65946   0.74696   0.00000  Uiso   1.00
H801   H     0.29049   0.63037   0.77853   0.00000  Uiso   1.00
C802   C     0.16449   0.89016   0.84409   0.00000  Uiso   1.00
C803   C     0.11748   0.87479   0.85606   0.00000  Uiso   1.00
C804   C     0.11383   0.86223   0.90370   0.00000  Uiso   1.00
C805   C     0.15679   0.86559   0.93973   0.00000  Uiso   1.00
C806   C     0.20386   0.88020   0.92788   0.00000  Uiso   1.00
C807   C     0.20786   0.89227   0.88019   0.00000  Uiso   1.00
H808   H     0.08353   0.87354   0.82879   0.00000  Uiso   1.00
H809   H     0.07748   0.85064   0.91288   0.00000  Uiso   1.00
H810   H     0.15382   0.85662   0.97681   0.00000  Uiso   1.00
H811   H     0.23715   0.88252   0.95578   0.00000  Uiso   1.00
H812   H     0.24421   0.90455   0.87167   0.00000  Uiso   1.00
O813   O     0.24666   0.52470   0.70829   0.00000  Uiso   1.00
H814   H     0.24957   0.99432   0.72051   0.00000  Uiso   1.00
O815   O     0.17610   0.97939   0.83854   0.00000  Uiso   1.00
H816   H     0.19248   0.50803   0.83435   0.00000  Uiso   1.00
O817   O     0.08811   0.79811   0.52431   0.00000  Uiso   1.00
H818   H     0.09266   0.79882   0.98953   0.00000  Uiso   1.00
O819   O     0.25080   0.78896   0.97934   0.00000  Uiso   1.00
H820   H     0.24394   0.79372   0.51332   0.00000  Uiso   1.00
C821   C     0.50096   0.66507   0.74947   0.00000  Uiso   1.00
C822   C     0.49879   0.83531   0.75057   0.00000  Uiso   1.00
C823   C     0.53719   0.72740   0.55769   0.00000  Uiso   1.00
C824   C     0.46010   0.73130   0.94081   0.00000  Uiso   1.00
C825   C     0.53701   0.72759   0.60847   0.00000  Uiso   1.00
C826   C     0.46044   0.73137   0.89005   0.00000  Uiso   1.00
C827   C     0.46236   0.77261   0.60086   0.00000  Uiso   1.00
C828   C     0.54050   0.76803   0.90082   0.00000  Uiso   1.00
C829   C     0.46062   0.77367   0.54976   0.00000  Uiso   1.00
C830   C     0.54225   0.76880   0.95200   0.00000  Uiso   1.00
C831   C     0.49913   0.75062   0.52722   0.00000  Uiso   1.00
C832   C     0.50074   0.75045   0.97287   0.00000  Uiso   1.00
C833   C     0.40121   0.75106   0.73757   0.00000  Uiso   1.00
C834   C     0.59880   0.75057   0.76249   0.00000  Uiso   1.00
C835   C     0.34593   0.75268   0.73075   0.00000  Uiso   1.00
C836   C     0.65406   0.75154   0.76945   0.00000  Uiso   1.00
C837   C     0.46226   0.54915   0.76625   0.00000  Uiso   1.00
C838   C     0.49415   0.95140   0.70588   0.00000  Uiso   1.00
C839   C     0.46364   0.59481   0.76798   0.00000  Uiso   1.00
C840   C     0.49380   0.90575   0.70715   0.00000  Uiso   1.00
C841   C     0.50175   0.61703   0.74780   0.00000  Uiso   1.00
C842   C     0.49704   0.88407   0.75172   0.00000  Uiso   1.00
C843   C     0.53945   0.59310   0.72589   0.00000  Uiso   1.00
C844   C     0.49970   0.90964   0.79585   0.00000  Uiso   1.00
C845   C     0.53974   0.54681   0.72618   0.00000  Uiso   1.00
C846   C     0.50318   0.95580   0.79463   0.00000  Uiso   1.00
C847   C     0.50042   0.52483   0.74634   0.00000  Uiso   1.00
C848   C     0.49962   0.97661   0.74918   0.00000  Uiso   1.00
Cu849  Cu    0.50000   0.74999   0.79822   0.00000  Uiso   1.00
Cu850  Cu    0.50000   0.75000   0.70179   0.00000  Uiso   1.00
H851   H     0.65921   0.75358   0.69364   0.00000  Uiso   1.00
H852   H     0.34077   0.75053   0.80655   0.00000  Uiso   1.00
H853   H     0.43208   0.53254   0.78173   0.00000  Uiso   1.00
H854   H     0.49095   0.96723   0.67092   0.00000  Uiso   1.00
H855   H     0.43464   0.61289   0.78488   0.00000  Uiso   1.00
H856   H     0.49083   0.88740   0.67279   0.00000  Uiso   1.00
H857   H     0.56715   0.70928   0.54219   0.00000  Uiso   1.00
H858   H     0.42804   0.71641   0.95507   0.00000  Uiso   1.00
H859   H     0.56674   0.70987   0.63129   0.00000  Uiso   1.00
H860   H     0.42884   0.71631   0.86620   0.00000  Uiso   1.00
H861   H     0.43338   0.79049   0.61795   0.00000  Uiso   1.00
H862   H     0.57159   0.78293   0.88518   0.00000  Uiso   1.00
N863   N     0.50000   0.75001   0.62934   0.00000  Uiso   1.00
N864   N     0.50000   0.74999   0.87066   0.00000  Uiso   1.00
O865   O     0.50000   0.68572   0.79072   0.00000  Uiso   1.00
O866   O     0.50000   0.81427   0.70929   0.00000  Uiso   1.00
O867   O     0.50000   0.68573   0.70928   0.00000  Uiso   1.00
O868   O     0.50000   0.81427   0.79072   0.00000  Uiso   1.00
O869   O     0.42495   0.74999   0.78132   0.00000  Uiso   1.00
O870   O     0.57505   0.75000   0.71868   0.00000  Uiso   1.00
O871   O     0.42495   0.75000   0.69989   0.00000  Uiso   1.00
O872   O     0.57505   0.75000   0.80012   0.00000  Uiso   1.00
C873   C     0.58228   0.61539   0.70695   0.00000  Uiso   1.00
C874   C     0.58402   0.61607   0.65652   0.00000  Uiso   1.00
C875   C     0.62729   0.63282   0.63888   0.00000  Uiso   1.00
C876   C     0.33580   0.64852   0.67149   0.00000  Uiso   1.00
C877   C     0.33432   0.64758   0.72173   0.00000  Uiso   1.00
C878   C     0.62424   0.63143   0.73950   0.00000  Uiso   1.00
H879   H     0.55223   0.60315   0.63102   0.00000  Uiso   1.00
H880   H     0.62849   0.63342   0.59998   0.00000  Uiso   1.00
H881   H     0.36939   0.66130   0.65789   0.00000  Uiso   1.00
H882   H     0.36681   0.65946   0.74696   0.00000  Uiso   1.00
H883   H     0.62383   0.63037   0.77853   0.00000  Uiso   1.00
C884   C     0.49783   0.89016   0.84409   0.00000  Uiso   1.00
C885   C     0.45082   0.87479   0.85606   0.00000  Uiso   1.00
C886   C     0.44716   0.86223   0.90370   0.00000  Uiso   1.00
C887   C     0.49012   0.86559   0.93973   0.00000  Uiso   1.00
C888   C     0.53720   0.88020   0.92788   0.00000  Uiso   1.00
C889   C     0.54119   0.89227   0.88019   0.00000  Uiso   1.00
H890   H     0.41686   0.87354   0.82879   0.00000  Uiso   1.00
H891   H     0.41082   0.85064   0.91288   0.00000  Uiso   1.00
H892   H     0.48715   0.85662   0.97681   0.00000  Uiso   1.00
H893   H     0.57049   0.88252   0.95578   0.00000  Uiso   1.00
H894   H     0.57754   0.90455   0.87167   0.00000  Uiso   1.00
O895   O     0.57999   0.52470   0.70829   0.00000  Uiso   1.00
H896   H     0.58291   0.99432   0.72051   0.00000  Uiso   1.00
O897   O     0.50944   0.97939   0.83854   0.00000  Uiso   1.00
H898   H     0.52581   0.50803   0.83435   0.00000  Uiso   1.00
O899   O     0.42144   0.79811   0.52431   0.00000  Uiso   1.00
H900   H     0.42599   0.79882   0.98953   0.00000  Uiso   1.00
O901   O     0.58414   0.78896   0.97934   0.00000  Uiso   1.00
H902   H     0.57728   0.79372   0.51332   0.00000  Uiso   1.00
C903   C     0.83430   0.66507   0.74947   0.00000  Uiso   1.00
C904   C     0.83213   0.83531   0.75057   0.00000  Uiso   1.00
C905   C     0.87052   0.72740   0.55769   0.00000  Uiso   1.00
C906   C     0.79344   0.73130   0.94081   0.00000  Uiso   1.00
C907   C     0.87034   0.72759   0.60847   0.00000  Uiso   1.00
C908   C     0.79377   0.73137   0.89005   0.00000  Uiso   1.00
C909   C     0.79569   0.77261   0.60086   0.00000  Uiso   1.00
C910   C     0.87383   0.76803   0.90082   0.00000  Uiso   1.00
C911   C     0.79396   0.77367   0.54976   0.00000  Uiso   1.00
C912   C     0.87558   0.76880   0.95200   0.00000  Uiso   1.00
C913   C     0.83246   0.75062   0.52722   0.00000  Uiso   1.00
C914   C     0.83407   0.75045   0.97287   0.00000  Uiso   1.00
C915   C     0.73454   0.75106   0.73757   0.00000  Uiso   1.00
C916   C     0.93213   0.75057   0.76249   0.00000  Uiso   1.00
C917   C     0.67926   0.75268   0.73075   0.00000  Uiso   1.00
C918   C     0.98740   0.75154   0.76945   0.00000  Uiso   1.00
C919   C     0.79559   0.54915   0.76625   0.00000  Uiso   1.00
C920   C     0.82749   0.95140   0.70588   0.00000  Uiso   1.00
C921   C     0.79697   0.59481   0.76798   0.00000  Uiso   1.00
C922   C     0.82713   0.90575   0.70715   0.00000  Uiso   1.00
C923   C     0.83509   0.61703   0.74780   0.00000  Uiso   1.00
C924   C     0.83037   0.88407   0.75172   0.00000  Uiso   1.00
C925   C     0.87278   0.59310   0.72589   0.00000  Uiso   1.00
C926   C     0.83303   0.90964   0.79585   0.00000  Uiso   1.00
C927   C     0.87307   0.54681   0.72618   0.00000  Uiso   1.00
C928   C     0.83651   0.95580   0.79463   0.00000  Uiso   1.00
C929   C     0.83376   0.52483   0.74634   0.00000  Uiso   1.00
C930   C     0.83295   0.97661   0.74918   0.00000  Uiso   1.00
Cu931  Cu    0.83333   0.74999   0.79822   0.00000  Uiso   1.00
Cu932  Cu    0.83333   0.75000   0.70179   0.00000  Uiso   1.00
H933   H     0.99255   0.75358   0.69364   0.00000  Uiso   1.00
H934   H     0.67410   0.75053   0.80655   0.00000  Uiso   1.00
H935   H     0.76541   0.53254   0.78173   0.00000  Uiso   1.00
H936   H     0.82428   0.96723   0.67092   0.00000  Uiso   1.00
H937   H     0.76797   0.61289   0.78488   0.00000  Uiso   1.00
H938   H     0.82416   0.88740   0.67279   0.00000  Uiso   1.00
H939   H     0.90048   0.70928   0.54219   0.00000  Uiso   1.00
H940   H     0.76137   0.71641   0.95507   0.00000  Uiso   1.00
H941   H     0.90008   0.70987   0.63129   0.00000  Uiso   1.00
H942   H     0.76217   0.71631   0.86620   0.00000  Uiso   1.00
H943   H     0.76672   0.79049   0.61795   0.00000  Uiso   1.00
H944   H     0.90493   0.78293   0.88518   0.00000  Uiso   1.00
N945   N     0.83333   0.75001   0.62934   0.00000  Uiso   1.00
N946   N     0.83333   0.74999   0.87066   0.00000  Uiso   1.00
O947   O     0.83334   0.68572   0.79072   0.00000  Uiso   1.00
O948   O     0.83333   0.81427   0.70929   0.00000  Uiso   1.00
O949   O     0.83334   0.68573   0.70928   0.00000  Uiso   1.00
O950   O     0.83333   0.81427   0.79072   0.00000  Uiso   1.00
O951   O     0.75828   0.74999   0.78132   0.00000  Uiso   1.00
O952   O     0.90839   0.75000   0.71868   0.00000  Uiso   1.00
O953   O     0.75828   0.75000   0.69989   0.00000  Uiso   1.00
O954   O     0.90839   0.75000   0.80012   0.00000  Uiso   1.00
C955   C     0.91562   0.61539   0.70695   0.00000  Uiso   1.00
C956   C     0.91736   0.61607   0.65652   0.00000  Uiso   1.00
C957   C     0.96063   0.63282   0.63888   0.00000  Uiso   1.00
C958   C     0.66913   0.64852   0.67149   0.00000  Uiso   1.00
C959   C     0.66765   0.64758   0.72173   0.00000  Uiso   1.00
C960   C     0.95757   0.63143   0.73950   0.00000  Uiso   1.00
H961   H     0.88556   0.60315   0.63102   0.00000  Uiso   1.00
H962   H     0.96183   0.63342   0.59998   0.00000  Uiso   1.00
H963   H     0.70273   0.66130   0.65789   0.00000  Uiso   1.00
H964   H     0.70014   0.65946   0.74696   0.00000  Uiso   1.00
H965   H     0.95716   0.63037   0.77853   0.00000  Uiso   1.00
C966   C     0.83116   0.89016   0.84409   0.00000  Uiso   1.00
C967   C     0.78415   0.87479   0.85606   0.00000  Uiso   1.00
C968   C     0.78050   0.86223   0.90370   0.00000  Uiso   1.00
C969   C     0.82345   0.86559   0.93973   0.00000  Uiso   1.00
C970   C     0.87053   0.88020   0.92788   0.00000  Uiso   1.00
C971   C     0.87452   0.89227   0.88019   0.00000  Uiso   1.00
H972   H     0.75019   0.87354   0.82879   0.00000  Uiso   1.00
H973   H     0.74415   0.85064   0.91288   0.00000  Uiso   1.00
H974   H     0.82049   0.85662   0.97681   0.00000  Uiso   1.00
H975   H     0.90382   0.88252   0.95578   0.00000  Uiso   1.00
H976   H     0.91087   0.90455   0.87167   0.00000  Uiso   1.00
O977   O     0.91333   0.52470   0.70829   0.00000  Uiso   1.00
H978   H     0.91624   0.99432   0.72051   0.00000  Uiso   1.00
O979   O     0.84277   0.97939   0.83854   0.00000  Uiso   1.00
H980   H     0.85914   0.50803   0.83435   0.00000  Uiso   1.00
O981   O     0.75478   0.79811   0.52431   0.00000  Uiso   1.00
H982   H     0.75933   0.79882   0.98953   0.00000  Uiso   1.00
O983   O     0.91747   0.78896   0.97934   0.00000  Uiso   1.00
H984   H     0.91061   0.79372   0.51332   0.00000  Uiso   1.00
loop_
_geom_bond_atom_site_label_1
_geom_bond_atom_site_label_2
_geom_bond_distance
_geom_bond_site_symmetry_2
_ccdc_geom_bond_type
C1     C21     1.457   .     S
C1     O47     1.288   .     A
C1     O45     1.291   .     A
C2     O46     1.298   .     A
C2     C22     1.479   .     S
C2     O48     1.292   .     A
C3     C5      1.406   .     A
C3     C11     1.408   .     A
C3     H37     1.083   .     S
C4     C12     1.407   .     A
C4     C6      1.406   .     A
C4     H38     1.083   .     S
C5     H39     1.080   .     S
C5     N43     1.362   .     A
C6     N44     1.364   .     A
C6     H40     1.081   .     S
C7     N43     1.364   .     A
C7     C9      1.410   .     A
C7     H41     1.082   .     S
C8     N44     1.365   .     A
C8     H42     1.081   .     S
C8     C10     1.411   .     A
C9     O79     1.381   .     S
C9     C11     1.425   .     A
C10    C12     1.424   .     A
C10    O81     1.381   .     S
C11    C504    1.510   1_554 S
C12    C503    1.510   .     S
C13    O51     1.285   .     A
C13    O49     1.283   .     A
C13    C15     1.433   .     S
C14    O52     1.285   .     A
C14    C16     1.433   .     S
C14    O50     1.283   .     A
C15    C180    1.335   1_455 S
C15    H195    1.087   1_455 S
C16    C97     1.335   .     S
C16    H114    1.087   .     S
C17    H33     1.084   .     S
C17    C27     1.401   .     A
C17    C19     1.385   .     A
C18    C20     1.386   .     A
C18    C28     1.396   .     A
C18    H34     1.084   .     S
C19    C21     1.396   .     A
C19    H35     1.083   .     S
C20    C22     1.405   .     A
C20    H36     1.083   .     S
C21    C23     1.413   .     A
C22    C24     1.424   .     A
C23    C25     1.404   .     A
C23    C53     1.478   .     S
C24    C26     1.405   .     A
C24    C64     1.481   .     S
C25    O75     1.385   .     S
C25    C27     1.417   .     A
C26    O77     1.385   .     S
C26    C28     1.413   .     A
C27    C274    1.467   1_545 S
C28    C273    1.467   .     S
Cu29   O49     1.955   .     S
Cu29   O48     1.966   .     S
Cu29   O45     1.955   .     S
Cu29   Cu30    2.669   .     S
Cu29   N44     2.005   .     S
Cu29   O52     1.957   .     S
Cu30   O51     1.957   .     S
Cu30   O50     1.955   .     S
Cu30   O47     1.966   .     S
Cu30   N43     2.005   .     S
Cu30   O46     1.955   .     S
H31    C97     1.087   .     S
H32    C180    1.087   1_455 S
C53    C54     1.404   .     A
C53    C58     1.402   .     A
C54    H59     1.083   .     S
C54    C55     1.399   .     A
C55    H60     1.082   .     S
C55    C138    1.398   .     S
C56    C57     1.397   .     A
C56    H61     1.082   .     S
C56    C219    1.398   1_455 S
C57    H62     1.081   .     S
C57    C222    1.397   1_455 S
C58    H63     1.083   .     S
C58    C139    1.397   .     S
C64    C69     1.405   .     A
C64    C65     1.405   .     A
C65    H70     1.083   .     S
C65    C66     1.398   .     A
C66    C67     1.398   .     A
C66    H71     1.082   .     S
C67    H72     1.082   .     S
C67    C68     1.397   .     A
C68    C69     1.397   .     A
C68    H73     1.082   .     S
C69    H74     1.083   .     S
O75    H322    0.988   1_545 S
H76    O321    0.988   .     S
O77    H324    0.989   .     S
H78    O323    0.989   1_545 S
O79    H572    0.987   1_554 S
H80    O571    0.987   .     S
O81    H574    0.988   .     S
H82    O573    0.988   1_554 S
C83    C103    1.457   .     S
C83    O129    1.288   .     A
C83    O127    1.291   .     A
C84    O128    1.298   .     A
C84    C104    1.479   .     S
C84    O130    1.292   .     A
C85    C87     1.406   .     A
C85    C93     1.408   .     A
C85    H119    1.083   .     S
C86    C94     1.407   .     A
C86    C88     1.406   .     A
C86    H120    1.083   .     S
C87    H121    1.080   .     S
C87    N125    1.362   .     A
C88    N126    1.364   .     A
C88    H122    1.081   .     S
C89    N125    1.364   .     A
C89    C91     1.410   .     A
C89    H123    1.082   .     S
C90    N126    1.365   .     A
C90    H124    1.081   .     S
C90    C92     1.411   .     A
C91    O161    1.381   .     S
C91    C93     1.425   .     A
C92    C94     1.424   .     A
C92    O163    1.381   .     S
C93    C586    1.510   1_554 S
C94    C585    1.510   .     S
C95    O133    1.285   .     A
C95    O131    1.283   .     A
C95    C97     1.433   .     S
C96    O134    1.285   .     A
C96    C98     1.433   .     S
C96    O132    1.283   .     A
C98    C179    1.335   .     S
C98    H196    1.087   .     S
C99    H115    1.084   .     S
C99    C109    1.401   .     A
C99    C101    1.385   .     A
C100   C102    1.386   .     A
C100   C110    1.396   .     A
C100   H116    1.084   .     S
C101   C103    1.396   .     A
C101   H117    1.083   .     S
C102   C104    1.405   .     A
C102   H118    1.083   .     S
C103   C105    1.413   .     A
C104   C106    1.424   .     A
C105   C107    1.404   .     A
C105   C135    1.478   .     S
C106   C108    1.405   .     A
C106   C146    1.481   .     S
C107   O157    1.385   .     S
C107   C109    1.417   .     A
C108   O159    1.385   .     S
C108   C110    1.413   .     A
C109   C356    1.467   1_545 S
C110   C355    1.467   .     S
Cu111  O131    1.955   .     S
Cu111  O130    1.966   .     S
Cu111  O127    1.955   .     S
Cu111  Cu112   2.669   .     S
Cu111  N126    2.005   .     S
Cu111  O134    1.957   .     S
Cu112  O133    1.957   .     S
Cu112  O132    1.955   .     S
Cu112  O129    1.966   .     S
Cu112  N125    2.005   .     S
Cu112  O128    1.955   .     S
H113   C179    1.087   .     S
C135   C136    1.404   .     A
C135   C140    1.402   .     A
C136   H141    1.083   .     S
C136   C137    1.399   .     A
C137   H142    1.082   .     S
C137   C220    1.398   .     S
C138   C139    1.397   .     A
C138   H143    1.082   .     S
C139   H144    1.081   .     S
C140   H145    1.083   .     S
C140   C221    1.397   .     S
C146   C151    1.405   .     A
C146   C147    1.405   .     A
C147   H152    1.083   .     S
C147   C148    1.398   .     A
C148   C149    1.398   .     A
C148   H153    1.082   .     S
C149   H154    1.082   .     S
C149   C150    1.397   .     A
C150   C151    1.397   .     A
C150   H155    1.082   .     S
C151   H156    1.083   .     S
O157   H404    0.988   1_545 S
H158   O403    0.988   .     S
O159   H406    0.989   .     S
H160   O405    0.989   1_545 S
O161   H654    0.987   1_554 S
H162   O653    0.987   .     S
O163   H656    0.988   .     S
H164   O655    0.988   1_554 S
C165   C185    1.457   .     S
C165   O211    1.288   .     A
C165   O209    1.291   .     A
C166   O210    1.298   .     A
C166   C186    1.479   .     S
C166   O212    1.292   .     A
C167   C169    1.406   .     A
C167   C175    1.408   .     A
C167   H201    1.083   .     S
C168   C176    1.407   .     A
C168   C170    1.406   .     A
C168   H202    1.083   .     S
C169   H203    1.080   .     S
C169   N207    1.362   .     A
C170   N208    1.364   .     A
C170   H204    1.081   .     S
C171   N207    1.364   .     A
C171   C173    1.410   .     A
C171   H205    1.082   .     S
C172   N208    1.365   .     A
C172   H206    1.081   .     S
C172   C174    1.411   .     A
C173   O243    1.381   .     S
C173   C175    1.425   .     A
C174   C176    1.424   .     A
C174   O245    1.381   .     S
C175   C668    1.510   1_554 S
C176   C667    1.510   .     S
C177   O215    1.285   .     A
C177   O213    1.283   .     A
C177   C179    1.433   .     S
C178   O216    1.285   .     A
C178   C180    1.433   .     S
C178   O214    1.283   .     A
C180   C15     1.335   1_655 S
C180   H32     1.087   1_655 S
C181   H197    1.084   .     S
C181   C191    1.401   .     A
C181   C183    1.385   .     A
C182   C184    1.386   .     A
C182   C192    1.396   .     A
C182   H198    1.084   .     S
C183   C185    1.396   .     A
C183   H199    1.083   .     S
C184   C186    1.405   .     A
C184   H200    1.083   .     S
C185   C187    1.413   .     A
C186   C188    1.424   .     A
C187   C189    1.404   .     A
C187   C217    1.478   .     S
C188   C190    1.405   .     A
C188   C228    1.481   .     S
C189   O239    1.385   .     S
C189   C191    1.417   .     A
C190   O241    1.385   .     S
C190   C192    1.413   .     A
C191   C438    1.467   1_545 S
C192   C437    1.467   .     S
Cu193  O213    1.955   .     S
Cu193  O212    1.966   .     S
Cu193  O209    1.955   .     S
Cu193  Cu194   2.669   .     S
Cu193  N208    2.005   .     S
Cu193  O216    1.957   .     S
Cu194  O215    1.957   .     S
Cu194  O214    1.955   .     S
Cu194  O211    1.966   .     S
Cu194  N207    2.005   .     S
Cu194  O210    1.955   .     S
H195   C15     1.087   1_655 S
C217   C218    1.404   .     A
C217   C222    1.402   .     A
C218   H223    1.083   .     S
C218   C219    1.399   .     A
C219   H224    1.082   .     S
C219   C56     1.398   1_655 S
C220   C221    1.397   .     A
C220   H225    1.082   .     S
C221   H226    1.081   .     S
C222   H227    1.083   .     S
C222   C57     1.397   1_655 S
C228   C233    1.405   .     A
C228   C229    1.405   .     A
C229   H234    1.083   .     S
C229   C230    1.398   .     A
C230   C231    1.398   .     A
C230   H235    1.082   .     S
C231   H236    1.082   .     S
C231   C232    1.397   .     A
C232   C233    1.397   .     A
C232   H237    1.082   .     S
C233   H238    1.083   .     S
O239   H486    0.988   1_545 S
H240   O485    0.988   .     S
O241   H488    0.989   .     S
H242   O487    0.989   1_545 S
O243   H736    0.987   1_554 S
H244   O735    0.987   .     S
O245   H738    0.988   .     S
H246   O737    0.988   1_554 S
C247   C267    1.457   .     S
C247   O293    1.288   .     A
C247   O291    1.291   .     A
C248   O292    1.298   .     A
C248   C268    1.479   .     S
C248   O294    1.292   .     A
C249   C251    1.406   .     A
C249   C257    1.408   .     A
C249   H283    1.083   .     S
C250   C258    1.407   .     A
C250   C252    1.406   .     A
C250   H284    1.083   .     S
C251   H285    1.080   .     S
C251   N289    1.362   .     A
C252   N290    1.364   .     A
C252   H286    1.081   .     S
C253   N289    1.364   .     A
C253   C255    1.410   .     A
C253   H287    1.082   .     S
C254   N290    1.365   .     A
C254   H288    1.081   .     S
C254   C256    1.411   .     A
C255   O325    1.381   .     S
C255   C257    1.425   .     A
C256   C258    1.424   .     A
C256   O327    1.381   .     S
C257   C750    1.510   1_554 S
C258   C749    1.510   .     S
C259   O297    1.285   .     A
C259   O295    1.283   .     A
C259   C261    1.433   .     S
C260   O298    1.285   .     A
C260   C262    1.433   .     S
C260   O296    1.283   .     A
C261   C426    1.335   1_455 S
C261   H441    1.087   1_455 S
C262   C343    1.335   .     S
C262   H360    1.087   .     S
C263   H279    1.084   .     S
C263   C273    1.401   .     A
C263   C265    1.385   .     A
C264   C266    1.386   .     A
C264   C274    1.396   .     A
C264   H280    1.084   .     S
C265   C267    1.396   .     A
C265   H281    1.083   .     S
C266   C268    1.405   .     A
C266   H282    1.083   .     S
C267   C269    1.413   .     A
C268   C270    1.424   .     A
C269   C271    1.404   .     A
C269   C299    1.478   .     S
C270   C272    1.405   .     A
C270   C310    1.481   .     S
C271   O321    1.385   .     S
C271   C273    1.417   .     A
C272   O323    1.385   .     S
C272   C274    1.413   .     A
C274   C27     1.467   1_565 S
Cu275  O295    1.955   .     S
Cu275  O294    1.966   .     S
Cu275  O291    1.955   .     S
Cu275  Cu276   2.669   .     S
Cu275  N290    2.005   .     S
Cu275  O298    1.957   .     S
Cu276  O297    1.957   .     S
Cu276  O296    1.955   .     S
Cu276  O293    1.966   .     S
Cu276  N289    2.005   .     S
Cu276  O292    1.955   .     S
H277   C343    1.087   .     S
H278   C426    1.087   1_455 S
C299   C300    1.404   .     A
C299   C304    1.402   .     A
C300   H305    1.083   .     S
C300   C301    1.399   .     A
C301   H306    1.082   .     S
C301   C384    1.398   .     S
C302   C303    1.397   .     A
C302   H307    1.082   .     S
C302   C465    1.398   1_455 S
C303   H308    1.081   .     S
C303   C468    1.397   1_455 S
C304   H309    1.083   .     S
C304   C385    1.397   .     S
C310   C315    1.405   .     A
C310   C311    1.405   .     A
C311   H316    1.083   .     S
C311   C312    1.398   .     A
C312   C313    1.398   .     A
C312   H317    1.082   .     S
C313   H318    1.082   .     S
C313   C314    1.397   .     A
C314   C315    1.397   .     A
C314   H319    1.082   .     S
C315   H320    1.083   .     S
H322   O75     0.988   1_565 S
O323   H78     0.989   1_565 S
O325   H818    0.987   1_554 S
H326   O817    0.987   .     S
O327   H820    0.988   .     S
H328   O819    0.988   1_554 S
C329   C349    1.457   .     S
C329   O375    1.288   .     A
C329   O373    1.291   .     A
C330   O374    1.298   .     A
C330   C350    1.479   .     S
C330   O376    1.292   .     A
C331   C333    1.406   .     A
C331   C339    1.408   .     A
C331   H365    1.083   .     S
C332   C340    1.407   .     A
C332   C334    1.406   .     A
C332   H366    1.083   .     S
C333   H367    1.080   .     S
C333   N371    1.362   .     A
C334   N372    1.364   .     A
C334   H368    1.081   .     S
C335   N371    1.364   .     A
C335   C337    1.410   .     A
C335   H369    1.082   .     S
C336   N372    1.365   .     A
C336   H370    1.081   .     S
C336   C338    1.411   .     A
C337   O407    1.381   .     S
C337   C339    1.425   .     A
C338   C340    1.424   .     A
C338   O409    1.381   .     S
C339   C832    1.510   1_554 S
C340   C831    1.510   .     S
C341   O379    1.285   .     A
C341   O377    1.283   .     A
C341   C343    1.433   .     S
C342   O380    1.285   .     A
C342   C344    1.433   .     S
C342   O378    1.283   .     A
C344   C425    1.335   .     S
C344   H442    1.087   .     S
C345   H361    1.084   .     S
C345   C355    1.401   .     A
C345   C347    1.385   .     A
C346   C348    1.386   .     A
C346   C356    1.396   .     A
C346   H362    1.084   .     S
C347   C349    1.396   .     A
C347   H363    1.083   .     S
C348   C350    1.405   .     A
C348   H364    1.083   .     S
C349   C351    1.413   .     A
C350   C352    1.424   .     A
C351   C353    1.404   .     A
C351   C381    1.478   .     S
C352   C354    1.405   .     A
C352   C392    1.481   .     S
C353   O403    1.385   .     S
C353   C355    1.417   .     A
C354   O405    1.385   .     S
C354   C356    1.413   .     A
C356   C109    1.467   1_565 S
Cu357  O377    1.955   .     S
Cu357  O376    1.966   .     S
Cu357  O373    1.955   .     S
Cu357  Cu358   2.669   .     S
Cu357  N372    2.005   .     S
Cu357  O380    1.957   .     S
Cu358  O379    1.957   .     S
Cu358  O378    1.955   .     S
Cu358  O375    1.966   .     S
Cu358  N371    2.005   .     S
Cu358  O374    1.955   .     S
H359   C425    1.087   .     S
C381   C382    1.404   .     A
C381   C386    1.402   .     A
C382   H387    1.083   .     S
C382   C383    1.399   .     A
C383   H388    1.082   .     S
C383   C466    1.398   .     S
C384   C385    1.397   .     A
C384   H389    1.082   .     S
C385   H390    1.081   .     S
C386   H391    1.083   .     S
C386   C467    1.397   .     S
C392   C397    1.405   .     A
C392   C393    1.405   .     A
C393   H398    1.083   .     S
C393   C394    1.398   .     A
C394   C395    1.398   .     A
C394   H399    1.082   .     S
C395   H400    1.082   .     S
C395   C396    1.397   .     A
C396   C397    1.397   .     A
C396   H401    1.082   .     S
C397   H402    1.083   .     S
H404   O157    0.988   1_565 S
O405   H160    0.989   1_565 S
O407   H900    0.987   1_554 S
H408   O899    0.987   .     S
O409   H902    0.988   .     S
H410   O901    0.988   1_554 S
C411   C431    1.457   .     S
C411   O457    1.288   .     A
C411   O455    1.291   .     A
C412   O456    1.298   .     A
C412   C432    1.479   .     S
C412   O458    1.292   .     A
C413   C415    1.406   .     A
C413   C421    1.408   .     A
C413   H447    1.083   .     S
C414   C422    1.407   .     A
C414   C416    1.406   .     A
C414   H448    1.083   .     S
C415   H449    1.080   .     S
C415   N453    1.362   .     A
C416   N454    1.364   .     A
C416   H450    1.081   .     S
C417   N453    1.364   .     A
C417   C419    1.410   .     A
C417   H451    1.082   .     S
C418   N454    1.365   .     A
C418   H452    1.081   .     S
C418   C420    1.411   .     A
C419   O489    1.381   .     S
C419   C421    1.425   .     A
C420   C422    1.424   .     A
C420   O491    1.381   .     S
C421   C914    1.510   1_554 S
C422   C913    1.510   .     S
C423   O461    1.285   .     A
C423   O459    1.283   .     A
C423   C425    1.433   .     S
C424   O462    1.285   .     A
C424   C426    1.433   .     S
C424   O460    1.283   .     A
C426   C261    1.335   1_655 S
C426   H278    1.087   1_655 S
C427   H443    1.084   .     S
C427   C437    1.401   .     A
C427   C429    1.385   .     A
C428   C430    1.386   .     A
C428   C438    1.396   .     A
C428   H444    1.084   .     S
C429   C431    1.396   .     A
C429   H445    1.083   .     S
C430   C432    1.405   .     A
C430   H446    1.083   .     S
C431   C433    1.413   .     A
C432   C434    1.424   .     A
C433   C435    1.404   .     A
C433   C463    1.478   .     S
C434   C436    1.405   .     A
C434   C474    1.481   .     S
C435   O485    1.385   .     S
C435   C437    1.417   .     A
C436   O487    1.385   .     S
C436   C438    1.413   .     A
C438   C191    1.467   1_565 S
Cu439  O459    1.955   .     S
Cu439  O458    1.966   .     S
Cu439  O455    1.955   .     S
Cu439  Cu440   2.669   .     S
Cu439  N454    2.005   .     S
Cu439  O462    1.957   .     S
Cu440  O461    1.957   .     S
Cu440  O460    1.955   .     S
Cu440  O457    1.966   .     S
Cu440  N453    2.005   .     S
Cu440  O456    1.955   .     S
H441   C261    1.087   1_655 S
C463   C464    1.404   .     A
C463   C468    1.402   .     A
C464   H469    1.083   .     S
C464   C465    1.399   .     A
C465   H470    1.082   .     S
C465   C302    1.398   1_655 S
C466   C467    1.397   .     A
C466   H471    1.082   .     S
C467   H472    1.081   .     S
C468   H473    1.083   .     S
C468   C303    1.397   1_655 S
C474   C479    1.405   .     A
C474   C475    1.405   .     A
C475   H480    1.083   .     S
C475   C476    1.398   .     A
C476   C477    1.398   .     A
C476   H481    1.082   .     S
C477   H482    1.082   .     S
C477   C478    1.397   .     A
C478   C479    1.397   .     A
C478   H483    1.082   .     S
C479   H484    1.083   .     S
H486   O239    0.988   1_565 S
O487   H242    0.989   1_565 S
O489   H982    0.987   1_554 S
H490   O981    0.987   .     S
O491   H984    0.988   .     S
H492   O983    0.988   1_554 S
C493   C513    1.457   .     S
C493   O539    1.288   .     A
C493   O537    1.291   .     A
C494   O538    1.298   .     A
C494   C514    1.479   .     S
C494   O540    1.292   .     A
C495   C497    1.406   .     A
C495   C503    1.408   .     A
C495   H529    1.083   .     S
C496   C504    1.407   .     A
C496   C498    1.406   .     A
C496   H530    1.083   .     S
C497   H531    1.080   .     S
C497   N535    1.362   .     A
C498   N536    1.364   .     A
C498   H532    1.081   .     S
C499   N535    1.364   .     A
C499   C501    1.410   .     A
C499   H533    1.082   .     S
C500   N536    1.365   .     A
C500   H534    1.081   .     S
C500   C502    1.411   .     A
C501   O571    1.381   .     S
C501   C503    1.425   .     A
C502   C504    1.424   .     A
C502   O573    1.381   .     S
C504   C11     1.510   1_556 S
C505   O543    1.285   .     A
C505   O541    1.283   .     A
C505   C507    1.433   .     S
C506   O544    1.285   .     A
C506   C508    1.433   .     S
C506   O542    1.283   .     A
C507   C672    1.335   1_455 S
C507   H687    1.087   1_455 S
C508   C589    1.335   .     S
C508   H606    1.087   .     S
C509   H525    1.084   .     S
C509   C519    1.401   .     A
C509   C511    1.385   .     A
C510   C512    1.386   .     A
C510   C520    1.396   .     A
C510   H526    1.084   .     S
C511   C513    1.396   .     A
C511   H527    1.083   .     S
C512   C514    1.405   .     A
C512   H528    1.083   .     S
C513   C515    1.413   .     A
C514   C516    1.424   .     A
C515   C517    1.404   .     A
C515   C545    1.478   .     S
C516   C518    1.405   .     A
C516   C556    1.481   .     S
C517   O567    1.385   .     S
C517   C519    1.417   .     A
C518   O569    1.385   .     S
C518   C520    1.413   .     A
C519   C766    1.467   1_545 S
C520   C765    1.467   .     S
Cu521  O541    1.955   .     S
Cu521  O540    1.966   .     S
Cu521  O537    1.955   .     S
Cu521  Cu522   2.669   .     S
Cu521  N536    2.005   .     S
Cu521  O544    1.957   .     S
Cu522  O543    1.957   .     S
Cu522  O542    1.955   .     S
Cu522  O539    1.966   .     S
Cu522  N535    2.005   .     S
Cu522  O538    1.955   .     S
H523   C589    1.087   .     S
H524   C672    1.087   1_455 S
C545   C546    1.404   .     A
C545   C550    1.402   .     A
C546   H551    1.083   .     S
C546   C547    1.399   .     A
C547   H552    1.082   .     S
C547   C630    1.398   .     S
C548   C549    1.397   .     A
C548   H553    1.082   .     S
C548   C711    1.398   1_455 S
C549   H554    1.081   .     S
C549   C714    1.397   1_455 S
C550   H555    1.083   .     S
C550   C631    1.397   .     S
C556   C561    1.405   .     A
C556   C557    1.405   .     A
C557   H562    1.083   .     S
C557   C558    1.398   .     A
C558   C559    1.398   .     A
C558   H563    1.082   .     S
C559   H564    1.082   .     S
C559   C560    1.397   .     A
C560   C561    1.397   .     A
C560   H565    1.082   .     S
C561   H566    1.083   .     S
O567   H814    0.988   1_545 S
H568   O813    0.988   .     S
O569   H816    0.989   .     S
H570   O815    0.989   1_545 S
H572   O79     0.987   1_556 S
O573   H82     0.988   1_556 S
C575   C595    1.457   .     S
C575   O621    1.288   .     A
C575   O619    1.291   .     A
C576   O620    1.298   .     A
C576   C596    1.479   .     S
C576   O622    1.292   .     A
C577   C579    1.406   .     A
C577   C585    1.408   .     A
C577   H611    1.083   .     S
C578   C586    1.407   .     A
C578   C580    1.406   .     A
C578   H612    1.083   .     S
C579   H613    1.080   .     S
C579   N617    1.362   .     A
C580   N618    1.364   .     A
C580   H614    1.081   .     S
C581   N617    1.364   .     A
C581   C583    1.410   .     A
C581   H615    1.082   .     S
C582   N618    1.365   .     A
C582   H616    1.081   .     S
C582   C584    1.411   .     A
C583   O653    1.381   .     S
C583   C585    1.425   .     A
C584   C586    1.424   .     A
C584   O655    1.381   .     S
C586   C93     1.510   1_556 S
C587   O625    1.285   .     A
C587   O623    1.283   .     A
C587   C589    1.433   .     S
C588   O626    1.285   .     A
C588   C590    1.433   .     S
C588   O624    1.283   .     A
C590   C671    1.335   .     S
C590   H688    1.087   .     S
C591   H607    1.084   .     S
C591   C601    1.401   .     A
C591   C593    1.385   .     A
C592   C594    1.386   .     A
C592   C602    1.396   .     A
C592   H608    1.084   .     S
C593   C595    1.396   .     A
C593   H609    1.083   .     S
C594   C596    1.405   .     A
C594   H610    1.083   .     S
C595   C597    1.413   .     A
C596   C598    1.424   .     A
C597   C599    1.404   .     A
C597   C627    1.478   .     S
C598   C600    1.405   .     A
C598   C638    1.481   .     S
C599   O649    1.385   .     S
C599   C601    1.417   .     A
C600   O651    1.385   .     S
C600   C602    1.413   .     A
C601   C848    1.467   1_545 S
C602   C847    1.467   .     S
Cu603  O623    1.955   .     S
Cu603  O622    1.966   .     S
Cu603  O619    1.955   .     S
Cu603  Cu604   2.669   .     S
Cu603  N618    2.005   .     S
Cu603  O626    1.957   .     S
Cu604  O625    1.957   .     S
Cu604  O624    1.955   .     S
Cu604  O621    1.966   .     S
Cu604  N617    2.005   .     S
Cu604  O620    1.955   .     S
H605   C671    1.087   .     S
C627   C628    1.404   .     A
C627   C632    1.402   .     A
C628   H633    1.083   .     S
C628   C629    1.399   .     A
C629   H634    1.082   .     S
C629   C712    1.398   .     S
C630   C631    1.397   .     A
C630   H635    1.082   .     S
C631   H636    1.081   .     S
C632   H637    1.083   .     S
C632   C713    1.397   .     S
C638   C643    1.405   .     A
C638   C639    1.405   .     A
C639   H644    1.083   .     S
C639   C640    1.398   .     A
C640   C641    1.398   .     A
C640   H645    1.082   .     S
C641   H646    1.082   .     S
C641   C642    1.397   .     A
C642   C643    1.397   .     A
C642   H647    1.082   .     S
C643   H648    1.083   .     S
O649   H896    0.988   1_545 S
H650   O895    0.988   .     S
O651   H898    0.989   .     S
H652   O897    0.989   1_545 S
H654   O161    0.987   1_556 S
O655   H164    0.988   1_556 S
C657   C677    1.457   .     S
C657   O703    1.288   .     A
C657   O701    1.291   .     A
C658   O702    1.298   .     A
C658   C678    1.479   .     S
C658   O704    1.292   .     A
C659   C661    1.406   .     A
C659   C667    1.408   .     A
C659   H693    1.083   .     S
C660   C668    1.407   .     A
C660   C662    1.406   .     A
C660   H694    1.083   .     S
C661   H695    1.080   .     S
C661   N699    1.362   .     A
C662   N700    1.364   .     A
C662   H696    1.081   .     S
C663   N699    1.364   .     A
C663   C665    1.410   .     A
C663   H697    1.082   .     S
C664   N700    1.365   .     A
C664   H698    1.081   .     S
C664   C666    1.411   .     A
C665   O735    1.381   .     S
C665   C667    1.425   .     A
C666   C668    1.424   .     A
C666   O737    1.381   .     S
C668   C175    1.510   1_556 S
C669   O707    1.285   .     A
C669   O705    1.283   .     A
C669   C671    1.433   .     S
C670   O708    1.285   .     A
C670   C672    1.433   .     S
C670   O706    1.283   .     A
C672   C507    1.335   1_655 S
C672   H524    1.087   1_655 S
C673   H689    1.084   .     S
C673   C683    1.401   .     A
C673   C675    1.385   .     A
C674   C676    1.386   .     A
C674   C684    1.396   .     A
C674   H690    1.084   .     S
C675   C677    1.396   .     A
C675   H691    1.083   .     S
C676   C678    1.405   .     A
C676   H692    1.083   .     S
C677   C679    1.413   .     A
C678   C680    1.424   .     A
C679   C681    1.404   .     A
C679   C709    1.478   .     S
C680   C682    1.405   .     A
C680   C720    1.481   .     S
C681   O731    1.385   .     S
C681   C683    1.417   .     A
C682   O733    1.385   .     S
C682   C684    1.413   .     A
C683   C930    1.467   1_545 S
C684   C929    1.467   .     S
Cu685  O705    1.955   .     S
Cu685  O704    1.966   .     S
Cu685  O701    1.955   .     S
Cu685  Cu686   2.669   .     S
Cu685  N700    2.005   .     S
Cu685  O708    1.957   .     S
Cu686  O707    1.957   .     S
Cu686  O706    1.955   .     S
Cu686  O703    1.966   .     S
Cu686  N699    2.005   .     S
Cu686  O702    1.955   .     S
H687   C507    1.087   1_655 S
C709   C710    1.404   .     A
C709   C714    1.402   .     A
C710   H715    1.083   .     S
C710   C711    1.399   .     A
C711   H716    1.082   .     S
C711   C548    1.398   1_655 S
C712   C713    1.397   .     A
C712   H717    1.082   .     S
C713   H718    1.081   .     S
C714   H719    1.083   .     S
C714   C549    1.397   1_655 S
C720   C725    1.405   .     A
C720   C721    1.405   .     A
C721   H726    1.083   .     S
C721   C722    1.398   .     A
C722   C723    1.398   .     A
C722   H727    1.082   .     S
C723   H728    1.082   .     S
C723   C724    1.397   .     A
C724   C725    1.397   .     A
C724   H729    1.082   .     S
C725   H730    1.083   .     S
O731   H978    0.988   1_545 S
H732   O977    0.988   .     S
O733   H980    0.989   .     S
H734   O979    0.989   1_545 S
H736   O243    0.987   1_556 S
O737   H246    0.988   1_556 S
C739   C759    1.457   .     S
C739   O785    1.288   .     A
C739   O783    1.291   .     A
C740   O784    1.298   .     A
C740   C760    1.479   .     S
C740   O786    1.292   .     A
C741   C743    1.406   .     A
C741   C749    1.408   .     A
C741   H775    1.083   .     S
C742   C750    1.407   .     A
C742   C744    1.406   .     A
C742   H776    1.083   .     S
C743   H777    1.080   .     S
C743   N781    1.362   .     A
C744   N782    1.364   .     A
C744   H778    1.081   .     S
C745   N781    1.364   .     A
C745   C747    1.410   .     A
C745   H779    1.082   .     S
C746   N782    1.365   .     A
C746   H780    1.081   .     S
C746   C748    1.411   .     A
C747   O817    1.381   .     S
C747   C749    1.425   .     A
C748   C750    1.424   .     A
C748   O819    1.381   .     S
C750   C257    1.510   1_556 S
C751   O789    1.285   .     A
C751   O787    1.283   .     A
C751   C753    1.433   .     S
C752   O790    1.285   .     A
C752   C754    1.433   .     S
C752   O788    1.283   .     A
C753   C918    1.335   1_455 S
C753   H933    1.087   1_455 S
C754   C835    1.335   .     S
C754   H852    1.087   .     S
C755   H771    1.084   .     S
C755   C765    1.401   .     A
C755   C757    1.385   .     A
C756   C758    1.386   .     A
C756   C766    1.396   .     A
C756   H772    1.084   .     S
C757   C759    1.396   .     A
C757   H773    1.083   .     S
C758   C760    1.405   .     A
C758   H774    1.083   .     S
C759   C761    1.413   .     A
C760   C762    1.424   .     A
C761   C763    1.404   .     A
C761   C791    1.478   .     S
C762   C764    1.405   .     A
C762   C802    1.481   .     S
C763   O813    1.385   .     S
C763   C765    1.417   .     A
C764   O815    1.385   .     S
C764   C766    1.413   .     A
C766   C519    1.467   1_565 S
Cu767  O787    1.955   .     S
Cu767  O786    1.966   .     S
Cu767  O783    1.955   .     S
Cu767  Cu768   2.669   .     S
Cu767  N782    2.005   .     S
Cu767  O790    1.957   .     S
Cu768  O789    1.957   .     S
Cu768  O788    1.955   .     S
Cu768  O785    1.966   .     S
Cu768  N781    2.005   .     S
Cu768  O784    1.955   .     S
H769   C835    1.087   .     S
H770   C918    1.087   1_455 S
C791   C792    1.404   .     A
C791   C796    1.402   .     A
C792   H797    1.083   .     S
C792   C793    1.399   .     A
C793   H798    1.082   .     S
C793   C876    1.398   .     S
C794   C795    1.397   .     A
C794   H799    1.082   .     S
C794   C957    1.398   1_455 S
C795   H800    1.081   .     S
C795   C960    1.397   1_455 S
C796   H801    1.083   .     S
C796   C877    1.397   .     S
C802   C807    1.405   .     A
C802   C803    1.405   .     A
C803   H808    1.083   .     S
C803   C804    1.398   .     A
C804   C805    1.398   .     A
C804   H809    1.082   .     S
C805   H810    1.082   .     S
C805   C806    1.397   .     A
C806   C807    1.397   .     A
C806   H811    1.082   .     S
C807   H812    1.083   .     S
H814   O567    0.988   1_565 S
O815   H570    0.989   1_565 S
H818   O325    0.987   1_556 S
O819   H328    0.988   1_556 S
C821   C841    1.457   .     S
C821   O867    1.288   .     A
C821   O865    1.291   .     A
C822   O866    1.298   .     A
C822   C842    1.479   .     S
C822   O868    1.292   .     A
C823   C825    1.406   .     A
C823   C831    1.408   .     A
C823   H857    1.083   .     S
C824   C832    1.407   .     A
C824   C826    1.406   .     A
C824   H858    1.083   .     S
C825   H859    1.080   .     S
C825   N863    1.362   .     A
C826   N864    1.364   .     A
C826   H860    1.081   .     S
C827   N863    1.364   .     A
C827   C829    1.410   .     A
C827   H861    1.082   .     S
C828   N864    1.365   .     A
C828   H862    1.081   .     S
C828   C830    1.411   .     A
C829   O899    1.381   .     S
C829   C831    1.425   .     A
C830   C832    1.424   .     A
C830   O901    1.381   .     S
C832   C339    1.510   1_556 S
C833   O871    1.285   .     A
C833   O869    1.283   .     A
C833   C835    1.433   .     S
C834   O872    1.285   .     A
C834   C836    1.433   .     S
C834   O870    1.283   .     A
C836   C917    1.335   .     S
C836   H934    1.087   .     S
C837   H853    1.084   .     S
C837   C847    1.401   .     A
C837   C839    1.385   .     A
C838   C840    1.386   .     A
C838   C848    1.396   .     A
C838   H854    1.084   .     S
C839   C841    1.396   .     A
C839   H855    1.083   .     S
C840   C842    1.405   .     A
C840   H856    1.083   .     S
C841   C843    1.413   .     A
C842   C844    1.424   .     A
C843   C845    1.404   .     A
C843   C873    1.478   .     S
C844   C846    1.405   .     A
C844   C884    1.481   .     S
C845   O895    1.385   .     S
C845   C847    1.417   .     A
C846   O897    1.385   .     S
C846   C848    1.413   .     A
C848   C601    1.467   1_565 S
Cu849  O869    1.955   .     S
Cu849  O868    1.966   .     S
Cu849  O865    1.955   .     S
Cu849  Cu850   2.669   .     S
Cu849  N864    2.005   .     S
Cu849  O872    1.957   .     S
Cu850  O871    1.957   .     S
Cu850  O870    1.955   .     S
Cu850  O867    1.966   .     S
Cu850  N863    2.005   .     S
Cu850  O866    1.955   .     S
H851   C917    1.087   .     S
C873   C874    1.404   .     A
C873   C878    1.402   .     A
C874   H879    1.083   .     S
C874   C875    1.399   .     A
C875   H880    1.082   .     S
C875   C958    1.398   .     S
C876   C877    1.397   .     A
C876   H881    1.082   .     S
C877   H882    1.081   .     S
C878   H883    1.083   .     S
C878   C959    1.397   .     S
C884   C889    1.405   .     A
C884   C885    1.405   .     A
C885   H890    1.083   .     S
C885   C886    1.398   .     A
C886   C887    1.398   .     A
C886   H891    1.082   .     S
C887   H892    1.082   .     S
C887   C888    1.397   .     A
C888   C889    1.397   .     A
C888   H893    1.082   .     S
C889   H894    1.083   .     S
H896   O649    0.988   1_565 S
O897   H652    0.989   1_565 S
H900   O407    0.987   1_556 S
O901   H410    0.988   1_556 S
C903   C923    1.457   .     S
C903   O949    1.288   .     A
C903   O947    1.291   .     A
C904   O948    1.298   .     A
C904   C924    1.479   .     S
C904   O950    1.292   .     A
C905   C907    1.406   .     A
C905   C913    1.408   .     A
C905   H939    1.083   .     S
C906   C914    1.407   .     A
C906   C908    1.406   .     A
C906   H940    1.083   .     S
C907   H941    1.080   .     S
C907   N945    1.362   .     A
C908   N946    1.364   .     A
C908   H942    1.081   .     S
C909   N945    1.364   .     A
C909   C911    1.410   .     A
C909   H943    1.082   .     S
C910   N946    1.365   .     A
C910   H944    1.081   .     S
C910   C912    1.411   .     A
C911   O981    1.381   .     S
C911   C913    1.425   .     A
C912   C914    1.424   .     A
C912   O983    1.381   .     S
C914   C421    1.510   1_556 S
C915   O953    1.285   .     A
C915   O951    1.283   .     A
C915   C917    1.433   .     S
C916   O954    1.285   .     A
C916   C918    1.433   .     S
C916   O952    1.283   .     A
C918   C753    1.335   1_655 S
C918   H770    1.087   1_655 S
C919   H935    1.084   .     S
C919   C929    1.401   .     A
C919   C921    1.385   .     A
C920   C922    1.386   .     A
C920   C930    1.396   .     A
C920   H936    1.084   .     S
C921   C923    1.396   .     A
C921   H937    1.083   .     S
C922   C924    1.405   .     A
C922   H938    1.083   .     S
C923   C925    1.413   .     A
C924   C926    1.424   .     A
C925   C927    1.404   .     A
C925   C955    1.478   .     S
C926   C928    1.405   .     A
C926   C966    1.481   .     S
C927   O977    1.385   .     S
C927   C929    1.417   .     A
C928   O979    1.385   .     S
C928   C930    1.413   .     A
C930   C683    1.467   1_565 S
Cu931  O951    1.955   .     S
Cu931  O950    1.966   .     S
Cu931  O947    1.955   .     S
Cu931  Cu932   2.669   .     S
Cu931  N946    2.005   .     S
Cu931  O954    1.957   .     S
Cu932  O953    1.957   .     S
Cu932  O952    1.955   .     S
Cu932  O949    1.966   .     S
Cu932  N945    2.005   .     S
Cu932  O948    1.955   .     S
H933   C753    1.087   1_655 S
C955   C956    1.404   .     A
C955   C960    1.402   .     A
C956   H961    1.083   .     S
C956   C957    1.399   .     A
C957   H962    1.082   .     S
C957   C794    1.398   1_655 S
C958   C959    1.397   .     A
C958   H963    1.082   .     S
C959   H964    1.081   .     S
C960   H965    1.083   .     S
C960   C795    1.397   1_655 S
C966   C971    1.405   .     A
C966   C967    1.405   .     A
C967   H972    1.083   .     S
C967   C968    1.398   .     A
C968   C969    1.398   .     A
C968   H973    1.082   .     S
C969   H974    1.082   .     S
C969   C970    1.397   .     A
C970   C971    1.397   .     A
C970   H975    1.082   .     S
C971   H976    1.083   .     S
H978   O731    0.988   1_565 S
O979   H734    0.989   1_565 S
H982   O489    0.987   1_556 S
O983   H492    0.988   1_556 S
