data_str_m2_o1_o18_pcu_sym.76
_audit_creation_date              2020-01-03
_audit_creation_method            'Materials Studio'
_symmetry_space_group_name_H-M    'P1'
_symmetry_Int_Tables_number       1
_symmetry_cell_setting            triclinic
loop_
_symmetry_equiv_pos_as_xyz
  x,y,z
_cell_length_a                    28.6495
_cell_length_b                    32.4990
_cell_length_c                    31.0264
_cell_angle_alpha                 89.1282
_cell_angle_beta                  73.0337
_cell_angle_gamma                 89.7804
loop_
_atom_site_label
_atom_site_type_symbol
_atom_site_fract_x
_atom_site_fract_y
_atom_site_fract_z
_atom_site_U_iso_or_equiv
_atom_site_adp_type
_atom_site_occupancy
C1     C     0.00003   0.08743   0.25021   0.00000  Uiso   1.00
C2     C     0.01687   0.02194   0.20864   0.00000  Uiso   1.00
C3     C     0.33208   0.29027   0.24951   0.00000  Uiso   1.00
C4     C     0.00011   0.04253   0.25014   0.00000  Uiso   1.00
C5     C     0.18327   0.13986   0.27721   0.00000  Uiso   1.00
C6     C     0.15043   0.19262   0.22181   0.00000  Uiso   1.00
C7     C     0.13266   0.14121   0.27868   0.00000  Uiso   1.00
C8     C     0.20027   0.19363   0.22299   0.00000  Uiso   1.00
C9     C     0.30539   0.16793   0.33629   0.00000  Uiso   1.00
C10    C     0.02805   0.16636   0.16350   0.00000  Uiso   1.00
C11    C     0.28870   0.17778   0.38481   0.00000  Uiso   1.00
C12    C    -0.00000   0.24572   0.24923   0.00000  Uiso   1.00
C13    C     0.04412   0.16960   0.11344   0.00000  Uiso   1.00
C14    C     0.30094   0.21854   0.44560   0.00000  Uiso   1.00
C15    C     0.02134   0.18041   0.04448   0.00000  Uiso   1.00
C16    C     0.31902   0.20145   0.40304   0.00000  Uiso   1.00
C17    C     0.00826   0.17414   0.09092   0.00000  Uiso   1.00
C18    C     0.23967   0.17047   0.41066   0.00000  Uiso   1.00
C19    C     0.09436   0.17166   0.08790   0.00000  Uiso   1.00
C20    C     0.21954   0.19434   0.44964   0.00000  Uiso   1.00
C21    C     0.10614   0.18810   0.04325   0.00000  Uiso   1.00
C22    C     0.25163   0.21431   0.46954   0.00000  Uiso   1.00
C23    C     0.18534   0.22178   0.03895   0.00000  Uiso   1.00
C24    C     0.07020   0.18693   0.02030   0.00000  Uiso   1.00
C25    C     0.16891   0.19610   0.47182   0.00000  Uiso   1.00
C26    C     0.15370   0.20128   0.01886   0.00000  Uiso   1.00
C27    C     0.13333   0.14869   0.10400   0.00000  Uiso   1.00
C28    C     0.16419   0.11890   0.06922   0.00000  Uiso   1.00
C29    C     0.21357   0.13192   0.40205   0.00000  Uiso   1.00
C30    C     0.20125   0.10194   0.44226   0.00000  Uiso   1.00
C31    C     0.29080   0.04343   0.33448   0.00000  Uiso   1.00
C32    C     0.32820   0.05855   0.35691   0.00000  Uiso   1.00
C33    C     0.01257   0.29026   0.16448   0.00000  Uiso   1.00
C34    C     0.13315   0.19606   0.44864   0.00000  Uiso   1.00
C35    C     0.06363   0.27672   0.13773   0.00000  Uiso   1.00
C36    C     0.30171   0.28573   0.33531   0.00000  Uiso   1.00
C37    C     0.24775   0.27358   0.34863   0.00000  Uiso   1.00
C38    C     0.04501   0.04531   0.16615   0.00000  Uiso   1.00
C39    C     0.09923   0.04628   0.16312   0.00000  Uiso   1.00
C40    C     0.23392   0.22945   0.01330   0.00000  Uiso   1.00
C41    C     0.08377   0.19206   0.47342   0.00000  Uiso   1.00
C42    C     0.31448   0.02051   0.29125   0.00000  Uiso   1.00
C43    C     0.01117   0.31221   0.20809   0.00000  Uiso   1.00
C44    C     0.31667   0.31052   0.29123   0.00000  Uiso   1.00
Cu45   Cu    0.04689   0.16667   0.25000   0.00000  Uiso   1.00
Cu46   Cu    0.28645   0.16666   0.25000   0.00000  Uiso   1.00
H47    H     0.25827   0.24576   0.02809   0.00000  Uiso   1.00
H48    H     0.15750   0.17008   0.11478   0.00000  Uiso   1.00
H49    H     0.11615   0.12873   0.13333   0.00000  Uiso   1.00
H50    H     0.19054   0.07175   0.43175   0.00000  Uiso   1.00
H51    H     0.23339   0.09725   0.45494   0.00000  Uiso   1.00
H52    H     0.17015   0.11343   0.46983   0.00000  Uiso   1.00
H53    H     0.18045   0.13866   0.39195   0.00000  Uiso   1.00
H54    H     0.23750   0.11494   0.37396   0.00000  Uiso   1.00
H55    H     0.19325   0.25265   0.08960   0.00000  Uiso   1.00
H56    H     0.11723   0.20406   0.39215   0.00000  Uiso   1.00
H57    H     0.01807   0.03282   0.36258   0.00000  Uiso   1.00
H58    H     0.05632   0.19142   0.45587   0.00000  Uiso   1.00
H59    H     0.01827   0.08237   0.33557   0.00000  Uiso   1.00
H60    H     0.30917   0.07238   0.38988   0.00000  Uiso   1.00
H61    H     0.26998   0.06952   0.32653   0.00000  Uiso   1.00
H62    H     0.26295   0.02480   0.35919   0.00000  Uiso   1.00
H63    H     0.07931   0.25646   0.15881   0.00000  Uiso   1.00
H64    H     0.06147   0.25931   0.10788   0.00000  Uiso   1.00
H65    H     0.08807   0.30334   0.12541   0.00000  Uiso   1.00
H66    H     0.32212   0.26264   0.17160   0.00000  Uiso   1.00
H67    H     0.32955   0.30978   0.14304   0.00000  Uiso   1.00
H68    H     0.24136   0.24918   0.32647   0.00000  Uiso   1.00
H69    H     0.30315   0.17187   0.10907   0.00000  Uiso   1.00
H70    H     0.23648   0.26161   0.38382   0.00000  Uiso   1.00
H71    H     0.22428   0.30028   0.34646   0.00000  Uiso   1.00
H72    H     0.32440   0.25769   0.33270   0.00000  Uiso   1.00
H73    H     0.30921   0.30289   0.36316   0.00000  Uiso   1.00
H74    H     0.12087   0.05399   0.12816   0.00000  Uiso   1.00
H75    H     0.10633   0.06955   0.18624   0.00000  Uiso   1.00
H76    H     0.11186   0.01590   0.17220   0.00000  Uiso   1.00
H77    H     0.04081   0.03153   0.13514   0.00000  Uiso   1.00
H78    H     0.03137   0.07721   0.16539   0.00000  Uiso   1.00
H79    H     0.17953   0.08691   0.30774   0.00000  Uiso   1.00
H80    H     0.02321   0.20755   0.38391   0.00000  Uiso   1.00
H81    H     0.16231   0.22531   0.16690   0.00000  Uiso   1.00
H82    H     0.10866   0.11319   0.33643   0.00000  Uiso   1.00
H83    H     0.21629   0.24746   0.19527   0.00000  Uiso   1.00
H84    H     0.32514   0.23614   0.45936   0.00000  Uiso   1.00
H85    H     0.32642   0.18115   0.02765   0.00000  Uiso   1.00
H86    H     0.18525   0.09842   0.08565   0.00000  Uiso   1.00
H87    H     0.14038   0.09960   0.05516   0.00000  Uiso   1.00
H88    H     0.19132   0.13526   0.04154   0.00000  Uiso   1.00
N89    N     0.11736   0.16668   0.24999   0.00000  Uiso   1.00
N90    N     0.21597   0.16666   0.25001   0.00000  Uiso   1.00
O91    O     0.03958   0.10655   0.25000   0.00000  Uiso   1.00
O92    O     0.14661   0.20471   0.40289   0.00000  Uiso   1.00
O93    O     0.20050   0.11172   0.30249   0.00000  Uiso   1.00
O94    O     0.13428   0.21736   0.19278   0.00000  Uiso   1.00
O95    O     0.09819   0.11757   0.30897   0.00000  Uiso   1.00
O96    O     0.23353   0.22138   0.19735   0.00000  Uiso   1.00
O97    O     0.29375   0.22678   0.25000   0.00000  Uiso   1.00
O98    O     0.29372   0.10654   0.25000   0.00000  Uiso   1.00
O99    O     0.03961   0.22679   0.25000   0.00000  Uiso   1.00
O100   O     0.01852   0.16668   0.31492   0.00000  Uiso   1.00
O101   O     0.31481   0.16666   0.18508   0.00000  Uiso   1.00
O102   O     0.27267   0.16667   0.31492   0.00000  Uiso   1.00
O103   O     0.06067   0.16667   0.18508   0.00000  Uiso   1.00
O104   O     0.16687   0.23788   0.08145   0.00000  Uiso   1.00
C105   C     0.33336   0.08743   0.25021   0.00000  Uiso   1.00
C106   C     0.35020   0.02194   0.20864   0.00000  Uiso   1.00
C107   C     0.66541   0.29027   0.24951   0.00000  Uiso   1.00
C108   C     0.33344   0.04253   0.25014   0.00000  Uiso   1.00
C109   C     0.51660   0.13986   0.27721   0.00000  Uiso   1.00
C110   C     0.48376   0.19262   0.22181   0.00000  Uiso   1.00
C111   C     0.46600   0.14121   0.27868   0.00000  Uiso   1.00
C112   C     0.53360   0.19363   0.22299   0.00000  Uiso   1.00
C113   C     0.63872   0.16793   0.33629   0.00000  Uiso   1.00
C114   C     0.36139   0.16636   0.16350   0.00000  Uiso   1.00
C115   C     0.62204   0.17778   0.38481   0.00000  Uiso   1.00
C116   C     0.33333   0.24572   0.24923   0.00000  Uiso   1.00
C117   C     0.37745   0.16960   0.11344   0.00000  Uiso   1.00
C118   C     0.63428   0.21854   0.44560   0.00000  Uiso   1.00
C119   C     0.35467   0.18041   0.04448   0.00000  Uiso   1.00
C120   C     0.65235   0.20145   0.40304   0.00000  Uiso   1.00
C121   C     0.34159   0.17414   0.09092   0.00000  Uiso   1.00
C122   C     0.57300   0.17047   0.41066   0.00000  Uiso   1.00
C123   C     0.42769   0.17166   0.08790   0.00000  Uiso   1.00
C124   C     0.55287   0.19434   0.44964   0.00000  Uiso   1.00
C125   C     0.43947   0.18810   0.04325   0.00000  Uiso   1.00
C126   C     0.58496   0.21431   0.46954   0.00000  Uiso   1.00
C127   C     0.51867   0.22178   0.03895   0.00000  Uiso   1.00
C128   C     0.40353   0.18693   0.02030   0.00000  Uiso   1.00
C129   C     0.50224   0.19610   0.47182   0.00000  Uiso   1.00
C130   C     0.48703   0.20128   0.01886   0.00000  Uiso   1.00
C131   C     0.46666   0.14869   0.10400   0.00000  Uiso   1.00
C132   C     0.49752   0.11890   0.06922   0.00000  Uiso   1.00
C133   C     0.54690   0.13192   0.40205   0.00000  Uiso   1.00
C134   C     0.53458   0.10194   0.44226   0.00000  Uiso   1.00
C135   C     0.62413   0.04343   0.33448   0.00000  Uiso   1.00
C136   C     0.66153   0.05855   0.35691   0.00000  Uiso   1.00
C137   C     0.34590   0.29026   0.16448   0.00000  Uiso   1.00
C138   C     0.46649   0.19606   0.44864   0.00000  Uiso   1.00
C139   C     0.39697   0.27672   0.13773   0.00000  Uiso   1.00
C140   C     0.63504   0.28573   0.33531   0.00000  Uiso   1.00
C141   C     0.58108   0.27358   0.34863   0.00000  Uiso   1.00
C142   C     0.37834   0.04531   0.16615   0.00000  Uiso   1.00
C143   C     0.43256   0.04628   0.16312   0.00000  Uiso   1.00
C144   C     0.56725   0.22945   0.01330   0.00000  Uiso   1.00
C145   C     0.41710   0.19206   0.47342   0.00000  Uiso   1.00
C146   C     0.64781   0.02051   0.29125   0.00000  Uiso   1.00
C147   C     0.34450   0.31221   0.20809   0.00000  Uiso   1.00
C148   C     0.65001   0.31052   0.29123   0.00000  Uiso   1.00
Cu149  Cu    0.38022   0.16667   0.25000   0.00000  Uiso   1.00
Cu150  Cu    0.61978   0.16666   0.25000   0.00000  Uiso   1.00
H151   H     0.59161   0.24576   0.02809   0.00000  Uiso   1.00
H152   H     0.49084   0.17008   0.11478   0.00000  Uiso   1.00
H153   H     0.44948   0.12873   0.13333   0.00000  Uiso   1.00
H154   H     0.52387   0.07175   0.43175   0.00000  Uiso   1.00
H155   H     0.56672   0.09725   0.45494   0.00000  Uiso   1.00
H156   H     0.50348   0.11343   0.46983   0.00000  Uiso   1.00
H157   H     0.51378   0.13866   0.39195   0.00000  Uiso   1.00
H158   H     0.57084   0.11494   0.37396   0.00000  Uiso   1.00
H159   H     0.52658   0.25265   0.08960   0.00000  Uiso   1.00
H160   H     0.45057   0.20406   0.39215   0.00000  Uiso   1.00
H161   H     0.35140   0.03282   0.36258   0.00000  Uiso   1.00
H162   H     0.38965   0.19142   0.45587   0.00000  Uiso   1.00
H163   H     0.35160   0.08237   0.33557   0.00000  Uiso   1.00
H164   H     0.64251   0.07238   0.38988   0.00000  Uiso   1.00
H165   H     0.60332   0.06952   0.32653   0.00000  Uiso   1.00
H166   H     0.59629   0.02480   0.35919   0.00000  Uiso   1.00
H167   H     0.41264   0.25646   0.15881   0.00000  Uiso   1.00
H168   H     0.39480   0.25931   0.10788   0.00000  Uiso   1.00
H169   H     0.42140   0.30334   0.12541   0.00000  Uiso   1.00
H170   H     0.65546   0.26264   0.17160   0.00000  Uiso   1.00
H171   H     0.66289   0.30978   0.14304   0.00000  Uiso   1.00
H172   H     0.57470   0.24918   0.32647   0.00000  Uiso   1.00
H173   H     0.63648   0.17187   0.10907   0.00000  Uiso   1.00
H174   H     0.56981   0.26161   0.38382   0.00000  Uiso   1.00
H175   H     0.55761   0.30028   0.34646   0.00000  Uiso   1.00
H176   H     0.65773   0.25769   0.33270   0.00000  Uiso   1.00
H177   H     0.64254   0.30289   0.36316   0.00000  Uiso   1.00
H178   H     0.45421   0.05399   0.12816   0.00000  Uiso   1.00
H179   H     0.43966   0.06955   0.18624   0.00000  Uiso   1.00
H180   H     0.44519   0.01590   0.17220   0.00000  Uiso   1.00
H181   H     0.37414   0.03153   0.13514   0.00000  Uiso   1.00
H182   H     0.36470   0.07721   0.16539   0.00000  Uiso   1.00
H183   H     0.51286   0.08691   0.30774   0.00000  Uiso   1.00
H184   H     0.35655   0.20755   0.38391   0.00000  Uiso   1.00
H185   H     0.49564   0.22531   0.16690   0.00000  Uiso   1.00
H186   H     0.44199   0.11319   0.33643   0.00000  Uiso   1.00
H187   H     0.54963   0.24746   0.19527   0.00000  Uiso   1.00
H188   H     0.65847   0.23614   0.45936   0.00000  Uiso   1.00
H189   H     0.65975   0.18115   0.02765   0.00000  Uiso   1.00
H190   H     0.51858   0.09842   0.08565   0.00000  Uiso   1.00
H191   H     0.47371   0.09960   0.05516   0.00000  Uiso   1.00
H192   H     0.52465   0.13526   0.04154   0.00000  Uiso   1.00
N193   N     0.45069   0.16668   0.24999   0.00000  Uiso   1.00
N194   N     0.54931   0.16666   0.25001   0.00000  Uiso   1.00
O195   O     0.37291   0.10655   0.25000   0.00000  Uiso   1.00
O196   O     0.47994   0.20471   0.40289   0.00000  Uiso   1.00
O197   O     0.53383   0.11172   0.30249   0.00000  Uiso   1.00
O198   O     0.46761   0.21736   0.19278   0.00000  Uiso   1.00
O199   O     0.43152   0.11757   0.30897   0.00000  Uiso   1.00
O200   O     0.56686   0.22138   0.19735   0.00000  Uiso   1.00
O201   O     0.62709   0.22678   0.25000   0.00000  Uiso   1.00
O202   O     0.62706   0.10654   0.25000   0.00000  Uiso   1.00
O203   O     0.37294   0.22679   0.25000   0.00000  Uiso   1.00
O204   O     0.35186   0.16668   0.31492   0.00000  Uiso   1.00
O205   O     0.64814   0.16666   0.18508   0.00000  Uiso   1.00
O206   O     0.60600   0.16667   0.31492   0.00000  Uiso   1.00
O207   O     0.39400   0.16667   0.18508   0.00000  Uiso   1.00
O208   O     0.50020   0.23788   0.08145   0.00000  Uiso   1.00
C209   C     0.66669   0.08743   0.25021   0.00000  Uiso   1.00
C210   C     0.68353   0.02194   0.20864   0.00000  Uiso   1.00
C211   C     0.99874   0.29027   0.24951   0.00000  Uiso   1.00
C212   C     0.66677   0.04253   0.25014   0.00000  Uiso   1.00
C213   C     0.84993   0.13986   0.27721   0.00000  Uiso   1.00
C214   C     0.81710   0.19262   0.22181   0.00000  Uiso   1.00
C215   C     0.79933   0.14121   0.27868   0.00000  Uiso   1.00
C216   C     0.86694   0.19363   0.22299   0.00000  Uiso   1.00
C217   C     0.97205   0.16793   0.33629   0.00000  Uiso   1.00
C218   C     0.69472   0.16636   0.16350   0.00000  Uiso   1.00
C219   C     0.95537   0.17778   0.38481   0.00000  Uiso   1.00
C220   C     0.66667   0.24572   0.24923   0.00000  Uiso   1.00
C221   C     0.71078   0.16960   0.11344   0.00000  Uiso   1.00
C222   C     0.96761   0.21854   0.44560   0.00000  Uiso   1.00
C223   C     0.68800   0.18041   0.04448   0.00000  Uiso   1.00
C224   C     0.98569   0.20145   0.40304   0.00000  Uiso   1.00
C225   C     0.67493   0.17414   0.09092   0.00000  Uiso   1.00
C226   C     0.90634   0.17047   0.41066   0.00000  Uiso   1.00
C227   C     0.76102   0.17166   0.08790   0.00000  Uiso   1.00
C228   C     0.88621   0.19434   0.44964   0.00000  Uiso   1.00
C229   C     0.77281   0.18810   0.04325   0.00000  Uiso   1.00
C230   C     0.91830   0.21431   0.46954   0.00000  Uiso   1.00
C231   C     0.85201   0.22178   0.03895   0.00000  Uiso   1.00
C232   C     0.73686   0.18693   0.02030   0.00000  Uiso   1.00
C233   C     0.83557   0.19610   0.47182   0.00000  Uiso   1.00
C234   C     0.82036   0.20128   0.01886   0.00000  Uiso   1.00
C235   C     0.80000   0.14869   0.10400   0.00000  Uiso   1.00
C236   C     0.83085   0.11890   0.06922   0.00000  Uiso   1.00
C237   C     0.88024   0.13192   0.40205   0.00000  Uiso   1.00
C238   C     0.86792   0.10194   0.44226   0.00000  Uiso   1.00
C239   C     0.95746   0.04343   0.33448   0.00000  Uiso   1.00
C240   C     0.99486   0.05855   0.35691   0.00000  Uiso   1.00
C241   C     0.67923   0.29026   0.16448   0.00000  Uiso   1.00
C242   C     0.79982   0.19606   0.44864   0.00000  Uiso   1.00
C243   C     0.73030   0.27672   0.13773   0.00000  Uiso   1.00
C244   C     0.96838   0.28573   0.33531   0.00000  Uiso   1.00
C245   C     0.91442   0.27358   0.34863   0.00000  Uiso   1.00
C246   C     0.71168   0.04531   0.16615   0.00000  Uiso   1.00
C247   C     0.76590   0.04628   0.16312   0.00000  Uiso   1.00
C248   C     0.90058   0.22945   0.01330   0.00000  Uiso   1.00
C249   C     0.75043   0.19206   0.47342   0.00000  Uiso   1.00
C250   C     0.98114   0.02051   0.29125   0.00000  Uiso   1.00
C251   C     0.67784   0.31221   0.20809   0.00000  Uiso   1.00
C252   C     0.98334   0.31052   0.29123   0.00000  Uiso   1.00
Cu253  Cu    0.71355   0.16667   0.25000   0.00000  Uiso   1.00
Cu254  Cu    0.95311   0.16666   0.25000   0.00000  Uiso   1.00
H255   H     0.92494   0.24576   0.02809   0.00000  Uiso   1.00
H256   H     0.82417   0.17008   0.11478   0.00000  Uiso   1.00
H257   H     0.78281   0.12873   0.13333   0.00000  Uiso   1.00
H258   H     0.85721   0.07175   0.43175   0.00000  Uiso   1.00
H259   H     0.90005   0.09725   0.45494   0.00000  Uiso   1.00
H260   H     0.83681   0.11343   0.46983   0.00000  Uiso   1.00
H261   H     0.84712   0.13866   0.39195   0.00000  Uiso   1.00
H262   H     0.90417   0.11494   0.37396   0.00000  Uiso   1.00
H263   H     0.85991   0.25265   0.08960   0.00000  Uiso   1.00
H264   H     0.78390   0.20406   0.39215   0.00000  Uiso   1.00
H265   H     0.68473   0.03282   0.36258   0.00000  Uiso   1.00
H266   H     0.72299   0.19142   0.45587   0.00000  Uiso   1.00
H267   H     0.68493   0.08237   0.33557   0.00000  Uiso   1.00
H268   H     0.97584   0.07238   0.38988   0.00000  Uiso   1.00
H269   H     0.93665   0.06952   0.32653   0.00000  Uiso   1.00
H270   H     0.92962   0.02480   0.35919   0.00000  Uiso   1.00
H271   H     0.74598   0.25646   0.15881   0.00000  Uiso   1.00
H272   H     0.72814   0.25931   0.10788   0.00000  Uiso   1.00
H273   H     0.75473   0.30334   0.12541   0.00000  Uiso   1.00
H274   H     0.98879   0.26264   0.17160   0.00000  Uiso   1.00
H275   H     0.99622   0.30978   0.14304   0.00000  Uiso   1.00
H276   H     0.90803   0.24918   0.32647   0.00000  Uiso   1.00
H277   H     0.96982   0.17187   0.10907   0.00000  Uiso   1.00
H278   H     0.90315   0.26161   0.38382   0.00000  Uiso   1.00
H279   H     0.89094   0.30028   0.34646   0.00000  Uiso   1.00
H280   H     0.99106   0.25769   0.33270   0.00000  Uiso   1.00
H281   H     0.97588   0.30289   0.36316   0.00000  Uiso   1.00
H282   H     0.78754   0.05399   0.12816   0.00000  Uiso   1.00
H283   H     0.77299   0.06955   0.18624   0.00000  Uiso   1.00
H284   H     0.77853   0.01590   0.17220   0.00000  Uiso   1.00
H285   H     0.70748   0.03153   0.13514   0.00000  Uiso   1.00
H286   H     0.69803   0.07721   0.16539   0.00000  Uiso   1.00
H287   H     0.84619   0.08691   0.30774   0.00000  Uiso   1.00
H288   H     0.68988   0.20755   0.38391   0.00000  Uiso   1.00
H289   H     0.82898   0.22531   0.16690   0.00000  Uiso   1.00
H290   H     0.77532   0.11319   0.33643   0.00000  Uiso   1.00
H291   H     0.88296   0.24746   0.19527   0.00000  Uiso   1.00
H292   H     0.99180   0.23614   0.45936   0.00000  Uiso   1.00
H293   H     0.99309   0.18115   0.02765   0.00000  Uiso   1.00
H294   H     0.85191   0.09842   0.08565   0.00000  Uiso   1.00
H295   H     0.80705   0.09960   0.05516   0.00000  Uiso   1.00
H296   H     0.85798   0.13526   0.04154   0.00000  Uiso   1.00
N297   N     0.78403   0.16668   0.24999   0.00000  Uiso   1.00
N298   N     0.88264   0.16666   0.25001   0.00000  Uiso   1.00
O299   O     0.70625   0.10655   0.25000   0.00000  Uiso   1.00
O300   O     0.81327   0.20471   0.40289   0.00000  Uiso   1.00
O301   O     0.86716   0.11172   0.30249   0.00000  Uiso   1.00
O302   O     0.80095   0.21736   0.19278   0.00000  Uiso   1.00
O303   O     0.76486   0.11757   0.30897   0.00000  Uiso   1.00
O304   O     0.90020   0.22138   0.19735   0.00000  Uiso   1.00
O305   O     0.96042   0.22678   0.25000   0.00000  Uiso   1.00
O306   O     0.96039   0.10654   0.25000   0.00000  Uiso   1.00
O307   O     0.70628   0.22679   0.25000   0.00000  Uiso   1.00
O308   O     0.68519   0.16668   0.31492   0.00000  Uiso   1.00
O309   O     0.98148   0.16666   0.18508   0.00000  Uiso   1.00
O310   O     0.93933   0.16667   0.31492   0.00000  Uiso   1.00
O311   O     0.72733   0.16667   0.18508   0.00000  Uiso   1.00
O312   O     0.83353   0.23788   0.08145   0.00000  Uiso   1.00
C313   C     0.00003   0.42077   0.25021   0.00000  Uiso   1.00
C314   C     0.01687   0.35527   0.20864   0.00000  Uiso   1.00
C315   C     0.33208   0.62360   0.24951   0.00000  Uiso   1.00
C316   C     0.00011   0.37587   0.25014   0.00000  Uiso   1.00
C317   C     0.18327   0.47320   0.27721   0.00000  Uiso   1.00
C318   C     0.15043   0.52595   0.22181   0.00000  Uiso   1.00
C319   C     0.13266   0.47454   0.27868   0.00000  Uiso   1.00
C320   C     0.20027   0.52697   0.22299   0.00000  Uiso   1.00
C321   C     0.30539   0.50126   0.33629   0.00000  Uiso   1.00
C322   C     0.02805   0.49969   0.16350   0.00000  Uiso   1.00
C323   C     0.28870   0.51111   0.38481   0.00000  Uiso   1.00
C324   C    -0.00000   0.57906   0.24923   0.00000  Uiso   1.00
C325   C     0.04412   0.50293   0.11344   0.00000  Uiso   1.00
C326   C     0.30094   0.55187   0.44560   0.00000  Uiso   1.00
C327   C     0.02134   0.51375   0.04448   0.00000  Uiso   1.00
C328   C     0.31902   0.53478   0.40304   0.00000  Uiso   1.00
C329   C     0.00826   0.50748   0.09092   0.00000  Uiso   1.00
C330   C     0.23967   0.50380   0.41066   0.00000  Uiso   1.00
C331   C     0.09436   0.50499   0.08790   0.00000  Uiso   1.00
C332   C     0.21954   0.52768   0.44964   0.00000  Uiso   1.00
C333   C     0.10614   0.52143   0.04325   0.00000  Uiso   1.00
C334   C     0.25163   0.54764   0.46954   0.00000  Uiso   1.00
C335   C     0.18534   0.55511   0.03895   0.00000  Uiso   1.00
C336   C     0.07020   0.52026   0.02030   0.00000  Uiso   1.00
C337   C     0.16891   0.52944   0.47182   0.00000  Uiso   1.00
C338   C     0.15370   0.53461   0.01886   0.00000  Uiso   1.00
C339   C     0.13333   0.48203   0.10400   0.00000  Uiso   1.00
C340   C     0.16419   0.45223   0.06922   0.00000  Uiso   1.00
C341   C     0.21357   0.46525   0.40205   0.00000  Uiso   1.00
C342   C     0.20125   0.43527   0.44226   0.00000  Uiso   1.00
C343   C     0.29080   0.37677   0.33448   0.00000  Uiso   1.00
C344   C     0.32820   0.39189   0.35691   0.00000  Uiso   1.00
C345   C     0.01257   0.62359   0.16448   0.00000  Uiso   1.00
C346   C     0.13315   0.52939   0.44864   0.00000  Uiso   1.00
C347   C     0.06363   0.61006   0.13773   0.00000  Uiso   1.00
C348   C     0.30171   0.61906   0.33531   0.00000  Uiso   1.00
C349   C     0.24775   0.60691   0.34863   0.00000  Uiso   1.00
C350   C     0.04501   0.37864   0.16615   0.00000  Uiso   1.00
C351   C     0.09923   0.37961   0.16312   0.00000  Uiso   1.00
C352   C     0.23392   0.56278   0.01330   0.00000  Uiso   1.00
C353   C     0.08377   0.52539   0.47342   0.00000  Uiso   1.00
C354   C     0.31448   0.35384   0.29125   0.00000  Uiso   1.00
C355   C     0.01117   0.64555   0.20809   0.00000  Uiso   1.00
C356   C     0.31667   0.64386   0.29123   0.00000  Uiso   1.00
Cu357  Cu    0.04689   0.50001   0.25000   0.00000  Uiso   1.00
Cu358  Cu    0.28645   0.49999   0.25000   0.00000  Uiso   1.00
H359   H     0.25827   0.57909   0.02809   0.00000  Uiso   1.00
H360   H     0.15750   0.50341   0.11478   0.00000  Uiso   1.00
H361   H     0.11615   0.46207   0.13333   0.00000  Uiso   1.00
H362   H     0.19054   0.40508   0.43175   0.00000  Uiso   1.00
H363   H     0.23339   0.43058   0.45494   0.00000  Uiso   1.00
H364   H     0.17015   0.44676   0.46983   0.00000  Uiso   1.00
H365   H     0.18045   0.47199   0.39195   0.00000  Uiso   1.00
H366   H     0.23750   0.44828   0.37396   0.00000  Uiso   1.00
H367   H     0.19325   0.58598   0.08960   0.00000  Uiso   1.00
H368   H     0.11723   0.53739   0.39215   0.00000  Uiso   1.00
H369   H     0.01807   0.36615   0.36258   0.00000  Uiso   1.00
H370   H     0.05632   0.52475   0.45587   0.00000  Uiso   1.00
H371   H     0.01827   0.41571   0.33557   0.00000  Uiso   1.00
H372   H     0.30917   0.40571   0.38988   0.00000  Uiso   1.00
H373   H     0.26998   0.40285   0.32653   0.00000  Uiso   1.00
H374   H     0.26295   0.35813   0.35919   0.00000  Uiso   1.00
H375   H     0.07931   0.58979   0.15881   0.00000  Uiso   1.00
H376   H     0.06147   0.59265   0.10788   0.00000  Uiso   1.00
H377   H     0.08807   0.63667   0.12541   0.00000  Uiso   1.00
H378   H     0.32212   0.59597   0.17160   0.00000  Uiso   1.00
H379   H     0.32955   0.64311   0.14304   0.00000  Uiso   1.00
H380   H     0.24136   0.58251   0.32647   0.00000  Uiso   1.00
H381   H     0.30315   0.50521   0.10907   0.00000  Uiso   1.00
H382   H     0.23648   0.59494   0.38382   0.00000  Uiso   1.00
H383   H     0.22428   0.63362   0.34646   0.00000  Uiso   1.00
H384   H     0.32440   0.59102   0.33270   0.00000  Uiso   1.00
H385   H     0.30921   0.63623   0.36316   0.00000  Uiso   1.00
H386   H     0.12087   0.38732   0.12816   0.00000  Uiso   1.00
H387   H     0.10633   0.40288   0.18624   0.00000  Uiso   1.00
H388   H     0.11186   0.34923   0.17220   0.00000  Uiso   1.00
H389   H     0.04081   0.36486   0.13514   0.00000  Uiso   1.00
H390   H     0.03137   0.41054   0.16539   0.00000  Uiso   1.00
H391   H     0.17953   0.42025   0.30774   0.00000  Uiso   1.00
H392   H     0.02321   0.54088   0.38391   0.00000  Uiso   1.00
H393   H     0.16231   0.55865   0.16690   0.00000  Uiso   1.00
H394   H     0.10866   0.44653   0.33643   0.00000  Uiso   1.00
H395   H     0.21629   0.58080   0.19527   0.00000  Uiso   1.00
H396   H     0.32514   0.56947   0.45936   0.00000  Uiso   1.00
H397   H     0.32642   0.51449   0.02765   0.00000  Uiso   1.00
H398   H     0.18525   0.43175   0.08565   0.00000  Uiso   1.00
H399   H     0.14038   0.43293   0.05516   0.00000  Uiso   1.00
H400   H     0.19132   0.46860   0.04154   0.00000  Uiso   1.00
N401   N     0.11736   0.50001   0.24999   0.00000  Uiso   1.00
N402   N     0.21597   0.49999   0.25001   0.00000  Uiso   1.00
O403   O     0.03958   0.43989   0.25000   0.00000  Uiso   1.00
O404   O     0.14661   0.53804   0.40289   0.00000  Uiso   1.00
O405   O     0.20050   0.44506   0.30249   0.00000  Uiso   1.00
O406   O     0.13428   0.55070   0.19278   0.00000  Uiso   1.00
O407   O     0.09819   0.45091   0.30897   0.00000  Uiso   1.00
O408   O     0.23353   0.55471   0.19735   0.00000  Uiso   1.00
O409   O     0.29375   0.56011   0.25000   0.00000  Uiso   1.00
O410   O     0.29372   0.43988   0.25000   0.00000  Uiso   1.00
O411   O     0.03961   0.56012   0.25000   0.00000  Uiso   1.00
O412   O     0.01852   0.50001   0.31492   0.00000  Uiso   1.00
O413   O     0.31481   0.49999   0.18508   0.00000  Uiso   1.00
O414   O     0.27267   0.50000   0.31492   0.00000  Uiso   1.00
O415   O     0.06067   0.50000   0.18508   0.00000  Uiso   1.00
O416   O     0.16687   0.57121   0.08145   0.00000  Uiso   1.00
C417   C     0.33336   0.42077   0.25021   0.00000  Uiso   1.00
C418   C     0.35020   0.35527   0.20864   0.00000  Uiso   1.00
C419   C     0.66541   0.62360   0.24951   0.00000  Uiso   1.00
C420   C     0.33344   0.37587   0.25014   0.00000  Uiso   1.00
C421   C     0.51660   0.47320   0.27721   0.00000  Uiso   1.00
C422   C     0.48376   0.52595   0.22181   0.00000  Uiso   1.00
C423   C     0.46600   0.47454   0.27868   0.00000  Uiso   1.00
C424   C     0.53360   0.52697   0.22299   0.00000  Uiso   1.00
C425   C     0.63872   0.50126   0.33629   0.00000  Uiso   1.00
C426   C     0.36139   0.49969   0.16350   0.00000  Uiso   1.00
C427   C     0.62204   0.51111   0.38481   0.00000  Uiso   1.00
C428   C     0.33333   0.57906   0.24923   0.00000  Uiso   1.00
C429   C     0.37745   0.50293   0.11344   0.00000  Uiso   1.00
C430   C     0.63428   0.55187   0.44560   0.00000  Uiso   1.00
C431   C     0.35467   0.51375   0.04448   0.00000  Uiso   1.00
C432   C     0.65235   0.53478   0.40304   0.00000  Uiso   1.00
C433   C     0.34159   0.50748   0.09092   0.00000  Uiso   1.00
C434   C     0.57300   0.50380   0.41066   0.00000  Uiso   1.00
C435   C     0.42769   0.50499   0.08790   0.00000  Uiso   1.00
C436   C     0.55287   0.52768   0.44964   0.00000  Uiso   1.00
C437   C     0.43947   0.52143   0.04325   0.00000  Uiso   1.00
C438   C     0.58496   0.54764   0.46954   0.00000  Uiso   1.00
C439   C     0.51867   0.55511   0.03895   0.00000  Uiso   1.00
C440   C     0.40353   0.52026   0.02030   0.00000  Uiso   1.00
C441   C     0.50224   0.52944   0.47182   0.00000  Uiso   1.00
C442   C     0.48703   0.53461   0.01886   0.00000  Uiso   1.00
C443   C     0.46666   0.48203   0.10400   0.00000  Uiso   1.00
C444   C     0.49752   0.45223   0.06922   0.00000  Uiso   1.00
C445   C     0.54690   0.46525   0.40205   0.00000  Uiso   1.00
C446   C     0.53458   0.43527   0.44226   0.00000  Uiso   1.00
C447   C     0.62413   0.37677   0.33448   0.00000  Uiso   1.00
C448   C     0.66153   0.39189   0.35691   0.00000  Uiso   1.00
C449   C     0.34590   0.62359   0.16448   0.00000  Uiso   1.00
C450   C     0.46649   0.52939   0.44864   0.00000  Uiso   1.00
C451   C     0.39697   0.61006   0.13773   0.00000  Uiso   1.00
C452   C     0.63504   0.61906   0.33531   0.00000  Uiso   1.00
C453   C     0.58108   0.60691   0.34863   0.00000  Uiso   1.00
C454   C     0.37834   0.37864   0.16615   0.00000  Uiso   1.00
C455   C     0.43256   0.37961   0.16312   0.00000  Uiso   1.00
C456   C     0.56725   0.56278   0.01330   0.00000  Uiso   1.00
C457   C     0.41710   0.52539   0.47342   0.00000  Uiso   1.00
C458   C     0.64781   0.35384   0.29125   0.00000  Uiso   1.00
C459   C     0.34450   0.64555   0.20809   0.00000  Uiso   1.00
C460   C     0.65001   0.64386   0.29123   0.00000  Uiso   1.00
Cu461  Cu    0.38022   0.50001   0.25000   0.00000  Uiso   1.00
Cu462  Cu    0.61978   0.49999   0.25000   0.00000  Uiso   1.00
H463   H     0.59161   0.57909   0.02809   0.00000  Uiso   1.00
H464   H     0.49084   0.50341   0.11478   0.00000  Uiso   1.00
H465   H     0.44948   0.46207   0.13333   0.00000  Uiso   1.00
H466   H     0.52387   0.40508   0.43175   0.00000  Uiso   1.00
H467   H     0.56672   0.43058   0.45494   0.00000  Uiso   1.00
H468   H     0.50348   0.44676   0.46983   0.00000  Uiso   1.00
H469   H     0.51378   0.47199   0.39195   0.00000  Uiso   1.00
H470   H     0.57084   0.44828   0.37396   0.00000  Uiso   1.00
H471   H     0.52658   0.58598   0.08960   0.00000  Uiso   1.00
H472   H     0.45057   0.53739   0.39215   0.00000  Uiso   1.00
H473   H     0.35140   0.36615   0.36258   0.00000  Uiso   1.00
H474   H     0.38965   0.52475   0.45587   0.00000  Uiso   1.00
H475   H     0.35160   0.41571   0.33557   0.00000  Uiso   1.00
H476   H     0.64251   0.40571   0.38988   0.00000  Uiso   1.00
H477   H     0.60332   0.40285   0.32653   0.00000  Uiso   1.00
H478   H     0.59629   0.35813   0.35919   0.00000  Uiso   1.00
H479   H     0.41264   0.58979   0.15881   0.00000  Uiso   1.00
H480   H     0.39480   0.59265   0.10788   0.00000  Uiso   1.00
H481   H     0.42140   0.63667   0.12541   0.00000  Uiso   1.00
H482   H     0.65546   0.59597   0.17160   0.00000  Uiso   1.00
H483   H     0.66289   0.64311   0.14304   0.00000  Uiso   1.00
H484   H     0.57470   0.58251   0.32647   0.00000  Uiso   1.00
H485   H     0.63648   0.50521   0.10907   0.00000  Uiso   1.00
H486   H     0.56981   0.59494   0.38382   0.00000  Uiso   1.00
H487   H     0.55761   0.63362   0.34646   0.00000  Uiso   1.00
H488   H     0.65773   0.59102   0.33270   0.00000  Uiso   1.00
H489   H     0.64254   0.63623   0.36316   0.00000  Uiso   1.00
H490   H     0.45421   0.38732   0.12816   0.00000  Uiso   1.00
H491   H     0.43966   0.40288   0.18624   0.00000  Uiso   1.00
H492   H     0.44519   0.34923   0.17220   0.00000  Uiso   1.00
H493   H     0.37414   0.36486   0.13514   0.00000  Uiso   1.00
H494   H     0.36470   0.41054   0.16539   0.00000  Uiso   1.00
H495   H     0.51286   0.42025   0.30774   0.00000  Uiso   1.00
H496   H     0.35655   0.54088   0.38391   0.00000  Uiso   1.00
H497   H     0.49564   0.55865   0.16690   0.00000  Uiso   1.00
H498   H     0.44199   0.44653   0.33643   0.00000  Uiso   1.00
H499   H     0.54963   0.58080   0.19527   0.00000  Uiso   1.00
H500   H     0.65847   0.56947   0.45936   0.00000  Uiso   1.00
H501   H     0.65975   0.51449   0.02765   0.00000  Uiso   1.00
H502   H     0.51858   0.43175   0.08565   0.00000  Uiso   1.00
H503   H     0.47371   0.43293   0.05516   0.00000  Uiso   1.00
H504   H     0.52465   0.46860   0.04154   0.00000  Uiso   1.00
N505   N     0.45069   0.50001   0.24999   0.00000  Uiso   1.00
N506   N     0.54931   0.49999   0.25001   0.00000  Uiso   1.00
O507   O     0.37291   0.43989   0.25000   0.00000  Uiso   1.00
O508   O     0.47994   0.53804   0.40289   0.00000  Uiso   1.00
O509   O     0.53383   0.44506   0.30249   0.00000  Uiso   1.00
O510   O     0.46761   0.55070   0.19278   0.00000  Uiso   1.00
O511   O     0.43152   0.45091   0.30897   0.00000  Uiso   1.00
O512   O     0.56686   0.55471   0.19735   0.00000  Uiso   1.00
O513   O     0.62709   0.56011   0.25000   0.00000  Uiso   1.00
O514   O     0.62706   0.43988   0.25000   0.00000  Uiso   1.00
O515   O     0.37294   0.56012   0.25000   0.00000  Uiso   1.00
O516   O     0.35186   0.50001   0.31492   0.00000  Uiso   1.00
O517   O     0.64814   0.49999   0.18508   0.00000  Uiso   1.00
O518   O     0.60600   0.50000   0.31492   0.00000  Uiso   1.00
O519   O     0.39400   0.50000   0.18508   0.00000  Uiso   1.00
O520   O     0.50020   0.57121   0.08145   0.00000  Uiso   1.00
C521   C     0.66669   0.42077   0.25021   0.00000  Uiso   1.00
C522   C     0.68353   0.35527   0.20864   0.00000  Uiso   1.00
C523   C     0.99874   0.62360   0.24951   0.00000  Uiso   1.00
C524   C     0.66677   0.37587   0.25014   0.00000  Uiso   1.00
C525   C     0.84993   0.47320   0.27721   0.00000  Uiso   1.00
C526   C     0.81710   0.52595   0.22181   0.00000  Uiso   1.00
C527   C     0.79933   0.47454   0.27868   0.00000  Uiso   1.00
C528   C     0.86694   0.52697   0.22299   0.00000  Uiso   1.00
C529   C     0.97205   0.50126   0.33629   0.00000  Uiso   1.00
C530   C     0.69472   0.49969   0.16350   0.00000  Uiso   1.00
C531   C     0.95537   0.51111   0.38481   0.00000  Uiso   1.00
C532   C     0.66667   0.57906   0.24923   0.00000  Uiso   1.00
C533   C     0.71078   0.50293   0.11344   0.00000  Uiso   1.00
C534   C     0.96761   0.55187   0.44560   0.00000  Uiso   1.00
C535   C     0.68800   0.51375   0.04448   0.00000  Uiso   1.00
C536   C     0.98569   0.53478   0.40304   0.00000  Uiso   1.00
C537   C     0.67493   0.50748   0.09092   0.00000  Uiso   1.00
C538   C     0.90634   0.50380   0.41066   0.00000  Uiso   1.00
C539   C     0.76102   0.50499   0.08790   0.00000  Uiso   1.00
C540   C     0.88621   0.52768   0.44964   0.00000  Uiso   1.00
C541   C     0.77281   0.52143   0.04325   0.00000  Uiso   1.00
C542   C     0.91830   0.54764   0.46954   0.00000  Uiso   1.00
C543   C     0.85201   0.55511   0.03895   0.00000  Uiso   1.00
C544   C     0.73686   0.52026   0.02030   0.00000  Uiso   1.00
C545   C     0.83557   0.52944   0.47182   0.00000  Uiso   1.00
C546   C     0.82036   0.53461   0.01886   0.00000  Uiso   1.00
C547   C     0.80000   0.48203   0.10400   0.00000  Uiso   1.00
C548   C     0.83085   0.45223   0.06922   0.00000  Uiso   1.00
C549   C     0.88024   0.46525   0.40205   0.00000  Uiso   1.00
C550   C     0.86792   0.43527   0.44226   0.00000  Uiso   1.00
C551   C     0.95746   0.37677   0.33448   0.00000  Uiso   1.00
C552   C     0.99486   0.39189   0.35691   0.00000  Uiso   1.00
C553   C     0.67923   0.62359   0.16448   0.00000  Uiso   1.00
C554   C     0.79982   0.52939   0.44864   0.00000  Uiso   1.00
C555   C     0.73030   0.61006   0.13773   0.00000  Uiso   1.00
C556   C     0.96838   0.61906   0.33531   0.00000  Uiso   1.00
C557   C     0.91442   0.60691   0.34863   0.00000  Uiso   1.00
C558   C     0.71168   0.37864   0.16615   0.00000  Uiso   1.00
C559   C     0.76590   0.37961   0.16312   0.00000  Uiso   1.00
C560   C     0.90058   0.56278   0.01330   0.00000  Uiso   1.00
C561   C     0.75043   0.52539   0.47342   0.00000  Uiso   1.00
C562   C     0.98114   0.35384   0.29125   0.00000  Uiso   1.00
C563   C     0.67784   0.64555   0.20809   0.00000  Uiso   1.00
C564   C     0.98334   0.64386   0.29123   0.00000  Uiso   1.00
Cu565  Cu    0.71355   0.50001   0.25000   0.00000  Uiso   1.00
Cu566  Cu    0.95311   0.49999   0.25000   0.00000  Uiso   1.00
H567   H     0.92494   0.57909   0.02809   0.00000  Uiso   1.00
H568   H     0.82417   0.50341   0.11478   0.00000  Uiso   1.00
H569   H     0.78281   0.46207   0.13333   0.00000  Uiso   1.00
H570   H     0.85721   0.40508   0.43175   0.00000  Uiso   1.00
H571   H     0.90005   0.43058   0.45494   0.00000  Uiso   1.00
H572   H     0.83681   0.44676   0.46983   0.00000  Uiso   1.00
H573   H     0.84712   0.47199   0.39195   0.00000  Uiso   1.00
H574   H     0.90417   0.44828   0.37396   0.00000  Uiso   1.00
H575   H     0.85991   0.58598   0.08960   0.00000  Uiso   1.00
H576   H     0.78390   0.53739   0.39215   0.00000  Uiso   1.00
H577   H     0.68473   0.36615   0.36258   0.00000  Uiso   1.00
H578   H     0.72299   0.52475   0.45587   0.00000  Uiso   1.00
H579   H     0.68493   0.41571   0.33557   0.00000  Uiso   1.00
H580   H     0.97584   0.40571   0.38988   0.00000  Uiso   1.00
H581   H     0.93665   0.40285   0.32653   0.00000  Uiso   1.00
H582   H     0.92962   0.35813   0.35919   0.00000  Uiso   1.00
H583   H     0.74598   0.58979   0.15881   0.00000  Uiso   1.00
H584   H     0.72814   0.59265   0.10788   0.00000  Uiso   1.00
H585   H     0.75473   0.63667   0.12541   0.00000  Uiso   1.00
H586   H     0.98879   0.59597   0.17160   0.00000  Uiso   1.00
H587   H     0.99622   0.64311   0.14304   0.00000  Uiso   1.00
H588   H     0.90803   0.58251   0.32647   0.00000  Uiso   1.00
H589   H     0.96982   0.50521   0.10907   0.00000  Uiso   1.00
H590   H     0.90315   0.59494   0.38382   0.00000  Uiso   1.00
H591   H     0.89094   0.63362   0.34646   0.00000  Uiso   1.00
H592   H     0.99106   0.59102   0.33270   0.00000  Uiso   1.00
H593   H     0.97588   0.63623   0.36316   0.00000  Uiso   1.00
H594   H     0.78754   0.38732   0.12816   0.00000  Uiso   1.00
H595   H     0.77299   0.40288   0.18624   0.00000  Uiso   1.00
H596   H     0.77853   0.34923   0.17220   0.00000  Uiso   1.00
H597   H     0.70748   0.36486   0.13514   0.00000  Uiso   1.00
H598   H     0.69803   0.41054   0.16539   0.00000  Uiso   1.00
H599   H     0.84619   0.42025   0.30774   0.00000  Uiso   1.00
H600   H     0.68988   0.54088   0.38391   0.00000  Uiso   1.00
H601   H     0.82898   0.55865   0.16690   0.00000  Uiso   1.00
H602   H     0.77532   0.44653   0.33643   0.00000  Uiso   1.00
H603   H     0.88296   0.58080   0.19527   0.00000  Uiso   1.00
H604   H     0.99180   0.56947   0.45936   0.00000  Uiso   1.00
H605   H     0.99309   0.51449   0.02765   0.00000  Uiso   1.00
H606   H     0.85191   0.43175   0.08565   0.00000  Uiso   1.00
H607   H     0.80705   0.43293   0.05516   0.00000  Uiso   1.00
H608   H     0.85798   0.46860   0.04154   0.00000  Uiso   1.00
N609   N     0.78403   0.50001   0.24999   0.00000  Uiso   1.00
N610   N     0.88264   0.49999   0.25001   0.00000  Uiso   1.00
O611   O     0.70625   0.43989   0.25000   0.00000  Uiso   1.00
O612   O     0.81327   0.53804   0.40289   0.00000  Uiso   1.00
O613   O     0.86716   0.44506   0.30249   0.00000  Uiso   1.00
O614   O     0.80095   0.55070   0.19278   0.00000  Uiso   1.00
O615   O     0.76486   0.45091   0.30897   0.00000  Uiso   1.00
O616   O     0.90020   0.55471   0.19735   0.00000  Uiso   1.00
O617   O     0.96042   0.56011   0.25000   0.00000  Uiso   1.00
O618   O     0.96039   0.43988   0.25000   0.00000  Uiso   1.00
O619   O     0.70628   0.56012   0.25000   0.00000  Uiso   1.00
O620   O     0.68519   0.50001   0.31492   0.00000  Uiso   1.00
O621   O     0.98148   0.49999   0.18508   0.00000  Uiso   1.00
O622   O     0.93933   0.50000   0.31492   0.00000  Uiso   1.00
O623   O     0.72733   0.50000   0.18508   0.00000  Uiso   1.00
O624   O     0.83353   0.57121   0.08145   0.00000  Uiso   1.00
C625   C     0.00003   0.75410   0.25021   0.00000  Uiso   1.00
C626   C     0.01687   0.68860   0.20864   0.00000  Uiso   1.00
C627   C     0.33208   0.95693   0.24951   0.00000  Uiso   1.00
C628   C     0.00011   0.70920   0.25014   0.00000  Uiso   1.00
C629   C     0.18327   0.80653   0.27721   0.00000  Uiso   1.00
C630   C     0.15043   0.85929   0.22181   0.00000  Uiso   1.00
C631   C     0.13266   0.80788   0.27868   0.00000  Uiso   1.00
C632   C     0.20027   0.86030   0.22299   0.00000  Uiso   1.00
C633   C     0.30539   0.83460   0.33629   0.00000  Uiso   1.00
C634   C     0.02805   0.83302   0.16350   0.00000  Uiso   1.00
C635   C     0.28870   0.84444   0.38481   0.00000  Uiso   1.00
C636   C    -0.00000   0.91239   0.24923   0.00000  Uiso   1.00
C637   C     0.04412   0.83627   0.11344   0.00000  Uiso   1.00
C638   C     0.30094   0.88521   0.44560   0.00000  Uiso   1.00
C639   C     0.02134   0.84708   0.04448   0.00000  Uiso   1.00
C640   C     0.31902   0.86812   0.40304   0.00000  Uiso   1.00
C641   C     0.00826   0.84081   0.09092   0.00000  Uiso   1.00
C642   C     0.23967   0.83714   0.41066   0.00000  Uiso   1.00
C643   C     0.09436   0.83833   0.08790   0.00000  Uiso   1.00
C644   C     0.21954   0.86101   0.44964   0.00000  Uiso   1.00
C645   C     0.10614   0.85476   0.04325   0.00000  Uiso   1.00
C646   C     0.25163   0.88097   0.46954   0.00000  Uiso   1.00
C647   C     0.18534   0.88845   0.03895   0.00000  Uiso   1.00
C648   C     0.07020   0.85359   0.02030   0.00000  Uiso   1.00
C649   C     0.16891   0.86277   0.47182   0.00000  Uiso   1.00
C650   C     0.15370   0.86795   0.01886   0.00000  Uiso   1.00
C651   C     0.13333   0.81536   0.10400   0.00000  Uiso   1.00
C652   C     0.16419   0.78557   0.06922   0.00000  Uiso   1.00
C653   C     0.21357   0.79859   0.40205   0.00000  Uiso   1.00
C654   C     0.20125   0.76861   0.44226   0.00000  Uiso   1.00
C655   C     0.29080   0.71010   0.33448   0.00000  Uiso   1.00
C656   C     0.32820   0.72522   0.35691   0.00000  Uiso   1.00
C657   C     0.01257   0.95692   0.16448   0.00000  Uiso   1.00
C658   C     0.13315   0.86273   0.44864   0.00000  Uiso   1.00
C659   C     0.06363   0.94339   0.13773   0.00000  Uiso   1.00
C660   C     0.30171   0.95239   0.33531   0.00000  Uiso   1.00
C661   C     0.24775   0.94024   0.34863   0.00000  Uiso   1.00
C662   C     0.04501   0.71198   0.16615   0.00000  Uiso   1.00
C663   C     0.09923   0.71295   0.16312   0.00000  Uiso   1.00
C664   C     0.23392   0.89612   0.01330   0.00000  Uiso   1.00
C665   C     0.08377   0.85872   0.47342   0.00000  Uiso   1.00
C666   C     0.31448   0.68718   0.29125   0.00000  Uiso   1.00
C667   C     0.01117   0.97888   0.20809   0.00000  Uiso   1.00
C668   C     0.31667   0.97719   0.29123   0.00000  Uiso   1.00
Cu669  Cu    0.04689   0.83334   0.25000   0.00000  Uiso   1.00
Cu670  Cu    0.28645   0.83333   0.25000   0.00000  Uiso   1.00
H671   H     0.25827   0.91242   0.02809   0.00000  Uiso   1.00
H672   H     0.15750   0.83674   0.11478   0.00000  Uiso   1.00
H673   H     0.11615   0.79540   0.13333   0.00000  Uiso   1.00
H674   H     0.19054   0.73841   0.43175   0.00000  Uiso   1.00
H675   H     0.23339   0.76392   0.45494   0.00000  Uiso   1.00
H676   H     0.17015   0.78009   0.46983   0.00000  Uiso   1.00
H677   H     0.18045   0.80532   0.39195   0.00000  Uiso   1.00
H678   H     0.23750   0.78161   0.37396   0.00000  Uiso   1.00
H679   H     0.19325   0.91932   0.08960   0.00000  Uiso   1.00
H680   H     0.11723   0.87072   0.39215   0.00000  Uiso   1.00
H681   H     0.01807   0.69948   0.36258   0.00000  Uiso   1.00
H682   H     0.05632   0.85809   0.45587   0.00000  Uiso   1.00
H683   H     0.01827   0.74904   0.33557   0.00000  Uiso   1.00
H684   H     0.30917   0.73904   0.38988   0.00000  Uiso   1.00
H685   H     0.26998   0.73618   0.32653   0.00000  Uiso   1.00
H686   H     0.26295   0.69146   0.35919   0.00000  Uiso   1.00
H687   H     0.07931   0.92312   0.15881   0.00000  Uiso   1.00
H688   H     0.06147   0.92598   0.10788   0.00000  Uiso   1.00
H689   H     0.08807   0.97001   0.12541   0.00000  Uiso   1.00
H690   H     0.32212   0.92931   0.17160   0.00000  Uiso   1.00
H691   H     0.32955   0.97645   0.14304   0.00000  Uiso   1.00
H692   H     0.24136   0.91585   0.32647   0.00000  Uiso   1.00
H693   H     0.30315   0.83854   0.10907   0.00000  Uiso   1.00
H694   H     0.23648   0.92827   0.38382   0.00000  Uiso   1.00
H695   H     0.22428   0.96695   0.34646   0.00000  Uiso   1.00
H696   H     0.32440   0.92435   0.33270   0.00000  Uiso   1.00
H697   H     0.30921   0.96956   0.36316   0.00000  Uiso   1.00
H698   H     0.12087   0.72066   0.12816   0.00000  Uiso   1.00
H699   H     0.10633   0.73621   0.18624   0.00000  Uiso   1.00
H700   H     0.11186   0.68257   0.17220   0.00000  Uiso   1.00
H701   H     0.04081   0.69819   0.13514   0.00000  Uiso   1.00
H702   H     0.03137   0.74387   0.16539   0.00000  Uiso   1.00
H703   H     0.17953   0.75358   0.30774   0.00000  Uiso   1.00
H704   H     0.02321   0.87422   0.38391   0.00000  Uiso   1.00
H705   H     0.16231   0.89198   0.16690   0.00000  Uiso   1.00
H706   H     0.10866   0.77986   0.33643   0.00000  Uiso   1.00
H707   H     0.21629   0.91413   0.19527   0.00000  Uiso   1.00
H708   H     0.32514   0.90280   0.45936   0.00000  Uiso   1.00
H709   H     0.32642   0.84782   0.02765   0.00000  Uiso   1.00
H710   H     0.18525   0.76508   0.08565   0.00000  Uiso   1.00
H711   H     0.14038   0.76627   0.05516   0.00000  Uiso   1.00
H712   H     0.19132   0.80193   0.04154   0.00000  Uiso   1.00
N713   N     0.11736   0.83334   0.24999   0.00000  Uiso   1.00
N714   N     0.21597   0.83332   0.25001   0.00000  Uiso   1.00
O715   O     0.03958   0.77322   0.25000   0.00000  Uiso   1.00
O716   O     0.14661   0.87138   0.40289   0.00000  Uiso   1.00
O717   O     0.20050   0.77839   0.30249   0.00000  Uiso   1.00
O718   O     0.13428   0.88403   0.19278   0.00000  Uiso   1.00
O719   O     0.09819   0.78424   0.30897   0.00000  Uiso   1.00
O720   O     0.23353   0.88804   0.19735   0.00000  Uiso   1.00
O721   O     0.29375   0.89345   0.25000   0.00000  Uiso   1.00
O722   O     0.29372   0.77321   0.25000   0.00000  Uiso   1.00
O723   O     0.03961   0.89346   0.25000   0.00000  Uiso   1.00
O724   O     0.01852   0.83334   0.31492   0.00000  Uiso   1.00
O725   O     0.31481   0.83332   0.18508   0.00000  Uiso   1.00
O726   O     0.27267   0.83333   0.31492   0.00000  Uiso   1.00
O727   O     0.06067   0.83333   0.18508   0.00000  Uiso   1.00
O728   O     0.16687   0.90455   0.08145   0.00000  Uiso   1.00
C729   C     0.33336   0.75410   0.25021   0.00000  Uiso   1.00
C730   C     0.35020   0.68860   0.20864   0.00000  Uiso   1.00
C731   C     0.66541   0.95693   0.24951   0.00000  Uiso   1.00
C732   C     0.33344   0.70920   0.25014   0.00000  Uiso   1.00
C733   C     0.51660   0.80653   0.27721   0.00000  Uiso   1.00
C734   C     0.48376   0.85929   0.22181   0.00000  Uiso   1.00
C735   C     0.46600   0.80788   0.27868   0.00000  Uiso   1.00
C736   C     0.53360   0.86030   0.22299   0.00000  Uiso   1.00
C737   C     0.63872   0.83460   0.33629   0.00000  Uiso   1.00
C738   C     0.36139   0.83302   0.16350   0.00000  Uiso   1.00
C739   C     0.62204   0.84444   0.38481   0.00000  Uiso   1.00
C740   C     0.33333   0.91239   0.24923   0.00000  Uiso   1.00
C741   C     0.37745   0.83627   0.11344   0.00000  Uiso   1.00
C742   C     0.63428   0.88521   0.44560   0.00000  Uiso   1.00
C743   C     0.35467   0.84708   0.04448   0.00000  Uiso   1.00
C744   C     0.65235   0.86812   0.40304   0.00000  Uiso   1.00
C745   C     0.34159   0.84081   0.09092   0.00000  Uiso   1.00
C746   C     0.57300   0.83714   0.41066   0.00000  Uiso   1.00
C747   C     0.42769   0.83833   0.08790   0.00000  Uiso   1.00
C748   C     0.55287   0.86101   0.44964   0.00000  Uiso   1.00
C749   C     0.43947   0.85476   0.04325   0.00000  Uiso   1.00
C750   C     0.58496   0.88097   0.46954   0.00000  Uiso   1.00
C751   C     0.51867   0.88845   0.03895   0.00000  Uiso   1.00
C752   C     0.40353   0.85359   0.02030   0.00000  Uiso   1.00
C753   C     0.50224   0.86277   0.47182   0.00000  Uiso   1.00
C754   C     0.48703   0.86795   0.01886   0.00000  Uiso   1.00
C755   C     0.46666   0.81536   0.10400   0.00000  Uiso   1.00
C756   C     0.49752   0.78557   0.06922   0.00000  Uiso   1.00
C757   C     0.54690   0.79859   0.40205   0.00000  Uiso   1.00
C758   C     0.53458   0.76861   0.44226   0.00000  Uiso   1.00
C759   C     0.62413   0.71010   0.33448   0.00000  Uiso   1.00
C760   C     0.66153   0.72522   0.35691   0.00000  Uiso   1.00
C761   C     0.34590   0.95692   0.16448   0.00000  Uiso   1.00
C762   C     0.46649   0.86273   0.44864   0.00000  Uiso   1.00
C763   C     0.39697   0.94339   0.13773   0.00000  Uiso   1.00
C764   C     0.63504   0.95239   0.33531   0.00000  Uiso   1.00
C765   C     0.58108   0.94024   0.34863   0.00000  Uiso   1.00
C766   C     0.37834   0.71198   0.16615   0.00000  Uiso   1.00
C767   C     0.43256   0.71295   0.16312   0.00000  Uiso   1.00
C768   C     0.56725   0.89612   0.01330   0.00000  Uiso   1.00
C769   C     0.41710   0.85872   0.47342   0.00000  Uiso   1.00
C770   C     0.64781   0.68718   0.29125   0.00000  Uiso   1.00
C771   C     0.34450   0.97888   0.20809   0.00000  Uiso   1.00
C772   C     0.65001   0.97719   0.29123   0.00000  Uiso   1.00
Cu773  Cu    0.38022   0.83334   0.25000   0.00000  Uiso   1.00
Cu774  Cu    0.61978   0.83333   0.25000   0.00000  Uiso   1.00
H775   H     0.59161   0.91242   0.02809   0.00000  Uiso   1.00
H776   H     0.49084   0.83674   0.11478   0.00000  Uiso   1.00
H777   H     0.44948   0.79540   0.13333   0.00000  Uiso   1.00
H778   H     0.52387   0.73841   0.43175   0.00000  Uiso   1.00
H779   H     0.56672   0.76392   0.45494   0.00000  Uiso   1.00
H780   H     0.50348   0.78009   0.46983   0.00000  Uiso   1.00
H781   H     0.51378   0.80532   0.39195   0.00000  Uiso   1.00
H782   H     0.57084   0.78161   0.37396   0.00000  Uiso   1.00
H783   H     0.52658   0.91932   0.08960   0.00000  Uiso   1.00
H784   H     0.45057   0.87072   0.39215   0.00000  Uiso   1.00
H785   H     0.35140   0.69948   0.36258   0.00000  Uiso   1.00
H786   H     0.38965   0.85809   0.45587   0.00000  Uiso   1.00
H787   H     0.35160   0.74904   0.33557   0.00000  Uiso   1.00
H788   H     0.64251   0.73904   0.38988   0.00000  Uiso   1.00
H789   H     0.60332   0.73618   0.32653   0.00000  Uiso   1.00
H790   H     0.59629   0.69146   0.35919   0.00000  Uiso   1.00
H791   H     0.41264   0.92312   0.15881   0.00000  Uiso   1.00
H792   H     0.39480   0.92598   0.10788   0.00000  Uiso   1.00
H793   H     0.42140   0.97001   0.12541   0.00000  Uiso   1.00
H794   H     0.65546   0.92931   0.17160   0.00000  Uiso   1.00
H795   H     0.66289   0.97645   0.14304   0.00000  Uiso   1.00
H796   H     0.57470   0.91585   0.32647   0.00000  Uiso   1.00
H797   H     0.63648   0.83854   0.10907   0.00000  Uiso   1.00
H798   H     0.56981   0.92827   0.38382   0.00000  Uiso   1.00
H799   H     0.55761   0.96695   0.34646   0.00000  Uiso   1.00
H800   H     0.65773   0.92435   0.33270   0.00000  Uiso   1.00
H801   H     0.64254   0.96956   0.36316   0.00000  Uiso   1.00
H802   H     0.45421   0.72066   0.12816   0.00000  Uiso   1.00
H803   H     0.43966   0.73621   0.18624   0.00000  Uiso   1.00
H804   H     0.44519   0.68257   0.17220   0.00000  Uiso   1.00
H805   H     0.37414   0.69819   0.13514   0.00000  Uiso   1.00
H806   H     0.36470   0.74387   0.16539   0.00000  Uiso   1.00
H807   H     0.51286   0.75358   0.30774   0.00000  Uiso   1.00
H808   H     0.35655   0.87422   0.38391   0.00000  Uiso   1.00
H809   H     0.49564   0.89198   0.16690   0.00000  Uiso   1.00
H810   H     0.44199   0.77986   0.33643   0.00000  Uiso   1.00
H811   H     0.54963   0.91413   0.19527   0.00000  Uiso   1.00
H812   H     0.65847   0.90280   0.45936   0.00000  Uiso   1.00
H813   H     0.65975   0.84782   0.02765   0.00000  Uiso   1.00
H814   H     0.51858   0.76508   0.08565   0.00000  Uiso   1.00
H815   H     0.47371   0.76627   0.05516   0.00000  Uiso   1.00
H816   H     0.52465   0.80193   0.04154   0.00000  Uiso   1.00
N817   N     0.45069   0.83334   0.24999   0.00000  Uiso   1.00
N818   N     0.54931   0.83332   0.25001   0.00000  Uiso   1.00
O819   O     0.37291   0.77322   0.25000   0.00000  Uiso   1.00
O820   O     0.47994   0.87138   0.40289   0.00000  Uiso   1.00
O821   O     0.53383   0.77839   0.30249   0.00000  Uiso   1.00
O822   O     0.46761   0.88403   0.19278   0.00000  Uiso   1.00
O823   O     0.43152   0.78424   0.30897   0.00000  Uiso   1.00
O824   O     0.56686   0.88804   0.19735   0.00000  Uiso   1.00
O825   O     0.62709   0.89345   0.25000   0.00000  Uiso   1.00
O826   O     0.62706   0.77321   0.25000   0.00000  Uiso   1.00
O827   O     0.37294   0.89346   0.25000   0.00000  Uiso   1.00
O828   O     0.35186   0.83334   0.31492   0.00000  Uiso   1.00
O829   O     0.64814   0.83332   0.18508   0.00000  Uiso   1.00
O830   O     0.60600   0.83333   0.31492   0.00000  Uiso   1.00
O831   O     0.39400   0.83333   0.18508   0.00000  Uiso   1.00
O832   O     0.50020   0.90455   0.08145   0.00000  Uiso   1.00
C833   C     0.66669   0.75410   0.25021   0.00000  Uiso   1.00
C834   C     0.68353   0.68860   0.20864   0.00000  Uiso   1.00
C835   C     0.99874   0.95693   0.24951   0.00000  Uiso   1.00
C836   C     0.66677   0.70920   0.25014   0.00000  Uiso   1.00
C837   C     0.84993   0.80653   0.27721   0.00000  Uiso   1.00
C838   C     0.81710   0.85929   0.22181   0.00000  Uiso   1.00
C839   C     0.79933   0.80788   0.27868   0.00000  Uiso   1.00
C840   C     0.86694   0.86030   0.22299   0.00000  Uiso   1.00
C841   C     0.97205   0.83460   0.33629   0.00000  Uiso   1.00
C842   C     0.69472   0.83302   0.16350   0.00000  Uiso   1.00
C843   C     0.95537   0.84444   0.38481   0.00000  Uiso   1.00
C844   C     0.66667   0.91239   0.24923   0.00000  Uiso   1.00
C845   C     0.71078   0.83627   0.11344   0.00000  Uiso   1.00
C846   C     0.96761   0.88521   0.44560   0.00000  Uiso   1.00
C847   C     0.68800   0.84708   0.04448   0.00000  Uiso   1.00
C848   C     0.98569   0.86812   0.40304   0.00000  Uiso   1.00
C849   C     0.67493   0.84081   0.09092   0.00000  Uiso   1.00
C850   C     0.90634   0.83714   0.41066   0.00000  Uiso   1.00
C851   C     0.76102   0.83833   0.08790   0.00000  Uiso   1.00
C852   C     0.88621   0.86101   0.44964   0.00000  Uiso   1.00
C853   C     0.77281   0.85476   0.04325   0.00000  Uiso   1.00
C854   C     0.91830   0.88097   0.46954   0.00000  Uiso   1.00
C855   C     0.85201   0.88845   0.03895   0.00000  Uiso   1.00
C856   C     0.73686   0.85359   0.02030   0.00000  Uiso   1.00
C857   C     0.83557   0.86277   0.47182   0.00000  Uiso   1.00
C858   C     0.82036   0.86795   0.01886   0.00000  Uiso   1.00
C859   C     0.80000   0.81536   0.10400   0.00000  Uiso   1.00
C860   C     0.83085   0.78557   0.06922   0.00000  Uiso   1.00
C861   C     0.88024   0.79859   0.40205   0.00000  Uiso   1.00
C862   C     0.86792   0.76861   0.44226   0.00000  Uiso   1.00
C863   C     0.95746   0.71010   0.33448   0.00000  Uiso   1.00
C864   C     0.99486   0.72522   0.35691   0.00000  Uiso   1.00
C865   C     0.67923   0.95692   0.16448   0.00000  Uiso   1.00
C866   C     0.79982   0.86273   0.44864   0.00000  Uiso   1.00
C867   C     0.73030   0.94339   0.13773   0.00000  Uiso   1.00
C868   C     0.96838   0.95239   0.33531   0.00000  Uiso   1.00
C869   C     0.91442   0.94024   0.34863   0.00000  Uiso   1.00
C870   C     0.71168   0.71198   0.16615   0.00000  Uiso   1.00
C871   C     0.76590   0.71295   0.16312   0.00000  Uiso   1.00
C872   C     0.90058   0.89612   0.01330   0.00000  Uiso   1.00
C873   C     0.75043   0.85872   0.47342   0.00000  Uiso   1.00
C874   C     0.98114   0.68718   0.29125   0.00000  Uiso   1.00
C875   C     0.67784   0.97888   0.20809   0.00000  Uiso   1.00
C876   C     0.98334   0.97719   0.29123   0.00000  Uiso   1.00
Cu877  Cu    0.71355   0.83334   0.25000   0.00000  Uiso   1.00
Cu878  Cu    0.95311   0.83333   0.25000   0.00000  Uiso   1.00
H879   H     0.92494   0.91242   0.02809   0.00000  Uiso   1.00
H880   H     0.82417   0.83674   0.11478   0.00000  Uiso   1.00
H881   H     0.78281   0.79540   0.13333   0.00000  Uiso   1.00
H882   H     0.85721   0.73841   0.43175   0.00000  Uiso   1.00
H883   H     0.90005   0.76392   0.45494   0.00000  Uiso   1.00
H884   H     0.83681   0.78009   0.46983   0.00000  Uiso   1.00
H885   H     0.84712   0.80532   0.39195   0.00000  Uiso   1.00
H886   H     0.90417   0.78161   0.37396   0.00000  Uiso   1.00
H887   H     0.85991   0.91932   0.08960   0.00000  Uiso   1.00
H888   H     0.78390   0.87072   0.39215   0.00000  Uiso   1.00
H889   H     0.68473   0.69948   0.36258   0.00000  Uiso   1.00
H890   H     0.72299   0.85809   0.45587   0.00000  Uiso   1.00
H891   H     0.68493   0.74904   0.33557   0.00000  Uiso   1.00
H892   H     0.97584   0.73904   0.38988   0.00000  Uiso   1.00
H893   H     0.93665   0.73618   0.32653   0.00000  Uiso   1.00
H894   H     0.92962   0.69146   0.35919   0.00000  Uiso   1.00
H895   H     0.74598   0.92312   0.15881   0.00000  Uiso   1.00
H896   H     0.72814   0.92598   0.10788   0.00000  Uiso   1.00
H897   H     0.75473   0.97001   0.12541   0.00000  Uiso   1.00
H898   H     0.98879   0.92931   0.17160   0.00000  Uiso   1.00
H899   H     0.99622   0.97645   0.14304   0.00000  Uiso   1.00
H900   H     0.90803   0.91585   0.32647   0.00000  Uiso   1.00
H901   H     0.96982   0.83854   0.10907   0.00000  Uiso   1.00
H902   H     0.90315   0.92827   0.38382   0.00000  Uiso   1.00
H903   H     0.89094   0.96695   0.34646   0.00000  Uiso   1.00
H904   H     0.99106   0.92435   0.33270   0.00000  Uiso   1.00
H905   H     0.97588   0.96956   0.36316   0.00000  Uiso   1.00
H906   H     0.78754   0.72066   0.12816   0.00000  Uiso   1.00
H907   H     0.77299   0.73621   0.18624   0.00000  Uiso   1.00
H908   H     0.77853   0.68257   0.17220   0.00000  Uiso   1.00
H909   H     0.70748   0.69819   0.13514   0.00000  Uiso   1.00
H910   H     0.69803   0.74387   0.16539   0.00000  Uiso   1.00
H911   H     0.84619   0.75358   0.30774   0.00000  Uiso   1.00
H912   H     0.68988   0.87422   0.38391   0.00000  Uiso   1.00
H913   H     0.82898   0.89198   0.16690   0.00000  Uiso   1.00
H914   H     0.77532   0.77986   0.33643   0.00000  Uiso   1.00
H915   H     0.88296   0.91413   0.19527   0.00000  Uiso   1.00
H916   H     0.99180   0.90280   0.45936   0.00000  Uiso   1.00
H917   H     0.99309   0.84782   0.02765   0.00000  Uiso   1.00
H918   H     0.85191   0.76508   0.08565   0.00000  Uiso   1.00
H919   H     0.80705   0.76627   0.05516   0.00000  Uiso   1.00
H920   H     0.85798   0.80193   0.04154   0.00000  Uiso   1.00
N921   N     0.78403   0.83334   0.24999   0.00000  Uiso   1.00
N922   N     0.88264   0.83332   0.25001   0.00000  Uiso   1.00
O923   O     0.70625   0.77322   0.25000   0.00000  Uiso   1.00
O924   O     0.81327   0.87138   0.40289   0.00000  Uiso   1.00
O925   O     0.86716   0.77839   0.30249   0.00000  Uiso   1.00
O926   O     0.80095   0.88403   0.19278   0.00000  Uiso   1.00
O927   O     0.76486   0.78424   0.30897   0.00000  Uiso   1.00
O928   O     0.90020   0.88804   0.19735   0.00000  Uiso   1.00
O929   O     0.96042   0.89345   0.25000   0.00000  Uiso   1.00
O930   O     0.96039   0.77321   0.25000   0.00000  Uiso   1.00
O931   O     0.70628   0.89346   0.25000   0.00000  Uiso   1.00
O932   O     0.68519   0.83334   0.31492   0.00000  Uiso   1.00
O933   O     0.98148   0.83332   0.18508   0.00000  Uiso   1.00
O934   O     0.93933   0.83333   0.31492   0.00000  Uiso   1.00
O935   O     0.72733   0.83333   0.18508   0.00000  Uiso   1.00
O936   O     0.83353   0.90455   0.08145   0.00000  Uiso   1.00
C937   C     0.00003   0.08743   0.75021   0.00000  Uiso   1.00
C938   C     0.01687   0.02194   0.70864   0.00000  Uiso   1.00
C939   C     0.33208   0.29027   0.74951   0.00000  Uiso   1.00
C940   C     0.00011   0.04253   0.75014   0.00000  Uiso   1.00
C941   C     0.18327   0.13986   0.77721   0.00000  Uiso   1.00
C942   C     0.15043   0.19262   0.72181   0.00000  Uiso   1.00
C943   C     0.13266   0.14121   0.77868   0.00000  Uiso   1.00
C944   C     0.20027   0.19363   0.72299   0.00000  Uiso   1.00
C945   C     0.30539   0.16793   0.83629   0.00000  Uiso   1.00
C946   C     0.02805   0.16636   0.66350   0.00000  Uiso   1.00
C947   C     0.28870   0.17778   0.88481   0.00000  Uiso   1.00
C948   C    -0.00000   0.24572   0.74923   0.00000  Uiso   1.00
C949   C     0.04412   0.16960   0.61344   0.00000  Uiso   1.00
C950   C     0.30094   0.21854   0.94560   0.00000  Uiso   1.00
C951   C     0.02134   0.18041   0.54448   0.00000  Uiso   1.00
C952   C     0.31902   0.20145   0.90304   0.00000  Uiso   1.00
C953   C     0.00826   0.17414   0.59092   0.00000  Uiso   1.00
C954   C     0.23967   0.17047   0.91066   0.00000  Uiso   1.00
C955   C     0.09436   0.17166   0.58790   0.00000  Uiso   1.00
C956   C     0.21954   0.19434   0.94964   0.00000  Uiso   1.00
C957   C     0.10614   0.18810   0.54325   0.00000  Uiso   1.00
C958   C     0.25163   0.21431   0.96954   0.00000  Uiso   1.00
C959   C     0.18534   0.22178   0.53895   0.00000  Uiso   1.00
C960   C     0.07020   0.18693   0.52030   0.00000  Uiso   1.00
C961   C     0.16891   0.19610   0.97182   0.00000  Uiso   1.00
C962   C     0.15370   0.20128   0.51886   0.00000  Uiso   1.00
C963   C     0.13333   0.14869   0.60400   0.00000  Uiso   1.00
C964   C     0.16419   0.11890   0.56922   0.00000  Uiso   1.00
C965   C     0.21357   0.13192   0.90205   0.00000  Uiso   1.00
C966   C     0.20125   0.10194   0.94226   0.00000  Uiso   1.00
C967   C     0.29080   0.04343   0.83448   0.00000  Uiso   1.00
C968   C     0.32820   0.05855   0.85691   0.00000  Uiso   1.00
C969   C     0.01257   0.29026   0.66448   0.00000  Uiso   1.00
C970   C     0.13315   0.19606   0.94864   0.00000  Uiso   1.00
C971   C     0.06363   0.27672   0.63773   0.00000  Uiso   1.00
C972   C     0.30171   0.28573   0.83531   0.00000  Uiso   1.00
C973   C     0.24775   0.27358   0.84863   0.00000  Uiso   1.00
C974   C     0.04501   0.04531   0.66615   0.00000  Uiso   1.00
C975   C     0.09923   0.04628   0.66312   0.00000  Uiso   1.00
C976   C     0.23392   0.22945   0.51330   0.00000  Uiso   1.00
C977   C     0.08377   0.19206   0.97342   0.00000  Uiso   1.00
C978   C     0.31448   0.02051   0.79125   0.00000  Uiso   1.00
C979   C     0.01117   0.31221   0.70809   0.00000  Uiso   1.00
C980   C     0.31667   0.31052   0.79123   0.00000  Uiso   1.00
Cu981  Cu    0.04689   0.16667   0.75000   0.00000  Uiso   1.00
Cu982  Cu    0.28645   0.16666   0.75000   0.00000  Uiso   1.00
H983   H     0.25827   0.24576   0.52809   0.00000  Uiso   1.00
H984   H     0.15750   0.17008   0.61478   0.00000  Uiso   1.00
H985   H     0.11615   0.12873   0.63333   0.00000  Uiso   1.00
H986   H     0.19054   0.07175   0.93175   0.00000  Uiso   1.00
H987   H     0.23339   0.09725   0.95494   0.00000  Uiso   1.00
H988   H     0.17015   0.11343   0.96983   0.00000  Uiso   1.00
H989   H     0.18045   0.13866   0.89195   0.00000  Uiso   1.00
H990   H     0.23750   0.11494   0.87396   0.00000  Uiso   1.00
H991   H     0.19325   0.25265   0.58960   0.00000  Uiso   1.00
H992   H     0.11723   0.20406   0.89215   0.00000  Uiso   1.00
H993   H     0.01807   0.03282   0.86258   0.00000  Uiso   1.00
H994   H     0.05632   0.19142   0.95587   0.00000  Uiso   1.00
H995   H     0.01827   0.08237   0.83557   0.00000  Uiso   1.00
H996   H     0.30917   0.07238   0.88988   0.00000  Uiso   1.00
H997   H     0.26998   0.06952   0.82653   0.00000  Uiso   1.00
H998   H     0.26295   0.02480   0.85919   0.00000  Uiso   1.00
H999   H     0.07931   0.25646   0.65881   0.00000  Uiso   1.00
H1000  H     0.06147   0.25931   0.60788   0.00000  Uiso   1.00
H1001  H     0.08807   0.30334   0.62541   0.00000  Uiso   1.00
H1002  H     0.32212   0.26264   0.67160   0.00000  Uiso   1.00
H1003  H     0.32955   0.30978   0.64304   0.00000  Uiso   1.00
H1004  H     0.24136   0.24918   0.82647   0.00000  Uiso   1.00
H1005  H     0.30315   0.17187   0.60907   0.00000  Uiso   1.00
H1006  H     0.23648   0.26161   0.88382   0.00000  Uiso   1.00
H1007  H     0.22428   0.30028   0.84646   0.00000  Uiso   1.00
H1008  H     0.32440   0.25769   0.83270   0.00000  Uiso   1.00
H1009  H     0.30921   0.30289   0.86316   0.00000  Uiso   1.00
H1010  H     0.12087   0.05399   0.62816   0.00000  Uiso   1.00
H1011  H     0.10633   0.06955   0.68624   0.00000  Uiso   1.00
H1012  H     0.11186   0.01590   0.67220   0.00000  Uiso   1.00
H1013  H     0.04081   0.03153   0.63514   0.00000  Uiso   1.00
H1014  H     0.03137   0.07721   0.66539   0.00000  Uiso   1.00
H1015  H     0.17953   0.08691   0.80774   0.00000  Uiso   1.00
H1016  H     0.02321   0.20755   0.88391   0.00000  Uiso   1.00
H1017  H     0.16231   0.22531   0.66690   0.00000  Uiso   1.00
H1018  H     0.10866   0.11319   0.83643   0.00000  Uiso   1.00
H1019  H     0.21629   0.24746   0.69527   0.00000  Uiso   1.00
H1020  H     0.32514   0.23614   0.95936   0.00000  Uiso   1.00
H1021  H     0.32642   0.18115   0.52765   0.00000  Uiso   1.00
H1022  H     0.18525   0.09842   0.58565   0.00000  Uiso   1.00
H1023  H     0.14038   0.09960   0.55516   0.00000  Uiso   1.00
H1024  H     0.19132   0.13526   0.54154   0.00000  Uiso   1.00
N1025  N     0.11736   0.16668   0.74999   0.00000  Uiso   1.00
N1026  N     0.21597   0.16666   0.75001   0.00000  Uiso   1.00
O1027  O     0.03958   0.10655   0.75000   0.00000  Uiso   1.00
O1028  O     0.14661   0.20471   0.90289   0.00000  Uiso   1.00
O1029  O     0.20050   0.11172   0.80249   0.00000  Uiso   1.00
O1030  O     0.13428   0.21736   0.69278   0.00000  Uiso   1.00
O1031  O     0.09819   0.11757   0.80897   0.00000  Uiso   1.00
O1032  O     0.23353   0.22138   0.69735   0.00000  Uiso   1.00
O1033  O     0.29375   0.22678   0.75000   0.00000  Uiso   1.00
O1034  O     0.29372   0.10654   0.75000   0.00000  Uiso   1.00
O1035  O     0.03961   0.22679   0.75000   0.00000  Uiso   1.00
O1036  O     0.01852   0.16668   0.81492   0.00000  Uiso   1.00
O1037  O     0.31481   0.16666   0.68508   0.00000  Uiso   1.00
O1038  O     0.27267   0.16667   0.81492   0.00000  Uiso   1.00
O1039  O     0.06067   0.16667   0.68508   0.00000  Uiso   1.00
O1040  O     0.16687   0.23788   0.58145   0.00000  Uiso   1.00
C1041  C     0.33336   0.08743   0.75021   0.00000  Uiso   1.00
C1042  C     0.35020   0.02194   0.70864   0.00000  Uiso   1.00
C1043  C     0.66541   0.29027   0.74951   0.00000  Uiso   1.00
C1044  C     0.33344   0.04253   0.75014   0.00000  Uiso   1.00
C1045  C     0.51660   0.13986   0.77721   0.00000  Uiso   1.00
C1046  C     0.48376   0.19262   0.72181   0.00000  Uiso   1.00
C1047  C     0.46600   0.14121   0.77868   0.00000  Uiso   1.00
C1048  C     0.53360   0.19363   0.72299   0.00000  Uiso   1.00
C1049  C     0.63872   0.16793   0.83629   0.00000  Uiso   1.00
C1050  C     0.36139   0.16636   0.66350   0.00000  Uiso   1.00
C1051  C     0.62204   0.17778   0.88481   0.00000  Uiso   1.00
C1052  C     0.33333   0.24572   0.74923   0.00000  Uiso   1.00
C1053  C     0.37745   0.16960   0.61344   0.00000  Uiso   1.00
C1054  C     0.63428   0.21854   0.94560   0.00000  Uiso   1.00
C1055  C     0.35467   0.18041   0.54448   0.00000  Uiso   1.00
C1056  C     0.65235   0.20145   0.90304   0.00000  Uiso   1.00
C1057  C     0.34159   0.17414   0.59092   0.00000  Uiso   1.00
C1058  C     0.57300   0.17047   0.91066   0.00000  Uiso   1.00
C1059  C     0.42769   0.17166   0.58790   0.00000  Uiso   1.00
C1060  C     0.55287   0.19434   0.94964   0.00000  Uiso   1.00
C1061  C     0.43947   0.18810   0.54325   0.00000  Uiso   1.00
C1062  C     0.58496   0.21431   0.96954   0.00000  Uiso   1.00
C1063  C     0.51867   0.22178   0.53895   0.00000  Uiso   1.00
C1064  C     0.40353   0.18693   0.52030   0.00000  Uiso   1.00
C1065  C     0.50224   0.19610   0.97182   0.00000  Uiso   1.00
C1066  C     0.48703   0.20128   0.51886   0.00000  Uiso   1.00
C1067  C     0.46666   0.14869   0.60400   0.00000  Uiso   1.00
C1068  C     0.49752   0.11890   0.56922   0.00000  Uiso   1.00
C1069  C     0.54690   0.13192   0.90205   0.00000  Uiso   1.00
C1070  C     0.53458   0.10194   0.94226   0.00000  Uiso   1.00
C1071  C     0.62413   0.04343   0.83448   0.00000  Uiso   1.00
C1072  C     0.66153   0.05855   0.85691   0.00000  Uiso   1.00
C1073  C     0.34590   0.29026   0.66448   0.00000  Uiso   1.00
C1074  C     0.46649   0.19606   0.94864   0.00000  Uiso   1.00
C1075  C     0.39697   0.27672   0.63773   0.00000  Uiso   1.00
C1076  C     0.63504   0.28573   0.83531   0.00000  Uiso   1.00
C1077  C     0.58108   0.27358   0.84863   0.00000  Uiso   1.00
C1078  C     0.37834   0.04531   0.66615   0.00000  Uiso   1.00
C1079  C     0.43256   0.04628   0.66312   0.00000  Uiso   1.00
C1080  C     0.56725   0.22945   0.51330   0.00000  Uiso   1.00
C1081  C     0.41710   0.19206   0.97342   0.00000  Uiso   1.00
C1082  C     0.64781   0.02051   0.79125   0.00000  Uiso   1.00
C1083  C     0.34450   0.31221   0.70809   0.00000  Uiso   1.00
C1084  C     0.65001   0.31052   0.79123   0.00000  Uiso   1.00
Cu1085 Cu    0.38022   0.16667   0.75000   0.00000  Uiso   1.00
Cu1086 Cu    0.61978   0.16666   0.75000   0.00000  Uiso   1.00
H1087  H     0.59161   0.24576   0.52809   0.00000  Uiso   1.00
H1088  H     0.49084   0.17008   0.61478   0.00000  Uiso   1.00
H1089  H     0.44948   0.12873   0.63333   0.00000  Uiso   1.00
H1090  H     0.52387   0.07175   0.93175   0.00000  Uiso   1.00
H1091  H     0.56672   0.09725   0.95494   0.00000  Uiso   1.00
H1092  H     0.50348   0.11343   0.96983   0.00000  Uiso   1.00
H1093  H     0.51378   0.13866   0.89195   0.00000  Uiso   1.00
H1094  H     0.57084   0.11494   0.87396   0.00000  Uiso   1.00
H1095  H     0.52658   0.25265   0.58960   0.00000  Uiso   1.00
H1096  H     0.45057   0.20406   0.89215   0.00000  Uiso   1.00
H1097  H     0.35140   0.03282   0.86258   0.00000  Uiso   1.00
H1098  H     0.38965   0.19142   0.95587   0.00000  Uiso   1.00
H1099  H     0.35160   0.08237   0.83557   0.00000  Uiso   1.00
H1100  H     0.64251   0.07238   0.88988   0.00000  Uiso   1.00
H1101  H     0.60332   0.06952   0.82653   0.00000  Uiso   1.00
H1102  H     0.59629   0.02480   0.85919   0.00000  Uiso   1.00
H1103  H     0.41264   0.25646   0.65881   0.00000  Uiso   1.00
H1104  H     0.39480   0.25931   0.60788   0.00000  Uiso   1.00
H1105  H     0.42140   0.30334   0.62541   0.00000  Uiso   1.00
H1106  H     0.65546   0.26264   0.67160   0.00000  Uiso   1.00
H1107  H     0.66289   0.30978   0.64304   0.00000  Uiso   1.00
H1108  H     0.57470   0.24918   0.82647   0.00000  Uiso   1.00
H1109  H     0.63648   0.17187   0.60907   0.00000  Uiso   1.00
H1110  H     0.56981   0.26161   0.88382   0.00000  Uiso   1.00
H1111  H     0.55761   0.30028   0.84646   0.00000  Uiso   1.00
H1112  H     0.65773   0.25769   0.83270   0.00000  Uiso   1.00
H1113  H     0.64254   0.30289   0.86316   0.00000  Uiso   1.00
H1114  H     0.45421   0.05399   0.62816   0.00000  Uiso   1.00
H1115  H     0.43966   0.06955   0.68624   0.00000  Uiso   1.00
H1116  H     0.44519   0.01590   0.67220   0.00000  Uiso   1.00
H1117  H     0.37414   0.03153   0.63514   0.00000  Uiso   1.00
H1118  H     0.36470   0.07721   0.66539   0.00000  Uiso   1.00
H1119  H     0.51286   0.08691   0.80774   0.00000  Uiso   1.00
H1120  H     0.35655   0.20755   0.88391   0.00000  Uiso   1.00
H1121  H     0.49564   0.22531   0.66690   0.00000  Uiso   1.00
H1122  H     0.44199   0.11319   0.83643   0.00000  Uiso   1.00
H1123  H     0.54963   0.24746   0.69527   0.00000  Uiso   1.00
H1124  H     0.65847   0.23614   0.95936   0.00000  Uiso   1.00
H1125  H     0.65975   0.18115   0.52765   0.00000  Uiso   1.00
H1126  H     0.51858   0.09842   0.58565   0.00000  Uiso   1.00
H1127  H     0.47371   0.09960   0.55516   0.00000  Uiso   1.00
H1128  H     0.52465   0.13526   0.54154   0.00000  Uiso   1.00
N1129  N     0.45069   0.16668   0.74999   0.00000  Uiso   1.00
N1130  N     0.54931   0.16666   0.75001   0.00000  Uiso   1.00
O1131  O     0.37291   0.10655   0.75000   0.00000  Uiso   1.00
O1132  O     0.47994   0.20471   0.90289   0.00000  Uiso   1.00
O1133  O     0.53383   0.11172   0.80249   0.00000  Uiso   1.00
O1134  O     0.46761   0.21736   0.69278   0.00000  Uiso   1.00
O1135  O     0.43152   0.11757   0.80897   0.00000  Uiso   1.00
O1136  O     0.56686   0.22138   0.69735   0.00000  Uiso   1.00
O1137  O     0.62709   0.22678   0.75000   0.00000  Uiso   1.00
O1138  O     0.62706   0.10654   0.75000   0.00000  Uiso   1.00
O1139  O     0.37294   0.22679   0.75000   0.00000  Uiso   1.00
O1140  O     0.35186   0.16668   0.81492   0.00000  Uiso   1.00
O1141  O     0.64814   0.16666   0.68508   0.00000  Uiso   1.00
O1142  O     0.60600   0.16667   0.81492   0.00000  Uiso   1.00
O1143  O     0.39400   0.16667   0.68508   0.00000  Uiso   1.00
O1144  O     0.50020   0.23788   0.58145   0.00000  Uiso   1.00
C1145  C     0.66669   0.08743   0.75021   0.00000  Uiso   1.00
C1146  C     0.68353   0.02194   0.70864   0.00000  Uiso   1.00
C1147  C     0.99874   0.29027   0.74951   0.00000  Uiso   1.00
C1148  C     0.66677   0.04253   0.75014   0.00000  Uiso   1.00
C1149  C     0.84993   0.13986   0.77721   0.00000  Uiso   1.00
C1150  C     0.81710   0.19262   0.72181   0.00000  Uiso   1.00
C1151  C     0.79933   0.14121   0.77868   0.00000  Uiso   1.00
C1152  C     0.86694   0.19363   0.72299   0.00000  Uiso   1.00
C1153  C     0.97205   0.16793   0.83629   0.00000  Uiso   1.00
C1154  C     0.69472   0.16636   0.66350   0.00000  Uiso   1.00
C1155  C     0.95537   0.17778   0.88481   0.00000  Uiso   1.00
C1156  C     0.66667   0.24572   0.74923   0.00000  Uiso   1.00
C1157  C     0.71078   0.16960   0.61344   0.00000  Uiso   1.00
C1158  C     0.96761   0.21854   0.94560   0.00000  Uiso   1.00
C1159  C     0.68800   0.18041   0.54448   0.00000  Uiso   1.00
C1160  C     0.98569   0.20145   0.90304   0.00000  Uiso   1.00
C1161  C     0.67493   0.17414   0.59092   0.00000  Uiso   1.00
C1162  C     0.90634   0.17047   0.91066   0.00000  Uiso   1.00
C1163  C     0.76102   0.17166   0.58790   0.00000  Uiso   1.00
C1164  C     0.88621   0.19434   0.94964   0.00000  Uiso   1.00
C1165  C     0.77281   0.18810   0.54325   0.00000  Uiso   1.00
C1166  C     0.91830   0.21431   0.96954   0.00000  Uiso   1.00
C1167  C     0.85201   0.22178   0.53895   0.00000  Uiso   1.00
C1168  C     0.73686   0.18693   0.52030   0.00000  Uiso   1.00
C1169  C     0.83557   0.19610   0.97182   0.00000  Uiso   1.00
C1170  C     0.82036   0.20128   0.51886   0.00000  Uiso   1.00
C1171  C     0.80000   0.14869   0.60400   0.00000  Uiso   1.00
C1172  C     0.83085   0.11890   0.56922   0.00000  Uiso   1.00
C1173  C     0.88024   0.13192   0.90205   0.00000  Uiso   1.00
C1174  C     0.86792   0.10194   0.94226   0.00000  Uiso   1.00
C1175  C     0.95746   0.04343   0.83448   0.00000  Uiso   1.00
C1176  C     0.99486   0.05855   0.85691   0.00000  Uiso   1.00
C1177  C     0.67923   0.29026   0.66448   0.00000  Uiso   1.00
C1178  C     0.79982   0.19606   0.94864   0.00000  Uiso   1.00
C1179  C     0.73030   0.27672   0.63773   0.00000  Uiso   1.00
C1180  C     0.96838   0.28573   0.83531   0.00000  Uiso   1.00
C1181  C     0.91442   0.27358   0.84863   0.00000  Uiso   1.00
C1182  C     0.71168   0.04531   0.66615   0.00000  Uiso   1.00
C1183  C     0.76590   0.04628   0.66312   0.00000  Uiso   1.00
C1184  C     0.90058   0.22945   0.51330   0.00000  Uiso   1.00
C1185  C     0.75043   0.19206   0.97342   0.00000  Uiso   1.00
C1186  C     0.98114   0.02051   0.79125   0.00000  Uiso   1.00
C1187  C     0.67784   0.31221   0.70809   0.00000  Uiso   1.00
C1188  C     0.98334   0.31052   0.79123   0.00000  Uiso   1.00
Cu1189 Cu    0.71355   0.16667   0.75000   0.00000  Uiso   1.00
Cu1190 Cu    0.95311   0.16666   0.75000   0.00000  Uiso   1.00
H1191  H     0.92494   0.24576   0.52809   0.00000  Uiso   1.00
H1192  H     0.82417   0.17008   0.61478   0.00000  Uiso   1.00
H1193  H     0.78281   0.12873   0.63333   0.00000  Uiso   1.00
H1194  H     0.85721   0.07175   0.93175   0.00000  Uiso   1.00
H1195  H     0.90005   0.09725   0.95494   0.00000  Uiso   1.00
H1196  H     0.83681   0.11343   0.96983   0.00000  Uiso   1.00
H1197  H     0.84712   0.13866   0.89195   0.00000  Uiso   1.00
H1198  H     0.90417   0.11494   0.87396   0.00000  Uiso   1.00
H1199  H     0.85991   0.25265   0.58960   0.00000  Uiso   1.00
H1200  H     0.78390   0.20406   0.89215   0.00000  Uiso   1.00
H1201  H     0.68473   0.03282   0.86258   0.00000  Uiso   1.00
H1202  H     0.72299   0.19142   0.95587   0.00000  Uiso   1.00
H1203  H     0.68493   0.08237   0.83557   0.00000  Uiso   1.00
H1204  H     0.97584   0.07238   0.88988   0.00000  Uiso   1.00
H1205  H     0.93665   0.06952   0.82653   0.00000  Uiso   1.00
H1206  H     0.92962   0.02480   0.85919   0.00000  Uiso   1.00
H1207  H     0.74598   0.25646   0.65881   0.00000  Uiso   1.00
H1208  H     0.72814   0.25931   0.60788   0.00000  Uiso   1.00
H1209  H     0.75473   0.30334   0.62541   0.00000  Uiso   1.00
H1210  H     0.98879   0.26264   0.67160   0.00000  Uiso   1.00
H1211  H     0.99622   0.30978   0.64304   0.00000  Uiso   1.00
H1212  H     0.90803   0.24918   0.82647   0.00000  Uiso   1.00
H1213  H     0.96982   0.17187   0.60907   0.00000  Uiso   1.00
H1214  H     0.90315   0.26161   0.88382   0.00000  Uiso   1.00
H1215  H     0.89094   0.30028   0.84646   0.00000  Uiso   1.00
H1216  H     0.99106   0.25769   0.83270   0.00000  Uiso   1.00
H1217  H     0.97588   0.30289   0.86316   0.00000  Uiso   1.00
H1218  H     0.78754   0.05399   0.62816   0.00000  Uiso   1.00
H1219  H     0.77299   0.06955   0.68624   0.00000  Uiso   1.00
H1220  H     0.77853   0.01590   0.67220   0.00000  Uiso   1.00
H1221  H     0.70748   0.03153   0.63514   0.00000  Uiso   1.00
H1222  H     0.69803   0.07721   0.66539   0.00000  Uiso   1.00
H1223  H     0.84619   0.08691   0.80774   0.00000  Uiso   1.00
H1224  H     0.68988   0.20755   0.88391   0.00000  Uiso   1.00
H1225  H     0.82898   0.22531   0.66690   0.00000  Uiso   1.00
H1226  H     0.77532   0.11319   0.83643   0.00000  Uiso   1.00
H1227  H     0.88296   0.24746   0.69527   0.00000  Uiso   1.00
H1228  H     0.99180   0.23614   0.95936   0.00000  Uiso   1.00
H1229  H     0.99309   0.18115   0.52765   0.00000  Uiso   1.00
H1230  H     0.85191   0.09842   0.58565   0.00000  Uiso   1.00
H1231  H     0.80705   0.09960   0.55516   0.00000  Uiso   1.00
H1232  H     0.85798   0.13526   0.54154   0.00000  Uiso   1.00
N1233  N     0.78403   0.16668   0.74999   0.00000  Uiso   1.00
N1234  N     0.88264   0.16666   0.75001   0.00000  Uiso   1.00
O1235  O     0.70625   0.10655   0.75000   0.00000  Uiso   1.00
O1236  O     0.81327   0.20471   0.90289   0.00000  Uiso   1.00
O1237  O     0.86716   0.11172   0.80249   0.00000  Uiso   1.00
O1238  O     0.80095   0.21736   0.69278   0.00000  Uiso   1.00
O1239  O     0.76486   0.11757   0.80897   0.00000  Uiso   1.00
O1240  O     0.90020   0.22138   0.69735   0.00000  Uiso   1.00
O1241  O     0.96042   0.22678   0.75000   0.00000  Uiso   1.00
O1242  O     0.96039   0.10654   0.75000   0.00000  Uiso   1.00
O1243  O     0.70628   0.22679   0.75000   0.00000  Uiso   1.00
O1244  O     0.68519   0.16668   0.81492   0.00000  Uiso   1.00
O1245  O     0.98148   0.16666   0.68508   0.00000  Uiso   1.00
O1246  O     0.93933   0.16667   0.81492   0.00000  Uiso   1.00
O1247  O     0.72733   0.16667   0.68508   0.00000  Uiso   1.00
O1248  O     0.83353   0.23788   0.58145   0.00000  Uiso   1.00
C1249  C     0.00003   0.42077   0.75021   0.00000  Uiso   1.00
C1250  C     0.01687   0.35527   0.70864   0.00000  Uiso   1.00
C1251  C     0.33208   0.62360   0.74951   0.00000  Uiso   1.00
C1252  C     0.00011   0.37587   0.75014   0.00000  Uiso   1.00
C1253  C     0.18327   0.47320   0.77721   0.00000  Uiso   1.00
C1254  C     0.15043   0.52595   0.72181   0.00000  Uiso   1.00
C1255  C     0.13266   0.47454   0.77868   0.00000  Uiso   1.00
C1256  C     0.20027   0.52697   0.72299   0.00000  Uiso   1.00
C1257  C     0.30539   0.50126   0.83629   0.00000  Uiso   1.00
C1258  C     0.02805   0.49969   0.66350   0.00000  Uiso   1.00
C1259  C     0.28870   0.51111   0.88481   0.00000  Uiso   1.00
C1260  C    -0.00000   0.57906   0.74923   0.00000  Uiso   1.00
C1261  C     0.04412   0.50293   0.61344   0.00000  Uiso   1.00
C1262  C     0.30094   0.55187   0.94560   0.00000  Uiso   1.00
C1263  C     0.02134   0.51375   0.54448   0.00000  Uiso   1.00
C1264  C     0.31902   0.53478   0.90304   0.00000  Uiso   1.00
C1265  C     0.00826   0.50748   0.59092   0.00000  Uiso   1.00
C1266  C     0.23967   0.50380   0.91066   0.00000  Uiso   1.00
C1267  C     0.09436   0.50499   0.58790   0.00000  Uiso   1.00
C1268  C     0.21954   0.52768   0.94964   0.00000  Uiso   1.00
C1269  C     0.10614   0.52143   0.54325   0.00000  Uiso   1.00
C1270  C     0.25163   0.54764   0.96954   0.00000  Uiso   1.00
C1271  C     0.18534   0.55511   0.53895   0.00000  Uiso   1.00
C1272  C     0.07020   0.52026   0.52030   0.00000  Uiso   1.00
C1273  C     0.16891   0.52944   0.97182   0.00000  Uiso   1.00
C1274  C     0.15370   0.53461   0.51886   0.00000  Uiso   1.00
C1275  C     0.13333   0.48203   0.60400   0.00000  Uiso   1.00
C1276  C     0.16419   0.45223   0.56922   0.00000  Uiso   1.00
C1277  C     0.21357   0.46525   0.90205   0.00000  Uiso   1.00
C1278  C     0.20125   0.43527   0.94226   0.00000  Uiso   1.00
C1279  C     0.29080   0.37677   0.83448   0.00000  Uiso   1.00
C1280  C     0.32820   0.39189   0.85691   0.00000  Uiso   1.00
C1281  C     0.01257   0.62359   0.66448   0.00000  Uiso   1.00
C1282  C     0.13315   0.52939   0.94864   0.00000  Uiso   1.00
C1283  C     0.06363   0.61006   0.63773   0.00000  Uiso   1.00
C1284  C     0.30171   0.61906   0.83531   0.00000  Uiso   1.00
C1285  C     0.24775   0.60691   0.84863   0.00000  Uiso   1.00
C1286  C     0.04501   0.37864   0.66615   0.00000  Uiso   1.00
C1287  C     0.09923   0.37961   0.66312   0.00000  Uiso   1.00
C1288  C     0.23392   0.56278   0.51330   0.00000  Uiso   1.00
C1289  C     0.08377   0.52539   0.97342   0.00000  Uiso   1.00
C1290  C     0.31448   0.35384   0.79125   0.00000  Uiso   1.00
C1291  C     0.01117   0.64555   0.70809   0.00000  Uiso   1.00
C1292  C     0.31667   0.64386   0.79123   0.00000  Uiso   1.00
Cu1293 Cu    0.04689   0.50001   0.75000   0.00000  Uiso   1.00
Cu1294 Cu    0.28645   0.49999   0.75000   0.00000  Uiso   1.00
H1295  H     0.25827   0.57909   0.52809   0.00000  Uiso   1.00
H1296  H     0.15750   0.50341   0.61478   0.00000  Uiso   1.00
H1297  H     0.11615   0.46207   0.63333   0.00000  Uiso   1.00
H1298  H     0.19054   0.40508   0.93175   0.00000  Uiso   1.00
H1299  H     0.23339   0.43058   0.95494   0.00000  Uiso   1.00
H1300  H     0.17015   0.44676   0.96983   0.00000  Uiso   1.00
H1301  H     0.18045   0.47199   0.89195   0.00000  Uiso   1.00
H1302  H     0.23750   0.44828   0.87396   0.00000  Uiso   1.00
H1303  H     0.19325   0.58598   0.58960   0.00000  Uiso   1.00
H1304  H     0.11723   0.53739   0.89215   0.00000  Uiso   1.00
H1305  H     0.01807   0.36615   0.86258   0.00000  Uiso   1.00
H1306  H     0.05632   0.52475   0.95587   0.00000  Uiso   1.00
H1307  H     0.01827   0.41571   0.83557   0.00000  Uiso   1.00
H1308  H     0.30917   0.40571   0.88988   0.00000  Uiso   1.00
H1309  H     0.26998   0.40285   0.82653   0.00000  Uiso   1.00
H1310  H     0.26295   0.35813   0.85919   0.00000  Uiso   1.00
H1311  H     0.07931   0.58979   0.65881   0.00000  Uiso   1.00
H1312  H     0.06147   0.59265   0.60788   0.00000  Uiso   1.00
H1313  H     0.08807   0.63667   0.62541   0.00000  Uiso   1.00
H1314  H     0.32212   0.59597   0.67160   0.00000  Uiso   1.00
H1315  H     0.32955   0.64311   0.64304   0.00000  Uiso   1.00
H1316  H     0.24136   0.58251   0.82647   0.00000  Uiso   1.00
H1317  H     0.30315   0.50521   0.60907   0.00000  Uiso   1.00
H1318  H     0.23648   0.59494   0.88382   0.00000  Uiso   1.00
H1319  H     0.22428   0.63362   0.84646   0.00000  Uiso   1.00
H1320  H     0.32440   0.59102   0.83270   0.00000  Uiso   1.00
H1321  H     0.30921   0.63623   0.86316   0.00000  Uiso   1.00
H1322  H     0.12087   0.38732   0.62816   0.00000  Uiso   1.00
H1323  H     0.10633   0.40288   0.68624   0.00000  Uiso   1.00
H1324  H     0.11186   0.34923   0.67220   0.00000  Uiso   1.00
H1325  H     0.04081   0.36486   0.63514   0.00000  Uiso   1.00
H1326  H     0.03137   0.41054   0.66539   0.00000  Uiso   1.00
H1327  H     0.17953   0.42025   0.80774   0.00000  Uiso   1.00
H1328  H     0.02321   0.54088   0.88391   0.00000  Uiso   1.00
H1329  H     0.16231   0.55865   0.66690   0.00000  Uiso   1.00
H1330  H     0.10866   0.44653   0.83643   0.00000  Uiso   1.00
H1331  H     0.21629   0.58080   0.69527   0.00000  Uiso   1.00
H1332  H     0.32514   0.56947   0.95936   0.00000  Uiso   1.00
H1333  H     0.32642   0.51449   0.52765   0.00000  Uiso   1.00
H1334  H     0.18525   0.43175   0.58565   0.00000  Uiso   1.00
H1335  H     0.14038   0.43293   0.55516   0.00000  Uiso   1.00
H1336  H     0.19132   0.46860   0.54154   0.00000  Uiso   1.00
N1337  N     0.11736   0.50001   0.74999   0.00000  Uiso   1.00
N1338  N     0.21597   0.49999   0.75001   0.00000  Uiso   1.00
O1339  O     0.03958   0.43989   0.75000   0.00000  Uiso   1.00
O1340  O     0.14661   0.53804   0.90289   0.00000  Uiso   1.00
O1341  O     0.20050   0.44506   0.80249   0.00000  Uiso   1.00
O1342  O     0.13428   0.55070   0.69278   0.00000  Uiso   1.00
O1343  O     0.09819   0.45091   0.80897   0.00000  Uiso   1.00
O1344  O     0.23353   0.55471   0.69735   0.00000  Uiso   1.00
O1345  O     0.29375   0.56011   0.75000   0.00000  Uiso   1.00
O1346  O     0.29372   0.43988   0.75000   0.00000  Uiso   1.00
O1347  O     0.03961   0.56012   0.75000   0.00000  Uiso   1.00
O1348  O     0.01852   0.50001   0.81492   0.00000  Uiso   1.00
O1349  O     0.31481   0.49999   0.68508   0.00000  Uiso   1.00
O1350  O     0.27267   0.50000   0.81492   0.00000  Uiso   1.00
O1351  O     0.06067   0.50000   0.68508   0.00000  Uiso   1.00
O1352  O     0.16687   0.57121   0.58145   0.00000  Uiso   1.00
C1353  C     0.33336   0.42077   0.75021   0.00000  Uiso   1.00
C1354  C     0.35020   0.35527   0.70864   0.00000  Uiso   1.00
C1355  C     0.66541   0.62360   0.74951   0.00000  Uiso   1.00
C1356  C     0.33344   0.37587   0.75014   0.00000  Uiso   1.00
C1357  C     0.51660   0.47320   0.77721   0.00000  Uiso   1.00
C1358  C     0.48376   0.52595   0.72181   0.00000  Uiso   1.00
C1359  C     0.46600   0.47454   0.77868   0.00000  Uiso   1.00
C1360  C     0.53360   0.52697   0.72299   0.00000  Uiso   1.00
C1361  C     0.63872   0.50126   0.83629   0.00000  Uiso   1.00
C1362  C     0.36139   0.49969   0.66350   0.00000  Uiso   1.00
C1363  C     0.62204   0.51111   0.88481   0.00000  Uiso   1.00
C1364  C     0.33333   0.57906   0.74923   0.00000  Uiso   1.00
C1365  C     0.37745   0.50293   0.61344   0.00000  Uiso   1.00
C1366  C     0.63428   0.55187   0.94560   0.00000  Uiso   1.00
C1367  C     0.35467   0.51375   0.54448   0.00000  Uiso   1.00
C1368  C     0.65235   0.53478   0.90304   0.00000  Uiso   1.00
C1369  C     0.34159   0.50748   0.59092   0.00000  Uiso   1.00
C1370  C     0.57300   0.50380   0.91066   0.00000  Uiso   1.00
C1371  C     0.42769   0.50499   0.58790   0.00000  Uiso   1.00
C1372  C     0.55287   0.52768   0.94964   0.00000  Uiso   1.00
C1373  C     0.43947   0.52143   0.54325   0.00000  Uiso   1.00
C1374  C     0.58496   0.54764   0.96954   0.00000  Uiso   1.00
C1375  C     0.51867   0.55511   0.53895   0.00000  Uiso   1.00
C1376  C     0.40353   0.52026   0.52030   0.00000  Uiso   1.00
C1377  C     0.50224   0.52944   0.97182   0.00000  Uiso   1.00
C1378  C     0.48703   0.53461   0.51886   0.00000  Uiso   1.00
C1379  C     0.46666   0.48203   0.60400   0.00000  Uiso   1.00
C1380  C     0.49752   0.45223   0.56922   0.00000  Uiso   1.00
C1381  C     0.54690   0.46525   0.90205   0.00000  Uiso   1.00
C1382  C     0.53458   0.43527   0.94226   0.00000  Uiso   1.00
C1383  C     0.62413   0.37677   0.83448   0.00000  Uiso   1.00
C1384  C     0.66153   0.39189   0.85691   0.00000  Uiso   1.00
C1385  C     0.34590   0.62359   0.66448   0.00000  Uiso   1.00
C1386  C     0.46649   0.52939   0.94864   0.00000  Uiso   1.00
C1387  C     0.39697   0.61006   0.63773   0.00000  Uiso   1.00
C1388  C     0.63504   0.61906   0.83531   0.00000  Uiso   1.00
C1389  C     0.58108   0.60691   0.84863   0.00000  Uiso   1.00
C1390  C     0.37834   0.37864   0.66615   0.00000  Uiso   1.00
C1391  C     0.43256   0.37961   0.66312   0.00000  Uiso   1.00
C1392  C     0.56725   0.56278   0.51330   0.00000  Uiso   1.00
C1393  C     0.41710   0.52539   0.97342   0.00000  Uiso   1.00
C1394  C     0.64781   0.35384   0.79125   0.00000  Uiso   1.00
C1395  C     0.34450   0.64555   0.70809   0.00000  Uiso   1.00
C1396  C     0.65001   0.64386   0.79123   0.00000  Uiso   1.00
Cu1397 Cu    0.38022   0.50001   0.75000   0.00000  Uiso   1.00
Cu1398 Cu    0.61978   0.49999   0.75000   0.00000  Uiso   1.00
H1399  H     0.59161   0.57909   0.52809   0.00000  Uiso   1.00
H1400  H     0.49084   0.50341   0.61478   0.00000  Uiso   1.00
H1401  H     0.44948   0.46207   0.63333   0.00000  Uiso   1.00
H1402  H     0.52387   0.40508   0.93175   0.00000  Uiso   1.00
H1403  H     0.56672   0.43058   0.95494   0.00000  Uiso   1.00
H1404  H     0.50348   0.44676   0.96983   0.00000  Uiso   1.00
H1405  H     0.51378   0.47199   0.89195   0.00000  Uiso   1.00
H1406  H     0.57084   0.44828   0.87396   0.00000  Uiso   1.00
H1407  H     0.52658   0.58598   0.58960   0.00000  Uiso   1.00
H1408  H     0.45057   0.53739   0.89215   0.00000  Uiso   1.00
H1409  H     0.35140   0.36615   0.86258   0.00000  Uiso   1.00
H1410  H     0.38965   0.52475   0.95587   0.00000  Uiso   1.00
H1411  H     0.35160   0.41571   0.83557   0.00000  Uiso   1.00
H1412  H     0.64251   0.40571   0.88988   0.00000  Uiso   1.00
H1413  H     0.60332   0.40285   0.82653   0.00000  Uiso   1.00
H1414  H     0.59629   0.35813   0.85919   0.00000  Uiso   1.00
H1415  H     0.41264   0.58979   0.65881   0.00000  Uiso   1.00
H1416  H     0.39480   0.59265   0.60788   0.00000  Uiso   1.00
H1417  H     0.42140   0.63667   0.62541   0.00000  Uiso   1.00
H1418  H     0.65546   0.59597   0.67160   0.00000  Uiso   1.00
H1419  H     0.66289   0.64311   0.64304   0.00000  Uiso   1.00
H1420  H     0.57470   0.58251   0.82647   0.00000  Uiso   1.00
H1421  H     0.63648   0.50521   0.60907   0.00000  Uiso   1.00
H1422  H     0.56981   0.59494   0.88382   0.00000  Uiso   1.00
H1423  H     0.55761   0.63362   0.84646   0.00000  Uiso   1.00
H1424  H     0.65773   0.59102   0.83270   0.00000  Uiso   1.00
H1425  H     0.64254   0.63623   0.86316   0.00000  Uiso   1.00
H1426  H     0.45421   0.38732   0.62816   0.00000  Uiso   1.00
H1427  H     0.43966   0.40288   0.68624   0.00000  Uiso   1.00
H1428  H     0.44519   0.34923   0.67220   0.00000  Uiso   1.00
H1429  H     0.37414   0.36486   0.63514   0.00000  Uiso   1.00
H1430  H     0.36470   0.41054   0.66539   0.00000  Uiso   1.00
H1431  H     0.51286   0.42025   0.80774   0.00000  Uiso   1.00
H1432  H     0.35655   0.54088   0.88391   0.00000  Uiso   1.00
H1433  H     0.49564   0.55865   0.66690   0.00000  Uiso   1.00
H1434  H     0.44199   0.44653   0.83643   0.00000  Uiso   1.00
H1435  H     0.54963   0.58080   0.69527   0.00000  Uiso   1.00
H1436  H     0.65847   0.56947   0.95936   0.00000  Uiso   1.00
H1437  H     0.65975   0.51449   0.52765   0.00000  Uiso   1.00
H1438  H     0.51858   0.43175   0.58565   0.00000  Uiso   1.00
H1439  H     0.47371   0.43293   0.55516   0.00000  Uiso   1.00
H1440  H     0.52465   0.46860   0.54154   0.00000  Uiso   1.00
N1441  N     0.45069   0.50001   0.74999   0.00000  Uiso   1.00
N1442  N     0.54931   0.49999   0.75001   0.00000  Uiso   1.00
O1443  O     0.37291   0.43989   0.75000   0.00000  Uiso   1.00
O1444  O     0.47994   0.53804   0.90289   0.00000  Uiso   1.00
O1445  O     0.53383   0.44506   0.80249   0.00000  Uiso   1.00
O1446  O     0.46761   0.55070   0.69278   0.00000  Uiso   1.00
O1447  O     0.43152   0.45091   0.80897   0.00000  Uiso   1.00
O1448  O     0.56686   0.55471   0.69735   0.00000  Uiso   1.00
O1449  O     0.62709   0.56011   0.75000   0.00000  Uiso   1.00
O1450  O     0.62706   0.43988   0.75000   0.00000  Uiso   1.00
O1451  O     0.37294   0.56012   0.75000   0.00000  Uiso   1.00
O1452  O     0.35186   0.50001   0.81492   0.00000  Uiso   1.00
O1453  O     0.64814   0.49999   0.68508   0.00000  Uiso   1.00
O1454  O     0.60600   0.50000   0.81492   0.00000  Uiso   1.00
O1455  O     0.39400   0.50000   0.68508   0.00000  Uiso   1.00
O1456  O     0.50020   0.57121   0.58145   0.00000  Uiso   1.00
C1457  C     0.66669   0.42077   0.75021   0.00000  Uiso   1.00
C1458  C     0.68353   0.35527   0.70864   0.00000  Uiso   1.00
C1459  C     0.99874   0.62360   0.74951   0.00000  Uiso   1.00
C1460  C     0.66677   0.37587   0.75014   0.00000  Uiso   1.00
C1461  C     0.84993   0.47320   0.77721   0.00000  Uiso   1.00
C1462  C     0.81710   0.52595   0.72181   0.00000  Uiso   1.00
C1463  C     0.79933   0.47454   0.77868   0.00000  Uiso   1.00
C1464  C     0.86694   0.52697   0.72299   0.00000  Uiso   1.00
C1465  C     0.97205   0.50126   0.83629   0.00000  Uiso   1.00
C1466  C     0.69472   0.49969   0.66350   0.00000  Uiso   1.00
C1467  C     0.95537   0.51111   0.88481   0.00000  Uiso   1.00
C1468  C     0.66667   0.57906   0.74923   0.00000  Uiso   1.00
C1469  C     0.71078   0.50293   0.61344   0.00000  Uiso   1.00
C1470  C     0.96761   0.55187   0.94560   0.00000  Uiso   1.00
C1471  C     0.68800   0.51375   0.54448   0.00000  Uiso   1.00
C1472  C     0.98569   0.53478   0.90304   0.00000  Uiso   1.00
C1473  C     0.67493   0.50748   0.59092   0.00000  Uiso   1.00
C1474  C     0.90634   0.50380   0.91066   0.00000  Uiso   1.00
C1475  C     0.76102   0.50499   0.58790   0.00000  Uiso   1.00
C1476  C     0.88621   0.52768   0.94964   0.00000  Uiso   1.00
C1477  C     0.77281   0.52143   0.54325   0.00000  Uiso   1.00
C1478  C     0.91830   0.54764   0.96954   0.00000  Uiso   1.00
C1479  C     0.85201   0.55511   0.53895   0.00000  Uiso   1.00
C1480  C     0.73686   0.52026   0.52030   0.00000  Uiso   1.00
C1481  C     0.83557   0.52944   0.97182   0.00000  Uiso   1.00
C1482  C     0.82036   0.53461   0.51886   0.00000  Uiso   1.00
C1483  C     0.80000   0.48203   0.60400   0.00000  Uiso   1.00
C1484  C     0.83085   0.45223   0.56922   0.00000  Uiso   1.00
C1485  C     0.88024   0.46525   0.90205   0.00000  Uiso   1.00
C1486  C     0.86792   0.43527   0.94226   0.00000  Uiso   1.00
C1487  C     0.95746   0.37677   0.83448   0.00000  Uiso   1.00
C1488  C     0.99486   0.39189   0.85691   0.00000  Uiso   1.00
C1489  C     0.67923   0.62359   0.66448   0.00000  Uiso   1.00
C1490  C     0.79982   0.52939   0.94864   0.00000  Uiso   1.00
C1491  C     0.73030   0.61006   0.63773   0.00000  Uiso   1.00
C1492  C     0.96838   0.61906   0.83531   0.00000  Uiso   1.00
C1493  C     0.91442   0.60691   0.84863   0.00000  Uiso   1.00
C1494  C     0.71168   0.37864   0.66615   0.00000  Uiso   1.00
C1495  C     0.76590   0.37961   0.66312   0.00000  Uiso   1.00
C1496  C     0.90058   0.56278   0.51330   0.00000  Uiso   1.00
C1497  C     0.75043   0.52539   0.97342   0.00000  Uiso   1.00
C1498  C     0.98114   0.35384   0.79125   0.00000  Uiso   1.00
C1499  C     0.67784   0.64555   0.70809   0.00000  Uiso   1.00
C1500  C     0.98334   0.64386   0.79123   0.00000  Uiso   1.00
Cu1501 Cu    0.71355   0.50001   0.75000   0.00000  Uiso   1.00
Cu1502 Cu    0.95311   0.49999   0.75000   0.00000  Uiso   1.00
H1503  H     0.92494   0.57909   0.52809   0.00000  Uiso   1.00
H1504  H     0.82417   0.50341   0.61478   0.00000  Uiso   1.00
H1505  H     0.78281   0.46207   0.63333   0.00000  Uiso   1.00
H1506  H     0.85721   0.40508   0.93175   0.00000  Uiso   1.00
H1507  H     0.90005   0.43058   0.95494   0.00000  Uiso   1.00
H1508  H     0.83681   0.44676   0.96983   0.00000  Uiso   1.00
H1509  H     0.84712   0.47199   0.89195   0.00000  Uiso   1.00
H1510  H     0.90417   0.44828   0.87396   0.00000  Uiso   1.00
H1511  H     0.85991   0.58598   0.58960   0.00000  Uiso   1.00
H1512  H     0.78390   0.53739   0.89215   0.00000  Uiso   1.00
H1513  H     0.68473   0.36615   0.86258   0.00000  Uiso   1.00
H1514  H     0.72299   0.52475   0.95587   0.00000  Uiso   1.00
H1515  H     0.68493   0.41571   0.83557   0.00000  Uiso   1.00
H1516  H     0.97584   0.40571   0.88988   0.00000  Uiso   1.00
H1517  H     0.93665   0.40285   0.82653   0.00000  Uiso   1.00
H1518  H     0.92962   0.35813   0.85919   0.00000  Uiso   1.00
H1519  H     0.74598   0.58979   0.65881   0.00000  Uiso   1.00
H1520  H     0.72814   0.59265   0.60788   0.00000  Uiso   1.00
H1521  H     0.75473   0.63667   0.62541   0.00000  Uiso   1.00
H1522  H     0.98879   0.59597   0.67160   0.00000  Uiso   1.00
H1523  H     0.99622   0.64311   0.64304   0.00000  Uiso   1.00
H1524  H     0.90803   0.58251   0.82647   0.00000  Uiso   1.00
H1525  H     0.96982   0.50521   0.60907   0.00000  Uiso   1.00
H1526  H     0.90315   0.59494   0.88382   0.00000  Uiso   1.00
H1527  H     0.89094   0.63362   0.84646   0.00000  Uiso   1.00
H1528  H     0.99106   0.59102   0.83270   0.00000  Uiso   1.00
H1529  H     0.97588   0.63623   0.86316   0.00000  Uiso   1.00
H1530  H     0.78754   0.38732   0.62816   0.00000  Uiso   1.00
H1531  H     0.77299   0.40288   0.68624   0.00000  Uiso   1.00
H1532  H     0.77853   0.34923   0.67220   0.00000  Uiso   1.00
H1533  H     0.70748   0.36486   0.63514   0.00000  Uiso   1.00
H1534  H     0.69803   0.41054   0.66539   0.00000  Uiso   1.00
H1535  H     0.84619   0.42025   0.80774   0.00000  Uiso   1.00
H1536  H     0.68988   0.54088   0.88391   0.00000  Uiso   1.00
H1537  H     0.82898   0.55865   0.66690   0.00000  Uiso   1.00
H1538  H     0.77532   0.44653   0.83643   0.00000  Uiso   1.00
H1539  H     0.88296   0.58080   0.69527   0.00000  Uiso   1.00
H1540  H     0.99180   0.56947   0.95936   0.00000  Uiso   1.00
H1541  H     0.99309   0.51449   0.52765   0.00000  Uiso   1.00
H1542  H     0.85191   0.43175   0.58565   0.00000  Uiso   1.00
H1543  H     0.80705   0.43293   0.55516   0.00000  Uiso   1.00
H1544  H     0.85798   0.46860   0.54154   0.00000  Uiso   1.00
N1545  N     0.78403   0.50001   0.74999   0.00000  Uiso   1.00
N1546  N     0.88264   0.49999   0.75001   0.00000  Uiso   1.00
O1547  O     0.70625   0.43989   0.75000   0.00000  Uiso   1.00
O1548  O     0.81327   0.53804   0.90289   0.00000  Uiso   1.00
O1549  O     0.86716   0.44506   0.80249   0.00000  Uiso   1.00
O1550  O     0.80095   0.55070   0.69278   0.00000  Uiso   1.00
O1551  O     0.76486   0.45091   0.80897   0.00000  Uiso   1.00
O1552  O     0.90020   0.55471   0.69735   0.00000  Uiso   1.00
O1553  O     0.96042   0.56011   0.75000   0.00000  Uiso   1.00
O1554  O     0.96039   0.43988   0.75000   0.00000  Uiso   1.00
O1555  O     0.70628   0.56012   0.75000   0.00000  Uiso   1.00
O1556  O     0.68519   0.50001   0.81492   0.00000  Uiso   1.00
O1557  O     0.98148   0.49999   0.68508   0.00000  Uiso   1.00
O1558  O     0.93933   0.50000   0.81492   0.00000  Uiso   1.00
O1559  O     0.72733   0.50000   0.68508   0.00000  Uiso   1.00
O1560  O     0.83353   0.57121   0.58145   0.00000  Uiso   1.00
C1561  C     0.00003   0.75410   0.75021   0.00000  Uiso   1.00
C1562  C     0.01687   0.68860   0.70864   0.00000  Uiso   1.00
C1563  C     0.33208   0.95693   0.74951   0.00000  Uiso   1.00
C1564  C     0.00011   0.70920   0.75014   0.00000  Uiso   1.00
C1565  C     0.18327   0.80653   0.77721   0.00000  Uiso   1.00
C1566  C     0.15043   0.85929   0.72181   0.00000  Uiso   1.00
C1567  C     0.13266   0.80788   0.77868   0.00000  Uiso   1.00
C1568  C     0.20027   0.86030   0.72299   0.00000  Uiso   1.00
C1569  C     0.30539   0.83460   0.83629   0.00000  Uiso   1.00
C1570  C     0.02805   0.83302   0.66350   0.00000  Uiso   1.00
C1571  C     0.28870   0.84444   0.88481   0.00000  Uiso   1.00
C1572  C    -0.00000   0.91239   0.74923   0.00000  Uiso   1.00
C1573  C     0.04412   0.83627   0.61344   0.00000  Uiso   1.00
C1574  C     0.30094   0.88521   0.94560   0.00000  Uiso   1.00
C1575  C     0.02134   0.84708   0.54448   0.00000  Uiso   1.00
C1576  C     0.31902   0.86812   0.90304   0.00000  Uiso   1.00
C1577  C     0.00826   0.84081   0.59092   0.00000  Uiso   1.00
C1578  C     0.23967   0.83714   0.91066   0.00000  Uiso   1.00
C1579  C     0.09436   0.83833   0.58790   0.00000  Uiso   1.00
C1580  C     0.21954   0.86101   0.94964   0.00000  Uiso   1.00
C1581  C     0.10614   0.85476   0.54325   0.00000  Uiso   1.00
C1582  C     0.25163   0.88097   0.96954   0.00000  Uiso   1.00
C1583  C     0.18534   0.88845   0.53895   0.00000  Uiso   1.00
C1584  C     0.07020   0.85359   0.52030   0.00000  Uiso   1.00
C1585  C     0.16891   0.86277   0.97182   0.00000  Uiso   1.00
C1586  C     0.15370   0.86795   0.51886   0.00000  Uiso   1.00
C1587  C     0.13333   0.81536   0.60400   0.00000  Uiso   1.00
C1588  C     0.16419   0.78557   0.56922   0.00000  Uiso   1.00
C1589  C     0.21357   0.79859   0.90205   0.00000  Uiso   1.00
C1590  C     0.20125   0.76861   0.94226   0.00000  Uiso   1.00
C1591  C     0.29080   0.71010   0.83448   0.00000  Uiso   1.00
C1592  C     0.32820   0.72522   0.85691   0.00000  Uiso   1.00
C1593  C     0.01257   0.95692   0.66448   0.00000  Uiso   1.00
C1594  C     0.13315   0.86273   0.94864   0.00000  Uiso   1.00
C1595  C     0.06363   0.94339   0.63773   0.00000  Uiso   1.00
C1596  C     0.30171   0.95239   0.83531   0.00000  Uiso   1.00
C1597  C     0.24775   0.94024   0.84863   0.00000  Uiso   1.00
C1598  C     0.04501   0.71198   0.66615   0.00000  Uiso   1.00
C1599  C     0.09923   0.71295   0.66312   0.00000  Uiso   1.00
C1600  C     0.23392   0.89612   0.51330   0.00000  Uiso   1.00
C1601  C     0.08377   0.85872   0.97342   0.00000  Uiso   1.00
C1602  C     0.31448   0.68718   0.79125   0.00000  Uiso   1.00
C1603  C     0.01117   0.97888   0.70809   0.00000  Uiso   1.00
C1604  C     0.31667   0.97719   0.79123   0.00000  Uiso   1.00
Cu1605 Cu    0.04689   0.83334   0.75000   0.00000  Uiso   1.00
Cu1606 Cu    0.28645   0.83333   0.75000   0.00000  Uiso   1.00
H1607  H     0.25827   0.91242   0.52809   0.00000  Uiso   1.00
H1608  H     0.15750   0.83674   0.61478   0.00000  Uiso   1.00
H1609  H     0.11615   0.79540   0.63333   0.00000  Uiso   1.00
H1610  H     0.19054   0.73841   0.93175   0.00000  Uiso   1.00
H1611  H     0.23339   0.76392   0.95494   0.00000  Uiso   1.00
H1612  H     0.17015   0.78009   0.96983   0.00000  Uiso   1.00
H1613  H     0.18045   0.80532   0.89195   0.00000  Uiso   1.00
H1614  H     0.23750   0.78161   0.87396   0.00000  Uiso   1.00
H1615  H     0.19325   0.91932   0.58960   0.00000  Uiso   1.00
H1616  H     0.11723   0.87072   0.89215   0.00000  Uiso   1.00
H1617  H     0.01807   0.69948   0.86258   0.00000  Uiso   1.00
H1618  H     0.05632   0.85809   0.95587   0.00000  Uiso   1.00
H1619  H     0.01827   0.74904   0.83557   0.00000  Uiso   1.00
H1620  H     0.30917   0.73904   0.88988   0.00000  Uiso   1.00
H1621  H     0.26998   0.73618   0.82653   0.00000  Uiso   1.00
H1622  H     0.26295   0.69146   0.85919   0.00000  Uiso   1.00
H1623  H     0.07931   0.92312   0.65881   0.00000  Uiso   1.00
H1624  H     0.06147   0.92598   0.60788   0.00000  Uiso   1.00
H1625  H     0.08807   0.97001   0.62541   0.00000  Uiso   1.00
H1626  H     0.32212   0.92931   0.67160   0.00000  Uiso   1.00
H1627  H     0.32955   0.97645   0.64304   0.00000  Uiso   1.00
H1628  H     0.24136   0.91585   0.82647   0.00000  Uiso   1.00
H1629  H     0.30315   0.83854   0.60907   0.00000  Uiso   1.00
H1630  H     0.23648   0.92827   0.88382   0.00000  Uiso   1.00
H1631  H     0.22428   0.96695   0.84646   0.00000  Uiso   1.00
H1632  H     0.32440   0.92435   0.83270   0.00000  Uiso   1.00
H1633  H     0.30921   0.96956   0.86316   0.00000  Uiso   1.00
H1634  H     0.12087   0.72066   0.62816   0.00000  Uiso   1.00
H1635  H     0.10633   0.73621   0.68624   0.00000  Uiso   1.00
H1636  H     0.11186   0.68257   0.67220   0.00000  Uiso   1.00
H1637  H     0.04081   0.69819   0.63514   0.00000  Uiso   1.00
H1638  H     0.03137   0.74387   0.66539   0.00000  Uiso   1.00
H1639  H     0.17953   0.75358   0.80774   0.00000  Uiso   1.00
H1640  H     0.02321   0.87422   0.88391   0.00000  Uiso   1.00
H1641  H     0.16231   0.89198   0.66690   0.00000  Uiso   1.00
H1642  H     0.10866   0.77986   0.83643   0.00000  Uiso   1.00
H1643  H     0.21629   0.91413   0.69527   0.00000  Uiso   1.00
H1644  H     0.32514   0.90280   0.95936   0.00000  Uiso   1.00
H1645  H     0.32642   0.84782   0.52765   0.00000  Uiso   1.00
H1646  H     0.18525   0.76508   0.58565   0.00000  Uiso   1.00
H1647  H     0.14038   0.76627   0.55516   0.00000  Uiso   1.00
H1648  H     0.19132   0.80193   0.54154   0.00000  Uiso   1.00
N1649  N     0.11736   0.83334   0.74999   0.00000  Uiso   1.00
N1650  N     0.21597   0.83332   0.75001   0.00000  Uiso   1.00
O1651  O     0.03958   0.77322   0.75000   0.00000  Uiso   1.00
O1652  O     0.14661   0.87138   0.90289   0.00000  Uiso   1.00
O1653  O     0.20050   0.77839   0.80249   0.00000  Uiso   1.00
O1654  O     0.13428   0.88403   0.69278   0.00000  Uiso   1.00
O1655  O     0.09819   0.78424   0.80897   0.00000  Uiso   1.00
O1656  O     0.23353   0.88804   0.69735   0.00000  Uiso   1.00
O1657  O     0.29375   0.89345   0.75000   0.00000  Uiso   1.00
O1658  O     0.29372   0.77321   0.75000   0.00000  Uiso   1.00
O1659  O     0.03961   0.89346   0.75000   0.00000  Uiso   1.00
O1660  O     0.01852   0.83334   0.81492   0.00000  Uiso   1.00
O1661  O     0.31481   0.83332   0.68508   0.00000  Uiso   1.00
O1662  O     0.27267   0.83333   0.81492   0.00000  Uiso   1.00
O1663  O     0.06067   0.83333   0.68508   0.00000  Uiso   1.00
O1664  O     0.16687   0.90455   0.58145   0.00000  Uiso   1.00
C1665  C     0.33336   0.75410   0.75021   0.00000  Uiso   1.00
C1666  C     0.35020   0.68860   0.70864   0.00000  Uiso   1.00
C1667  C     0.66541   0.95693   0.74951   0.00000  Uiso   1.00
C1668  C     0.33344   0.70920   0.75014   0.00000  Uiso   1.00
C1669  C     0.51660   0.80653   0.77721   0.00000  Uiso   1.00
C1670  C     0.48376   0.85929   0.72181   0.00000  Uiso   1.00
C1671  C     0.46600   0.80788   0.77868   0.00000  Uiso   1.00
C1672  C     0.53360   0.86030   0.72299   0.00000  Uiso   1.00
C1673  C     0.63872   0.83460   0.83629   0.00000  Uiso   1.00
C1674  C     0.36139   0.83302   0.66350   0.00000  Uiso   1.00
C1675  C     0.62204   0.84444   0.88481   0.00000  Uiso   1.00
C1676  C     0.33333   0.91239   0.74923   0.00000  Uiso   1.00
C1677  C     0.37745   0.83627   0.61344   0.00000  Uiso   1.00
C1678  C     0.63428   0.88521   0.94560   0.00000  Uiso   1.00
C1679  C     0.35467   0.84708   0.54448   0.00000  Uiso   1.00
C1680  C     0.65235   0.86812   0.90304   0.00000  Uiso   1.00
C1681  C     0.34159   0.84081   0.59092   0.00000  Uiso   1.00
C1682  C     0.57300   0.83714   0.91066   0.00000  Uiso   1.00
C1683  C     0.42769   0.83833   0.58790   0.00000  Uiso   1.00
C1684  C     0.55287   0.86101   0.94964   0.00000  Uiso   1.00
C1685  C     0.43947   0.85476   0.54325   0.00000  Uiso   1.00
C1686  C     0.58496   0.88097   0.96954   0.00000  Uiso   1.00
C1687  C     0.51867   0.88845   0.53895   0.00000  Uiso   1.00
C1688  C     0.40353   0.85359   0.52030   0.00000  Uiso   1.00
C1689  C     0.50224   0.86277   0.97182   0.00000  Uiso   1.00
C1690  C     0.48703   0.86795   0.51886   0.00000  Uiso   1.00
C1691  C     0.46666   0.81536   0.60400   0.00000  Uiso   1.00
C1692  C     0.49752   0.78557   0.56922   0.00000  Uiso   1.00
C1693  C     0.54690   0.79859   0.90205   0.00000  Uiso   1.00
C1694  C     0.53458   0.76861   0.94226   0.00000  Uiso   1.00
C1695  C     0.62413   0.71010   0.83448   0.00000  Uiso   1.00
C1696  C     0.66153   0.72522   0.85691   0.00000  Uiso   1.00
C1697  C     0.34590   0.95692   0.66448   0.00000  Uiso   1.00
C1698  C     0.46649   0.86273   0.94864   0.00000  Uiso   1.00
C1699  C     0.39697   0.94339   0.63773   0.00000  Uiso   1.00
C1700  C     0.63504   0.95239   0.83531   0.00000  Uiso   1.00
C1701  C     0.58108   0.94024   0.84863   0.00000  Uiso   1.00
C1702  C     0.37834   0.71198   0.66615   0.00000  Uiso   1.00
C1703  C     0.43256   0.71295   0.66312   0.00000  Uiso   1.00
C1704  C     0.56725   0.89612   0.51330   0.00000  Uiso   1.00
C1705  C     0.41710   0.85872   0.97342   0.00000  Uiso   1.00
C1706  C     0.64781   0.68718   0.79125   0.00000  Uiso   1.00
C1707  C     0.34450   0.97888   0.70809   0.00000  Uiso   1.00
C1708  C     0.65001   0.97719   0.79123   0.00000  Uiso   1.00
Cu1709 Cu    0.38022   0.83334   0.75000   0.00000  Uiso   1.00
Cu1710 Cu    0.61978   0.83333   0.75000   0.00000  Uiso   1.00
H1711  H     0.59161   0.91242   0.52809   0.00000  Uiso   1.00
H1712  H     0.49084   0.83674   0.61478   0.00000  Uiso   1.00
H1713  H     0.44948   0.79540   0.63333   0.00000  Uiso   1.00
H1714  H     0.52387   0.73841   0.93175   0.00000  Uiso   1.00
H1715  H     0.56672   0.76392   0.95494   0.00000  Uiso   1.00
H1716  H     0.50348   0.78009   0.96983   0.00000  Uiso   1.00
H1717  H     0.51378   0.80532   0.89195   0.00000  Uiso   1.00
H1718  H     0.57084   0.78161   0.87396   0.00000  Uiso   1.00
H1719  H     0.52658   0.91932   0.58960   0.00000  Uiso   1.00
H1720  H     0.45057   0.87072   0.89215   0.00000  Uiso   1.00
H1721  H     0.35140   0.69948   0.86258   0.00000  Uiso   1.00
H1722  H     0.38965   0.85809   0.95587   0.00000  Uiso   1.00
H1723  H     0.35160   0.74904   0.83557   0.00000  Uiso   1.00
H1724  H     0.64251   0.73904   0.88988   0.00000  Uiso   1.00
H1725  H     0.60332   0.73618   0.82653   0.00000  Uiso   1.00
H1726  H     0.59629   0.69146   0.85919   0.00000  Uiso   1.00
H1727  H     0.41264   0.92312   0.65881   0.00000  Uiso   1.00
H1728  H     0.39480   0.92598   0.60788   0.00000  Uiso   1.00
H1729  H     0.42140   0.97001   0.62541   0.00000  Uiso   1.00
H1730  H     0.65546   0.92931   0.67160   0.00000  Uiso   1.00
H1731  H     0.66289   0.97645   0.64304   0.00000  Uiso   1.00
H1732  H     0.57470   0.91585   0.82647   0.00000  Uiso   1.00
H1733  H     0.63648   0.83854   0.60907   0.00000  Uiso   1.00
H1734  H     0.56981   0.92827   0.88382   0.00000  Uiso   1.00
H1735  H     0.55761   0.96695   0.84646   0.00000  Uiso   1.00
H1736  H     0.65773   0.92435   0.83270   0.00000  Uiso   1.00
H1737  H     0.64254   0.96956   0.86316   0.00000  Uiso   1.00
H1738  H     0.45421   0.72066   0.62816   0.00000  Uiso   1.00
H1739  H     0.43966   0.73621   0.68624   0.00000  Uiso   1.00
H1740  H     0.44519   0.68257   0.67220   0.00000  Uiso   1.00
H1741  H     0.37414   0.69819   0.63514   0.00000  Uiso   1.00
H1742  H     0.36470   0.74387   0.66539   0.00000  Uiso   1.00
H1743  H     0.51286   0.75358   0.80774   0.00000  Uiso   1.00
H1744  H     0.35655   0.87422   0.88391   0.00000  Uiso   1.00
H1745  H     0.49564   0.89198   0.66690   0.00000  Uiso   1.00
H1746  H     0.44199   0.77986   0.83643   0.00000  Uiso   1.00
H1747  H     0.54963   0.91413   0.69527   0.00000  Uiso   1.00
H1748  H     0.65847   0.90280   0.95936   0.00000  Uiso   1.00
H1749  H     0.65975   0.84782   0.52765   0.00000  Uiso   1.00
H1750  H     0.51858   0.76508   0.58565   0.00000  Uiso   1.00
H1751  H     0.47371   0.76627   0.55516   0.00000  Uiso   1.00
H1752  H     0.52465   0.80193   0.54154   0.00000  Uiso   1.00
N1753  N     0.45069   0.83334   0.74999   0.00000  Uiso   1.00
N1754  N     0.54931   0.83332   0.75001   0.00000  Uiso   1.00
O1755  O     0.37291   0.77322   0.75000   0.00000  Uiso   1.00
O1756  O     0.47994   0.87138   0.90289   0.00000  Uiso   1.00
O1757  O     0.53383   0.77839   0.80249   0.00000  Uiso   1.00
O1758  O     0.46761   0.88403   0.69278   0.00000  Uiso   1.00
O1759  O     0.43152   0.78424   0.80897   0.00000  Uiso   1.00
O1760  O     0.56686   0.88804   0.69735   0.00000  Uiso   1.00
O1761  O     0.62709   0.89345   0.75000   0.00000  Uiso   1.00
O1762  O     0.62706   0.77321   0.75000   0.00000  Uiso   1.00
O1763  O     0.37294   0.89346   0.75000   0.00000  Uiso   1.00
O1764  O     0.35186   0.83334   0.81492   0.00000  Uiso   1.00
O1765  O     0.64814   0.83332   0.68508   0.00000  Uiso   1.00
O1766  O     0.60600   0.83333   0.81492   0.00000  Uiso   1.00
O1767  O     0.39400   0.83333   0.68508   0.00000  Uiso   1.00
O1768  O     0.50020   0.90455   0.58145   0.00000  Uiso   1.00
C1769  C     0.66669   0.75410   0.75021   0.00000  Uiso   1.00
C1770  C     0.68353   0.68860   0.70864   0.00000  Uiso   1.00
C1771  C     0.99874   0.95693   0.74951   0.00000  Uiso   1.00
C1772  C     0.66677   0.70920   0.75014   0.00000  Uiso   1.00
C1773  C     0.84993   0.80653   0.77721   0.00000  Uiso   1.00
C1774  C     0.81710   0.85929   0.72181   0.00000  Uiso   1.00
C1775  C     0.79933   0.80788   0.77868   0.00000  Uiso   1.00
C1776  C     0.86694   0.86030   0.72299   0.00000  Uiso   1.00
C1777  C     0.97205   0.83460   0.83629   0.00000  Uiso   1.00
C1778  C     0.69472   0.83302   0.66350   0.00000  Uiso   1.00
C1779  C     0.95537   0.84444   0.88481   0.00000  Uiso   1.00
C1780  C     0.66667   0.91239   0.74923   0.00000  Uiso   1.00
C1781  C     0.71078   0.83627   0.61344   0.00000  Uiso   1.00
C1782  C     0.96761   0.88521   0.94560   0.00000  Uiso   1.00
C1783  C     0.68800   0.84708   0.54448   0.00000  Uiso   1.00
C1784  C     0.98569   0.86812   0.90304   0.00000  Uiso   1.00
C1785  C     0.67493   0.84081   0.59092   0.00000  Uiso   1.00
C1786  C     0.90634   0.83714   0.91066   0.00000  Uiso   1.00
C1787  C     0.76102   0.83833   0.58790   0.00000  Uiso   1.00
C1788  C     0.88621   0.86101   0.94964   0.00000  Uiso   1.00
C1789  C     0.77281   0.85476   0.54325   0.00000  Uiso   1.00
C1790  C     0.91830   0.88097   0.96954   0.00000  Uiso   1.00
C1791  C     0.85201   0.88845   0.53895   0.00000  Uiso   1.00
C1792  C     0.73686   0.85359   0.52030   0.00000  Uiso   1.00
C1793  C     0.83557   0.86277   0.97182   0.00000  Uiso   1.00
C1794  C     0.82036   0.86795   0.51886   0.00000  Uiso   1.00
C1795  C     0.80000   0.81536   0.60400   0.00000  Uiso   1.00
C1796  C     0.83085   0.78557   0.56922   0.00000  Uiso   1.00
C1797  C     0.88024   0.79859   0.90205   0.00000  Uiso   1.00
C1798  C     0.86792   0.76861   0.94226   0.00000  Uiso   1.00
C1799  C     0.95746   0.71010   0.83448   0.00000  Uiso   1.00
C1800  C     0.99486   0.72522   0.85691   0.00000  Uiso   1.00
C1801  C     0.67923   0.95692   0.66448   0.00000  Uiso   1.00
C1802  C     0.79982   0.86273   0.94864   0.00000  Uiso   1.00
C1803  C     0.73030   0.94339   0.63773   0.00000  Uiso   1.00
C1804  C     0.96838   0.95239   0.83531   0.00000  Uiso   1.00
C1805  C     0.91442   0.94024   0.84863   0.00000  Uiso   1.00
C1806  C     0.71168   0.71198   0.66615   0.00000  Uiso   1.00
C1807  C     0.76590   0.71295   0.66312   0.00000  Uiso   1.00
C1808  C     0.90058   0.89612   0.51330   0.00000  Uiso   1.00
C1809  C     0.75043   0.85872   0.97342   0.00000  Uiso   1.00
C1810  C     0.98114   0.68718   0.79125   0.00000  Uiso   1.00
C1811  C     0.67784   0.97888   0.70809   0.00000  Uiso   1.00
C1812  C     0.98334   0.97719   0.79123   0.00000  Uiso   1.00
Cu1813 Cu    0.71355   0.83334   0.75000   0.00000  Uiso   1.00
Cu1814 Cu    0.95311   0.83333   0.75000   0.00000  Uiso   1.00
H1815  H     0.92494   0.91242   0.52809   0.00000  Uiso   1.00
H1816  H     0.82417   0.83674   0.61478   0.00000  Uiso   1.00
H1817  H     0.78281   0.79540   0.63333   0.00000  Uiso   1.00
H1818  H     0.85721   0.73841   0.93175   0.00000  Uiso   1.00
H1819  H     0.90005   0.76392   0.95494   0.00000  Uiso   1.00
H1820  H     0.83681   0.78009   0.96983   0.00000  Uiso   1.00
H1821  H     0.84712   0.80532   0.89195   0.00000  Uiso   1.00
H1822  H     0.90417   0.78161   0.87396   0.00000  Uiso   1.00
H1823  H     0.85991   0.91932   0.58960   0.00000  Uiso   1.00
H1824  H     0.78390   0.87072   0.89215   0.00000  Uiso   1.00
H1825  H     0.68473   0.69948   0.86258   0.00000  Uiso   1.00
H1826  H     0.72299   0.85809   0.95587   0.00000  Uiso   1.00
H1827  H     0.68493   0.74904   0.83557   0.00000  Uiso   1.00
H1828  H     0.97584   0.73904   0.88988   0.00000  Uiso   1.00
H1829  H     0.93665   0.73618   0.82653   0.00000  Uiso   1.00
H1830  H     0.92962   0.69146   0.85919   0.00000  Uiso   1.00
H1831  H     0.74598   0.92312   0.65881   0.00000  Uiso   1.00
H1832  H     0.72814   0.92598   0.60788   0.00000  Uiso   1.00
H1833  H     0.75473   0.97001   0.62541   0.00000  Uiso   1.00
H1834  H     0.98879   0.92931   0.67160   0.00000  Uiso   1.00
H1835  H     0.99622   0.97645   0.64304   0.00000  Uiso   1.00
H1836  H     0.90803   0.91585   0.82647   0.00000  Uiso   1.00
H1837  H     0.96982   0.83854   0.60907   0.00000  Uiso   1.00
H1838  H     0.90315   0.92827   0.88382   0.00000  Uiso   1.00
H1839  H     0.89094   0.96695   0.84646   0.00000  Uiso   1.00
H1840  H     0.99106   0.92435   0.83270   0.00000  Uiso   1.00
H1841  H     0.97588   0.96956   0.86316   0.00000  Uiso   1.00
H1842  H     0.78754   0.72066   0.62816   0.00000  Uiso   1.00
H1843  H     0.77299   0.73621   0.68624   0.00000  Uiso   1.00
H1844  H     0.77853   0.68257   0.67220   0.00000  Uiso   1.00
H1845  H     0.70748   0.69819   0.63514   0.00000  Uiso   1.00
H1846  H     0.69803   0.74387   0.66539   0.00000  Uiso   1.00
H1847  H     0.84619   0.75358   0.80774   0.00000  Uiso   1.00
H1848  H     0.68988   0.87422   0.88391   0.00000  Uiso   1.00
H1849  H     0.82898   0.89198   0.66690   0.00000  Uiso   1.00
H1850  H     0.77532   0.77986   0.83643   0.00000  Uiso   1.00
H1851  H     0.88296   0.91413   0.69527   0.00000  Uiso   1.00
H1852  H     0.99180   0.90280   0.95936   0.00000  Uiso   1.00
H1853  H     0.99309   0.84782   0.52765   0.00000  Uiso   1.00
H1854  H     0.85191   0.76508   0.58565   0.00000  Uiso   1.00
H1855  H     0.80705   0.76627   0.55516   0.00000  Uiso   1.00
H1856  H     0.85798   0.80193   0.54154   0.00000  Uiso   1.00
N1857  N     0.78403   0.83334   0.74999   0.00000  Uiso   1.00
N1858  N     0.88264   0.83332   0.75001   0.00000  Uiso   1.00
O1859  O     0.70625   0.77322   0.75000   0.00000  Uiso   1.00
O1860  O     0.81327   0.87138   0.90289   0.00000  Uiso   1.00
O1861  O     0.86716   0.77839   0.80249   0.00000  Uiso   1.00
O1862  O     0.80095   0.88403   0.69278   0.00000  Uiso   1.00
O1863  O     0.76486   0.78424   0.80897   0.00000  Uiso   1.00
O1864  O     0.90020   0.88804   0.69735   0.00000  Uiso   1.00
O1865  O     0.96042   0.89345   0.75000   0.00000  Uiso   1.00
O1866  O     0.96039   0.77321   0.75000   0.00000  Uiso   1.00
O1867  O     0.70628   0.89346   0.75000   0.00000  Uiso   1.00
O1868  O     0.68519   0.83334   0.81492   0.00000  Uiso   1.00
O1869  O     0.98148   0.83332   0.68508   0.00000  Uiso   1.00
O1870  O     0.93933   0.83333   0.81492   0.00000  Uiso   1.00
O1871  O     0.72733   0.83333   0.68508   0.00000  Uiso   1.00
O1872  O     0.83353   0.90455   0.58145   0.00000  Uiso   1.00
loop_
_geom_bond_atom_site_label_1
_geom_bond_atom_site_label_2
_geom_bond_distance
_geom_bond_site_symmetry_2
_ccdc_geom_bond_type
C1     O91     1.293   .     A
C1     C4      1.459   .     S
C1     O306    1.294   1_455 S
C2     C4      1.414   .     A
C2     C38     1.523   .     S
C2     C667    1.410   1_545 S
C3     C116    1.448   .     S
C3     C44     1.412   .     A
C3     C147    1.412   .     S
C4     C250    1.416   1_455 S
C5     N90     1.368   .     A
C5     C7      1.438   .     A
C5     O93     1.377   .     S
C6     O94     1.375   .     S
C6     C8      1.439   .     A
C6     N89     1.369   .     A
C7     N89     1.368   .     A
C7     O95     1.375   .     S
C8     O96     1.377   .     S
C8     N90     1.367   .     A
C9     O102    1.298   .     A
C9     C11     1.480   .     S
C9     O204    1.303   .     S
C10    C13     1.488   .     S
C10    O103    1.299   .     A
C10    O309    1.307   1_455 S
C11    C18     1.418   .     A
C11    C16     1.404   .     A
C12    C211    1.448   1_455 S
C12    O305    1.286   1_455 A
C12    O99     1.295   .     S
C13    C19     1.427   .     A
C13    C17     1.407   .     A
C14    H84     1.083   .     S
C14    C16     1.394   .     A
C14    C22     1.397   .     A
C15    C24     1.397   .     A
C15    C17     1.391   .     A
C15    H293    1.084   1_455 S
C16    H184    1.083   .     S
C17    H277    1.083   1_455 S
C18    C29     1.528   .     S
C18    C20     1.420   .     A
C19    C21     1.423   .     A
C19    C27     1.536   .     S
C20    C25     1.414   .     A
C20    C22     1.413   .     A
C21    C26     1.416   .     A
C21    C24     1.413   .     A
C22    C976    1.400   .     S
C23    C26     1.415   .     A
C23    C40     1.408   .     A
C23    O104    1.380   .     S
C24    C977    1.399   1_554 S
C25    C34     1.413   .     A
C25    C962    1.409   .     S
C26    C961    1.409   1_554 S
C27    H48     1.105   .     S
C27    C28     1.534   .     S
C27    H49     1.102   .     S
C28    H88     1.106   .     S
C28    H87     1.111   .     S
C28    H86     1.111   .     S
C29    H53     1.103   .     S
C29    C30     1.529   .     S
C29    H54     1.094   .     S
C30    H51     1.111   .     S
C30    H50     1.111   .     S
C30    H52     1.108   .     S
C31    C42     1.520   .     S
C31    H61     1.100   .     S
C31    H62     1.106   .     S
C31    C32     1.524   .     S
C32    H60     1.110   .     S
C32    H161    1.110   .     S
C32    H163    1.103   .     S
C33    C43     1.529   .     S
C33    C35     1.523   .     S
C33    H274    1.109   1_455 S
C33    H275    1.109   1_455 S
C34    C41     1.405   .     A
C34    O92     1.383   .     S
C35    H65     1.106   .     S
C35    H64     1.110   .     S
C35    H63     1.104   .     S
C36    C37     1.531   .     S
C36    C44     1.527   .     S
C36    H73     1.108   .     S
C36    H72     1.107   .     S
C37    H68     1.107   .     S
C37    H70     1.109   .     S
C37    H71     1.109   .     S
C38    C39     1.529   .     S
C38    H78     1.109   .     S
C38    H77     1.105   .     S
C39    H74     1.107   .     S
C39    H75     1.109   .     S
C39    H76     1.111   .     S
C40    H47     1.084   .     S
C40    C958    1.400   1_554 S
C41    H58     1.079   .     S
C41    C960    1.399   .     S
C42    C108    1.416   .     S
C42    C668    1.409   1_545 S
C43    C211    1.412   1_455 S
C43    C314    1.410   .     S
C44    C354    1.409   .     S
Cu45   O103    1.936   .     S
Cu45   O99     1.964   .     S
Cu45   N89     2.019   .     S
Cu45   O100    1.940   .     S
Cu45   O91     1.966   .     S
Cu45   Cu254   2.687   1_455 S
Cu46   O102    1.936   .     S
Cu46   O101    1.940   .     S
Cu46   O97     1.966   .     S
Cu46   N90     2.019   .     S
Cu46   O98     1.964   .     S
Cu46   Cu149   2.687   .     S
H55    O104    0.992   .     S
H56    O92     0.992   .     S
H57    C240    1.110   1_455 S
H59    C240    1.103   1_455 S
H66    C137    1.109   .     S
H67    C137    1.109   .     S
H69    C121    1.083   .     S
H79    O93     0.990   .     S
H80    C224    1.083   1_455 S
H81    O94     0.988   .     S
H82    O95     0.990   .     S
H83    O96     0.990   .     S
H85    C119    1.084   .     S
O97    C116    1.286   .     A
O98    C105    1.294   .     S
O100   C217    1.303   1_455 S
O101   C114    1.307   .     S
C105   O195    1.293   .     A
C105   C108    1.459   .     S
C106   C108    1.414   .     A
C106   C142    1.523   .     S
C106   C771    1.410   1_545 S
C107   C220    1.448   .     S
C107   C148    1.412   .     A
C107   C251    1.412   .     S
C109   N194    1.368   .     A
C109   C111    1.438   .     A
C109   O197    1.377   .     S
C110   O198    1.375   .     S
C110   C112    1.439   .     A
C110   N193    1.369   .     A
C111   N193    1.368   .     A
C111   O199    1.375   .     S
C112   O200    1.377   .     S
C112   N194    1.367   .     A
C113   O206    1.298   .     A
C113   C115    1.480   .     S
C113   O308    1.303   .     S
C114   C117    1.488   .     S
C114   O207    1.299   .     A
C115   C122    1.418   .     A
C115   C120    1.404   .     A
C116   O203    1.295   .     S
C117   C123    1.427   .     A
C117   C121    1.407   .     A
C118   H188    1.083   .     S
C118   C120    1.394   .     A
C118   C126    1.397   .     A
C119   C128    1.397   .     A
C119   C121    1.391   .     A
C120   H288    1.083   .     S
C122   C133    1.528   .     S
C122   C124    1.420   .     A
C123   C125    1.423   .     A
C123   C131    1.536   .     S
C124   C129    1.414   .     A
C124   C126    1.413   .     A
C125   C130    1.416   .     A
C125   C128    1.413   .     A
C126   C1080   1.400   .     S
C127   C130    1.415   .     A
C127   C144    1.408   .     A
C127   O208    1.380   .     S
C128   C1081   1.399   1_554 S
C129   C138    1.413   .     A
C129   C1066   1.409   .     S
C130   C1065   1.409   1_554 S
C131   H152    1.105   .     S
C131   C132    1.534   .     S
C131   H153    1.102   .     S
C132   H192    1.106   .     S
C132   H191    1.111   .     S
C132   H190    1.111   .     S
C133   H157    1.103   .     S
C133   C134    1.529   .     S
C133   H158    1.094   .     S
C134   H155    1.111   .     S
C134   H154    1.111   .     S
C134   H156    1.108   .     S
C135   C146    1.520   .     S
C135   H165    1.100   .     S
C135   H166    1.106   .     S
C135   C136    1.524   .     S
C136   H164    1.110   .     S
C136   H265    1.110   .     S
C136   H267    1.103   .     S
C137   C147    1.529   .     S
C137   C139    1.523   .     S
C138   C145    1.405   .     A
C138   O196    1.383   .     S
C139   H169    1.106   .     S
C139   H168    1.110   .     S
C139   H167    1.104   .     S
C140   C141    1.531   .     S
C140   C148    1.527   .     S
C140   H177    1.108   .     S
C140   H176    1.107   .     S
C141   H172    1.107   .     S
C141   H174    1.109   .     S
C141   H175    1.109   .     S
C142   C143    1.529   .     S
C142   H182    1.109   .     S
C142   H181    1.105   .     S
C143   H178    1.107   .     S
C143   H179    1.109   .     S
C143   H180    1.111   .     S
C144   H151    1.084   .     S
C144   C1062   1.400   1_554 S
C145   H162    1.079   .     S
C145   C1064   1.399   .     S
C146   C212    1.416   .     S
C146   C772    1.409   1_545 S
C147   C418    1.410   .     S
C148   C458    1.409   .     S
Cu149  O207    1.936   .     S
Cu149  O203    1.964   .     S
Cu149  N193    2.019   .     S
Cu149  O204    1.940   .     S
Cu149  O195    1.966   .     S
Cu150  O206    1.936   .     S
Cu150  O205    1.940   .     S
Cu150  O201    1.966   .     S
Cu150  N194    2.019   .     S
Cu150  O202    1.964   .     S
Cu150  Cu253   2.687   .     S
H159   O208    0.992   .     S
H160   O196    0.992   .     S
H170   C241    1.109   .     S
H171   C241    1.109   .     S
H173   C225    1.083   .     S
H183   O197    0.990   .     S
H185   O198    0.988   .     S
H186   O199    0.990   .     S
H187   O200    0.990   .     S
H189   C223    1.084   .     S
O201   C220    1.286   .     A
O202   C209    1.294   .     S
O205   C218    1.307   .     S
C209   O299    1.293   .     A
C209   C212    1.459   .     S
C210   C212    1.414   .     A
C210   C246    1.523   .     S
C210   C875    1.410   1_545 S
C211   C12     1.448   1_655 S
C211   C252    1.412   .     A
C211   C43     1.412   1_655 S
C213   N298    1.368   .     A
C213   C215    1.438   .     A
C213   O301    1.377   .     S
C214   O302    1.375   .     S
C214   C216    1.439   .     A
C214   N297    1.369   .     A
C215   N297    1.368   .     A
C215   O303    1.375   .     S
C216   O304    1.377   .     S
C216   N298    1.367   .     A
C217   O310    1.298   .     A
C217   C219    1.480   .     S
C217   O100    1.303   1_655 S
C218   C221    1.488   .     S
C218   O311    1.299   .     A
C219   C226    1.418   .     A
C219   C224    1.404   .     A
C220   O307    1.295   .     S
C221   C227    1.427   .     A
C221   C225    1.407   .     A
C222   H292    1.083   .     S
C222   C224    1.394   .     A
C222   C230    1.397   .     A
C223   C232    1.397   .     A
C223   C225    1.391   .     A
C224   H80     1.083   1_655 S
C226   C237    1.528   .     S
C226   C228    1.420   .     A
C227   C229    1.423   .     A
C227   C235    1.536   .     S
C228   C233    1.414   .     A
C228   C230    1.413   .     A
C229   C234    1.416   .     A
C229   C232    1.413   .     A
C230   C1184   1.400   .     S
C231   C234    1.415   .     A
C231   C248    1.408   .     A
C231   O312    1.380   .     S
C232   C1185   1.399   1_554 S
C233   C242    1.413   .     A
C233   C1170   1.409   .     S
C234   C1169   1.409   1_554 S
C235   H256    1.105   .     S
C235   C236    1.534   .     S
C235   H257    1.102   .     S
C236   H296    1.106   .     S
C236   H295    1.111   .     S
C236   H294    1.111   .     S
C237   H261    1.103   .     S
C237   C238    1.529   .     S
C237   H262    1.094   .     S
C238   H259    1.111   .     S
C238   H258    1.111   .     S
C238   H260    1.108   .     S
C239   C250    1.520   .     S
C239   H269    1.100   .     S
C239   H270    1.106   .     S
C239   C240    1.524   .     S
C240   H268    1.110   .     S
C240   H57     1.110   1_655 S
C240   H59     1.103   1_655 S
C241   C251    1.529   .     S
C241   C243    1.523   .     S
C242   C249    1.405   .     A
C242   O300    1.383   .     S
C243   H273    1.106   .     S
C243   H272    1.110   .     S
C243   H271    1.104   .     S
C244   C245    1.531   .     S
C244   C252    1.527   .     S
C244   H281    1.108   .     S
C244   H280    1.107   .     S
C245   H276    1.107   .     S
C245   H278    1.109   .     S
C245   H279    1.109   .     S
C246   C247    1.529   .     S
C246   H286    1.109   .     S
C246   H285    1.105   .     S
C247   H282    1.107   .     S
C247   H283    1.109   .     S
C247   H284    1.111   .     S
C248   H255    1.084   .     S
C248   C1166   1.400   1_554 S
C249   H266    1.079   .     S
C249   C1168   1.399   .     S
C250   C4      1.416   1_655 S
C250   C876    1.409   1_545 S
C251   C522    1.410   .     S
C252   C562    1.409   .     S
Cu253  O311    1.936   .     S
Cu253  O307    1.964   .     S
Cu253  N297    2.019   .     S
Cu253  O308    1.940   .     S
Cu253  O299    1.966   .     S
Cu254  O310    1.936   .     S
Cu254  O309    1.940   .     S
Cu254  O305    1.966   .     S
Cu254  N298    2.019   .     S
Cu254  O306    1.964   .     S
Cu254  Cu45    2.687   1_655 S
H263   O312    0.992   .     S
H264   O300    0.992   .     S
H274   C33     1.109   1_655 S
H275   C33     1.109   1_655 S
H277   C17     1.083   1_655 S
H287   O301    0.990   .     S
H289   O302    0.988   .     S
H290   O303    0.990   .     S
H291   O304    0.990   .     S
H293   C15     1.084   1_655 S
O305   C12     1.286   1_655 A
O306   C1      1.294   1_655 S
O309   C10     1.307   1_655 S
C313   O403    1.293   .     A
C313   C316    1.459   .     S
C313   O618    1.294   1_455 S
C314   C316    1.414   .     A
C314   C350    1.523   .     S
C315   C428    1.448   .     S
C315   C356    1.412   .     A
C315   C459    1.412   .     S
C316   C562    1.416   1_455 S
C317   N402    1.368   .     A
C317   C319    1.438   .     A
C317   O405    1.377   .     S
C318   O406    1.375   .     S
C318   C320    1.439   .     A
C318   N401    1.369   .     A
C319   N401    1.368   .     A
C319   O407    1.375   .     S
C320   O408    1.377   .     S
C320   N402    1.367   .     A
C321   O414    1.298   .     A
C321   C323    1.480   .     S
C321   O516    1.303   .     S
C322   C325    1.488   .     S
C322   O415    1.299   .     A
C322   O621    1.307   1_455 S
C323   C330    1.418   .     A
C323   C328    1.404   .     A
C324   C523    1.448   1_455 S
C324   O617    1.286   1_455 A
C324   O411    1.295   .     S
C325   C331    1.427   .     A
C325   C329    1.407   .     A
C326   H396    1.083   .     S
C326   C328    1.394   .     A
C326   C334    1.397   .     A
C327   C336    1.397   .     A
C327   C329    1.391   .     A
C327   H605    1.084   1_455 S
C328   H496    1.083   .     S
C329   H589    1.083   1_455 S
C330   C341    1.528   .     S
C330   C332    1.420   .     A
C331   C333    1.423   .     A
C331   C339    1.536   .     S
C332   C337    1.414   .     A
C332   C334    1.413   .     A
C333   C338    1.416   .     A
C333   C336    1.413   .     A
C334   C1288   1.400   .     S
C335   C338    1.415   .     A
C335   C352    1.408   .     A
C335   O416    1.380   .     S
C336   C1289   1.399   1_554 S
C337   C346    1.413   .     A
C337   C1274   1.409   .     S
C338   C1273   1.409   1_554 S
C339   H360    1.105   .     S
C339   C340    1.534   .     S
C339   H361    1.102   .     S
C340   H400    1.106   .     S
C340   H399    1.111   .     S
C340   H398    1.111   .     S
C341   H365    1.103   .     S
C341   C342    1.529   .     S
C341   H366    1.094   .     S
C342   H363    1.111   .     S
C342   H362    1.111   .     S
C342   H364    1.108   .     S
C343   C354    1.520   .     S
C343   H373    1.100   .     S
C343   H374    1.106   .     S
C343   C344    1.524   .     S
C344   H372    1.110   .     S
C344   H473    1.110   .     S
C344   H475    1.103   .     S
C345   C355    1.529   .     S
C345   C347    1.523   .     S
C345   H586    1.109   1_455 S
C345   H587    1.109   1_455 S
C346   C353    1.405   .     A
C346   O404    1.383   .     S
C347   H377    1.106   .     S
C347   H376    1.110   .     S
C347   H375    1.104   .     S
C348   C349    1.531   .     S
C348   C356    1.527   .     S
C348   H385    1.108   .     S
C348   H384    1.107   .     S
C349   H380    1.107   .     S
C349   H382    1.109   .     S
C349   H383    1.109   .     S
C350   C351    1.529   .     S
C350   H390    1.109   .     S
C350   H389    1.105   .     S
C351   H386    1.107   .     S
C351   H387    1.109   .     S
C351   H388    1.111   .     S
C352   H359    1.084   .     S
C352   C1270   1.400   1_554 S
C353   H370    1.079   .     S
C353   C1272   1.399   .     S
C354   C420    1.416   .     S
C355   C523    1.412   1_455 S
C355   C626    1.410   .     S
C356   C666    1.409   .     S
Cu357  O415    1.936   .     S
Cu357  O411    1.964   .     S
Cu357  N401    2.019   .     S
Cu357  O412    1.940   .     S
Cu357  O403    1.966   .     S
Cu357  Cu566   2.687   1_455 S
Cu358  O414    1.936   .     S
Cu358  O413    1.940   .     S
Cu358  O409    1.966   .     S
Cu358  N402    2.019   .     S
Cu358  O410    1.964   .     S
Cu358  Cu461   2.687   .     S
H367   O416    0.992   .     S
H368   O404    0.992   .     S
H369   C552    1.110   1_455 S
H371   C552    1.103   1_455 S
H378   C449    1.109   .     S
H379   C449    1.109   .     S
H381   C433    1.083   .     S
H391   O405    0.990   .     S
H392   C536    1.083   1_455 S
H393   O406    0.988   .     S
H394   O407    0.990   .     S
H395   O408    0.990   .     S
H397   C431    1.084   .     S
O409   C428    1.286   .     A
O410   C417    1.294   .     S
O412   C529    1.303   1_455 S
O413   C426    1.307   .     S
C417   O507    1.293   .     A
C417   C420    1.459   .     S
C418   C420    1.414   .     A
C418   C454    1.523   .     S
C419   C532    1.448   .     S
C419   C460    1.412   .     A
C419   C563    1.412   .     S
C421   N506    1.368   .     A
C421   C423    1.438   .     A
C421   O509    1.377   .     S
C422   O510    1.375   .     S
C422   C424    1.439   .     A
C422   N505    1.369   .     A
C423   N505    1.368   .     A
C423   O511    1.375   .     S
C424   O512    1.377   .     S
C424   N506    1.367   .     A
C425   O518    1.298   .     A
C425   C427    1.480   .     S
C425   O620    1.303   .     S
C426   C429    1.488   .     S
C426   O519    1.299   .     A
C427   C434    1.418   .     A
C427   C432    1.404   .     A
C428   O515    1.295   .     S
C429   C435    1.427   .     A
C429   C433    1.407   .     A
C430   H500    1.083   .     S
C430   C432    1.394   .     A
C430   C438    1.397   .     A
C431   C440    1.397   .     A
C431   C433    1.391   .     A
C432   H600    1.083   .     S
C434   C445    1.528   .     S
C434   C436    1.420   .     A
C435   C437    1.423   .     A
C435   C443    1.536   .     S
C436   C441    1.414   .     A
C436   C438    1.413   .     A
C437   C442    1.416   .     A
C437   C440    1.413   .     A
C438   C1392   1.400   .     S
C439   C442    1.415   .     A
C439   C456    1.408   .     A
C439   O520    1.380   .     S
C440   C1393   1.399   1_554 S
C441   C450    1.413   .     A
C441   C1378   1.409   .     S
C442   C1377   1.409   1_554 S
C443   H464    1.105   .     S
C443   C444    1.534   .     S
C443   H465    1.102   .     S
C444   H504    1.106   .     S
C444   H503    1.111   .     S
C444   H502    1.111   .     S
C445   H469    1.103   .     S
C445   C446    1.529   .     S
C445   H470    1.094   .     S
C446   H467    1.111   .     S
C446   H466    1.111   .     S
C446   H468    1.108   .     S
C447   C458    1.520   .     S
C447   H477    1.100   .     S
C447   H478    1.106   .     S
C447   C448    1.524   .     S
C448   H476    1.110   .     S
C448   H577    1.110   .     S
C448   H579    1.103   .     S
C449   C459    1.529   .     S
C449   C451    1.523   .     S
C450   C457    1.405   .     A
C450   O508    1.383   .     S
C451   H481    1.106   .     S
C451   H480    1.110   .     S
C451   H479    1.104   .     S
C452   C453    1.531   .     S
C452   C460    1.527   .     S
C452   H489    1.108   .     S
C452   H488    1.107   .     S
C453   H484    1.107   .     S
C453   H486    1.109   .     S
C453   H487    1.109   .     S
C454   C455    1.529   .     S
C454   H494    1.109   .     S
C454   H493    1.105   .     S
C455   H490    1.107   .     S
C455   H491    1.109   .     S
C455   H492    1.111   .     S
C456   H463    1.084   .     S
C456   C1374   1.400   1_554 S
C457   H474    1.079   .     S
C457   C1376   1.399   .     S
C458   C524    1.416   .     S
C459   C730    1.410   .     S
C460   C770    1.409   .     S
Cu461  O519    1.936   .     S
Cu461  O515    1.964   .     S
Cu461  N505    2.019   .     S
Cu461  O516    1.940   .     S
Cu461  O507    1.966   .     S
Cu462  O518    1.936   .     S
Cu462  O517    1.940   .     S
Cu462  O513    1.966   .     S
Cu462  N506    2.019   .     S
Cu462  O514    1.964   .     S
Cu462  Cu565   2.687   .     S
H471   O520    0.992   .     S
H472   O508    0.992   .     S
H482   C553    1.109   .     S
H483   C553    1.109   .     S
H485   C537    1.083   .     S
H495   O509    0.990   .     S
H497   O510    0.988   .     S
H498   O511    0.990   .     S
H499   O512    0.990   .     S
H501   C535    1.084   .     S
O513   C532    1.286   .     A
O514   C521    1.294   .     S
O517   C530    1.307   .     S
C521   O611    1.293   .     A
C521   C524    1.459   .     S
C522   C524    1.414   .     A
C522   C558    1.523   .     S
C523   C324    1.448   1_655 S
C523   C564    1.412   .     A
C523   C355    1.412   1_655 S
C525   N610    1.368   .     A
C525   C527    1.438   .     A
C525   O613    1.377   .     S
C526   O614    1.375   .     S
C526   C528    1.439   .     A
C526   N609    1.369   .     A
C527   N609    1.368   .     A
C527   O615    1.375   .     S
C528   O616    1.377   .     S
C528   N610    1.367   .     A
C529   O622    1.298   .     A
C529   C531    1.480   .     S
C529   O412    1.303   1_655 S
C530   C533    1.488   .     S
C530   O623    1.299   .     A
C531   C538    1.418   .     A
C531   C536    1.404   .     A
C532   O619    1.295   .     S
C533   C539    1.427   .     A
C533   C537    1.407   .     A
C534   H604    1.083   .     S
C534   C536    1.394   .     A
C534   C542    1.397   .     A
C535   C544    1.397   .     A
C535   C537    1.391   .     A
C536   H392    1.083   1_655 S
C538   C549    1.528   .     S
C538   C540    1.420   .     A
C539   C541    1.423   .     A
C539   C547    1.536   .     S
C540   C545    1.414   .     A
C540   C542    1.413   .     A
C541   C546    1.416   .     A
C541   C544    1.413   .     A
C542   C1496   1.400   .     S
C543   C546    1.415   .     A
C543   C560    1.408   .     A
C543   O624    1.380   .     S
C544   C1497   1.399   1_554 S
C545   C554    1.413   .     A
C545   C1482   1.409   .     S
C546   C1481   1.409   1_554 S
C547   H568    1.105   .     S
C547   C548    1.534   .     S
C547   H569    1.102   .     S
C548   H608    1.106   .     S
C548   H607    1.111   .     S
C548   H606    1.111   .     S
C549   H573    1.103   .     S
C549   C550    1.529   .     S
C549   H574    1.094   .     S
C550   H571    1.111   .     S
C550   H570    1.111   .     S
C550   H572    1.108   .     S
C551   C562    1.520   .     S
C551   H581    1.100   .     S
C551   H582    1.106   .     S
C551   C552    1.524   .     S
C552   H580    1.110   .     S
C552   H369    1.110   1_655 S
C552   H371    1.103   1_655 S
C553   C563    1.529   .     S
C553   C555    1.523   .     S
C554   C561    1.405   .     A
C554   O612    1.383   .     S
C555   H585    1.106   .     S
C555   H584    1.110   .     S
C555   H583    1.104   .     S
C556   C557    1.531   .     S
C556   C564    1.527   .     S
C556   H593    1.108   .     S
C556   H592    1.107   .     S
C557   H588    1.107   .     S
C557   H590    1.109   .     S
C557   H591    1.109   .     S
C558   C559    1.529   .     S
C558   H598    1.109   .     S
C558   H597    1.105   .     S
C559   H594    1.107   .     S
C559   H595    1.109   .     S
C559   H596    1.111   .     S
C560   H567    1.084   .     S
C560   C1478   1.400   1_554 S
C561   H578    1.079   .     S
C561   C1480   1.399   .     S
C562   C316    1.416   1_655 S
C563   C834    1.410   .     S
C564   C874    1.409   .     S
Cu565  O623    1.936   .     S
Cu565  O619    1.964   .     S
Cu565  N609    2.019   .     S
Cu565  O620    1.940   .     S
Cu565  O611    1.966   .     S
Cu566  O622    1.936   .     S
Cu566  O621    1.940   .     S
Cu566  O617    1.966   .     S
Cu566  N610    2.019   .     S
Cu566  O618    1.964   .     S
Cu566  Cu357   2.687   1_655 S
H575   O624    0.992   .     S
H576   O612    0.992   .     S
H586   C345    1.109   1_655 S
H587   C345    1.109   1_655 S
H589   C329    1.083   1_655 S
H599   O613    0.990   .     S
H601   O614    0.988   .     S
H602   O615    0.990   .     S
H603   O616    0.990   .     S
H605   C327    1.084   1_655 S
O617   C324    1.286   1_655 A
O618   C313    1.294   1_655 S
O621   C322    1.307   1_655 S
C625   O715    1.293   .     A
C625   C628    1.459   .     S
C625   O930    1.294   1_455 S
C626   C628    1.414   .     A
C626   C662    1.523   .     S
C627   C740    1.448   .     S
C627   C668    1.412   .     A
C627   C771    1.412   .     S
C628   C874    1.416   1_455 S
C629   N714    1.368   .     A
C629   C631    1.438   .     A
C629   O717    1.377   .     S
C630   O718    1.375   .     S
C630   C632    1.439   .     A
C630   N713    1.369   .     A
C631   N713    1.368   .     A
C631   O719    1.375   .     S
C632   O720    1.377   .     S
C632   N714    1.367   .     A
C633   O726    1.298   .     A
C633   C635    1.480   .     S
C633   O828    1.303   .     S
C634   C637    1.488   .     S
C634   O727    1.299   .     A
C634   O933    1.307   1_455 S
C635   C642    1.418   .     A
C635   C640    1.404   .     A
C636   C835    1.448   1_455 S
C636   O929    1.286   1_455 A
C636   O723    1.295   .     S
C637   C643    1.427   .     A
C637   C641    1.407   .     A
C638   H708    1.083   .     S
C638   C640    1.394   .     A
C638   C646    1.397   .     A
C639   C648    1.397   .     A
C639   C641    1.391   .     A
C639   H917    1.084   1_455 S
C640   H808    1.083   .     S
C641   H901    1.083   1_455 S
C642   C653    1.528   .     S
C642   C644    1.420   .     A
C643   C645    1.423   .     A
C643   C651    1.536   .     S
C644   C649    1.414   .     A
C644   C646    1.413   .     A
C645   C650    1.416   .     A
C645   C648    1.413   .     A
C646   C1600   1.400   .     S
C647   C650    1.415   .     A
C647   C664    1.408   .     A
C647   O728    1.380   .     S
C648   C1601   1.399   1_554 S
C649   C658    1.413   .     A
C649   C1586   1.409   .     S
C650   C1585   1.409   1_554 S
C651   H672    1.105   .     S
C651   C652    1.534   .     S
C651   H673    1.102   .     S
C652   H712    1.106   .     S
C652   H711    1.111   .     S
C652   H710    1.111   .     S
C653   H677    1.103   .     S
C653   C654    1.529   .     S
C653   H678    1.094   .     S
C654   H675    1.111   .     S
C654   H674    1.111   .     S
C654   H676    1.108   .     S
C655   C666    1.520   .     S
C655   H685    1.100   .     S
C655   H686    1.106   .     S
C655   C656    1.524   .     S
C656   H684    1.110   .     S
C656   H785    1.110   .     S
C656   H787    1.103   .     S
C657   C667    1.529   .     S
C657   C659    1.523   .     S
C657   H898    1.109   1_455 S
C657   H899    1.109   1_455 S
C658   C665    1.405   .     A
C658   O716    1.383   .     S
C659   H689    1.106   .     S
C659   H688    1.110   .     S
C659   H687    1.104   .     S
C660   C661    1.531   .     S
C660   C668    1.527   .     S
C660   H697    1.108   .     S
C660   H696    1.107   .     S
C661   H692    1.107   .     S
C661   H694    1.109   .     S
C661   H695    1.109   .     S
C662   C663    1.529   .     S
C662   H702    1.109   .     S
C662   H701    1.105   .     S
C663   H698    1.107   .     S
C663   H699    1.109   .     S
C663   H700    1.111   .     S
C664   H671    1.084   .     S
C664   C1582   1.400   1_554 S
C665   H682    1.079   .     S
C665   C1584   1.399   .     S
C666   C732    1.416   .     S
C667   C835    1.412   1_455 S
C667   C2      1.410   1_565 S
C668   C42     1.409   1_565 S
Cu669  O727    1.936   .     S
Cu669  O723    1.964   .     S
Cu669  N713    2.019   .     S
Cu669  O724    1.940   .     S
Cu669  O715    1.966   .     S
Cu669  Cu878   2.687   1_455 S
Cu670  O726    1.936   .     S
Cu670  O725    1.940   .     S
Cu670  O721    1.966   .     S
Cu670  N714    2.019   .     S
Cu670  O722    1.964   .     S
Cu670  Cu773   2.687   .     S
H679   O728    0.992   .     S
H680   O716    0.992   .     S
H681   C864    1.110   1_455 S
H683   C864    1.103   1_455 S
H690   C761    1.109   .     S
H691   C761    1.109   .     S
H693   C745    1.083   .     S
H703   O717    0.990   .     S
H704   C848    1.083   1_455 S
H705   O718    0.988   .     S
H706   O719    0.990   .     S
H707   O720    0.990   .     S
H709   C743    1.084   .     S
O721   C740    1.286   .     A
O722   C729    1.294   .     S
O724   C841    1.303   1_455 S
O725   C738    1.307   .     S
C729   O819    1.293   .     A
C729   C732    1.459   .     S
C730   C732    1.414   .     A
C730   C766    1.523   .     S
C731   C844    1.448   .     S
C731   C772    1.412   .     A
C731   C875    1.412   .     S
C733   N818    1.368   .     A
C733   C735    1.438   .     A
C733   O821    1.377   .     S
C734   O822    1.375   .     S
C734   C736    1.439   .     A
C734   N817    1.369   .     A
C735   N817    1.368   .     A
C735   O823    1.375   .     S
C736   O824    1.377   .     S
C736   N818    1.367   .     A
C737   O830    1.298   .     A
C737   C739    1.480   .     S
C737   O932    1.303   .     S
C738   C741    1.488   .     S
C738   O831    1.299   .     A
C739   C746    1.418   .     A
C739   C744    1.404   .     A
C740   O827    1.295   .     S
C741   C747    1.427   .     A
C741   C745    1.407   .     A
C742   H812    1.083   .     S
C742   C744    1.394   .     A
C742   C750    1.397   .     A
C743   C752    1.397   .     A
C743   C745    1.391   .     A
C744   H912    1.083   .     S
C746   C757    1.528   .     S
C746   C748    1.420   .     A
C747   C749    1.423   .     A
C747   C755    1.536   .     S
C748   C753    1.414   .     A
C748   C750    1.413   .     A
C749   C754    1.416   .     A
C749   C752    1.413   .     A
C750   C1704   1.400   .     S
C751   C754    1.415   .     A
C751   C768    1.408   .     A
C751   O832    1.380   .     S
C752   C1705   1.399   1_554 S
C753   C762    1.413   .     A
C753   C1690   1.409   .     S
C754   C1689   1.409   1_554 S
C755   H776    1.105   .     S
C755   C756    1.534   .     S
C755   H777    1.102   .     S
C756   H816    1.106   .     S
C756   H815    1.111   .     S
C756   H814    1.111   .     S
C757   H781    1.103   .     S
C757   C758    1.529   .     S
C757   H782    1.094   .     S
C758   H779    1.111   .     S
C758   H778    1.111   .     S
C758   H780    1.108   .     S
C759   C770    1.520   .     S
C759   H789    1.100   .     S
C759   H790    1.106   .     S
C759   C760    1.524   .     S
C760   H788    1.110   .     S
C760   H889    1.110   .     S
C760   H891    1.103   .     S
C761   C771    1.529   .     S
C761   C763    1.523   .     S
C762   C769    1.405   .     A
C762   O820    1.383   .     S
C763   H793    1.106   .     S
C763   H792    1.110   .     S
C763   H791    1.104   .     S
C764   C765    1.531   .     S
C764   C772    1.527   .     S
C764   H801    1.108   .     S
C764   H800    1.107   .     S
C765   H796    1.107   .     S
C765   H798    1.109   .     S
C765   H799    1.109   .     S
C766   C767    1.529   .     S
C766   H806    1.109   .     S
C766   H805    1.105   .     S
C767   H802    1.107   .     S
C767   H803    1.109   .     S
C767   H804    1.111   .     S
C768   H775    1.084   .     S
C768   C1686   1.400   1_554 S
C769   H786    1.079   .     S
C769   C1688   1.399   .     S
C770   C836    1.416   .     S
C771   C106    1.410   1_565 S
C772   C146    1.409   1_565 S
Cu773  O831    1.936   .     S
Cu773  O827    1.964   .     S
Cu773  N817    2.019   .     S
Cu773  O828    1.940   .     S
Cu773  O819    1.966   .     S
Cu774  O830    1.936   .     S
Cu774  O829    1.940   .     S
Cu774  O825    1.966   .     S
Cu774  N818    2.019   .     S
Cu774  O826    1.964   .     S
Cu774  Cu877   2.687   .     S
H783   O832    0.992   .     S
H784   O820    0.992   .     S
H794   C865    1.109   .     S
H795   C865    1.109   .     S
H797   C849    1.083   .     S
H807   O821    0.990   .     S
H809   O822    0.988   .     S
H810   O823    0.990   .     S
H811   O824    0.990   .     S
H813   C847    1.084   .     S
O825   C844    1.286   .     A
O826   C833    1.294   .     S
O829   C842    1.307   .     S
C833   O923    1.293   .     A
C833   C836    1.459   .     S
C834   C836    1.414   .     A
C834   C870    1.523   .     S
C835   C636    1.448   1_655 S
C835   C876    1.412   .     A
C835   C667    1.412   1_655 S
C837   N922    1.368   .     A
C837   C839    1.438   .     A
C837   O925    1.377   .     S
C838   O926    1.375   .     S
C838   C840    1.439   .     A
C838   N921    1.369   .     A
C839   N921    1.368   .     A
C839   O927    1.375   .     S
C840   O928    1.377   .     S
C840   N922    1.367   .     A
C841   O934    1.298   .     A
C841   C843    1.480   .     S
C841   O724    1.303   1_655 S
C842   C845    1.488   .     S
C842   O935    1.299   .     A
C843   C850    1.418   .     A
C843   C848    1.404   .     A
C844   O931    1.295   .     S
C845   C851    1.427   .     A
C845   C849    1.407   .     A
C846   H916    1.083   .     S
C846   C848    1.394   .     A
C846   C854    1.397   .     A
C847   C856    1.397   .     A
C847   C849    1.391   .     A
C848   H704    1.083   1_655 S
C850   C861    1.528   .     S
C850   C852    1.420   .     A
C851   C853    1.423   .     A
C851   C859    1.536   .     S
C852   C857    1.414   .     A
C852   C854    1.413   .     A
C853   C858    1.416   .     A
C853   C856    1.413   .     A
C854   C1808   1.400   .     S
C855   C858    1.415   .     A
C855   C872    1.408   .     A
C855   O936    1.380   .     S
C856   C1809   1.399   1_554 S
C857   C866    1.413   .     A
C857   C1794   1.409   .     S
C858   C1793   1.409   1_554 S
C859   H880    1.105   .     S
C859   C860    1.534   .     S
C859   H881    1.102   .     S
C860   H920    1.106   .     S
C860   H919    1.111   .     S
C860   H918    1.111   .     S
C861   H885    1.103   .     S
C861   C862    1.529   .     S
C861   H886    1.094   .     S
C862   H883    1.111   .     S
C862   H882    1.111   .     S
C862   H884    1.108   .     S
C863   C874    1.520   .     S
C863   H893    1.100   .     S
C863   H894    1.106   .     S
C863   C864    1.524   .     S
C864   H892    1.110   .     S
C864   H681    1.110   1_655 S
C864   H683    1.103   1_655 S
C865   C875    1.529   .     S
C865   C867    1.523   .     S
C866   C873    1.405   .     A
C866   O924    1.383   .     S
C867   H897    1.106   .     S
C867   H896    1.110   .     S
C867   H895    1.104   .     S
C868   C869    1.531   .     S
C868   C876    1.527   .     S
C868   H905    1.108   .     S
C868   H904    1.107   .     S
C869   H900    1.107   .     S
C869   H902    1.109   .     S
C869   H903    1.109   .     S
C870   C871    1.529   .     S
C870   H910    1.109   .     S
C870   H909    1.105   .     S
C871   H906    1.107   .     S
C871   H907    1.109   .     S
C871   H908    1.111   .     S
C872   H879    1.084   .     S
C872   C1790   1.400   1_554 S
C873   H890    1.079   .     S
C873   C1792   1.399   .     S
C874   C628    1.416   1_655 S
C875   C210    1.410   1_565 S
C876   C250    1.409   1_565 S
Cu877  O935    1.936   .     S
Cu877  O931    1.964   .     S
Cu877  N921    2.019   .     S
Cu877  O932    1.940   .     S
Cu877  O923    1.966   .     S
Cu878  O934    1.936   .     S
Cu878  O933    1.940   .     S
Cu878  O929    1.966   .     S
Cu878  N922    2.019   .     S
Cu878  O930    1.964   .     S
Cu878  Cu669   2.687   1_655 S
H887   O936    0.992   .     S
H888   O924    0.992   .     S
H898   C657    1.109   1_655 S
H899   C657    1.109   1_655 S
H901   C641    1.083   1_655 S
H911   O925    0.990   .     S
H913   O926    0.988   .     S
H914   O927    0.990   .     S
H915   O928    0.990   .     S
H917   C639    1.084   1_655 S
O929   C636    1.286   1_655 A
O930   C625    1.294   1_655 S
O933   C634    1.307   1_655 S
C937   O1027   1.293   .     A
C937   C940    1.459   .     S
C937   O1242   1.294   1_455 S
C938   C940    1.414   .     A
C938   C974    1.523   .     S
C938   C1603   1.410   1_545 S
C939   C1052   1.448   .     S
C939   C980    1.412   .     A
C939   C1083   1.412   .     S
C940   C1186   1.416   1_455 S
C941   N1026   1.368   .     A
C941   C943    1.438   .     A
C941   O1029   1.377   .     S
C942   O1030   1.375   .     S
C942   C944    1.439   .     A
C942   N1025   1.369   .     A
C943   N1025   1.368   .     A
C943   O1031   1.375   .     S
C944   O1032   1.377   .     S
C944   N1026   1.367   .     A
C945   O1038   1.298   .     A
C945   C947    1.480   .     S
C945   O1140   1.303   .     S
C946   C949    1.488   .     S
C946   O1039   1.299   .     A
C946   O1245   1.307   1_455 S
C947   C954    1.418   .     A
C947   C952    1.404   .     A
C948   C1147   1.448   1_455 S
C948   O1241   1.286   1_455 A
C948   O1035   1.295   .     S
C949   C955    1.427   .     A
C949   C953    1.407   .     A
C950   H1020   1.083   .     S
C950   C952    1.394   .     A
C950   C958    1.397   .     A
C951   C960    1.397   .     A
C951   C953    1.391   .     A
C951   H1229   1.084   1_455 S
C952   H1120   1.083   .     S
C953   H1213   1.083   1_455 S
C954   C965    1.528   .     S
C954   C956    1.420   .     A
C955   C957    1.423   .     A
C955   C963    1.536   .     S
C956   C961    1.414   .     A
C956   C958    1.413   .     A
C957   C962    1.416   .     A
C957   C960    1.413   .     A
C958   C40     1.400   1_556 S
C959   C962    1.415   .     A
C959   C976    1.408   .     A
C959   O1040   1.380   .     S
C961   C970    1.413   .     A
C961   C26     1.409   1_556 S
C963   H984    1.105   .     S
C963   C964    1.534   .     S
C963   H985    1.102   .     S
C964   H1024   1.106   .     S
C964   H1023   1.111   .     S
C964   H1022   1.111   .     S
C965   H989    1.103   .     S
C965   C966    1.529   .     S
C965   H990    1.094   .     S
C966   H987    1.111   .     S
C966   H986    1.111   .     S
C966   H988    1.108   .     S
C967   C978    1.520   .     S
C967   H997    1.100   .     S
C967   H998    1.106   .     S
C967   C968    1.524   .     S
C968   H996    1.110   .     S
C968   H1097   1.110   .     S
C968   H1099   1.103   .     S
C969   C979    1.529   .     S
C969   C971    1.523   .     S
C969   H1210   1.109   1_455 S
C969   H1211   1.109   1_455 S
C970   C977    1.405   .     A
C970   O1028   1.383   .     S
C971   H1001   1.106   .     S
C971   H1000   1.110   .     S
C971   H999    1.104   .     S
C972   C973    1.531   .     S
C972   C980    1.527   .     S
C972   H1009   1.108   .     S
C972   H1008   1.107   .     S
C973   H1004   1.107   .     S
C973   H1006   1.109   .     S
C973   H1007   1.109   .     S
C974   C975    1.529   .     S
C974   H1014   1.109   .     S
C974   H1013   1.105   .     S
C975   H1010   1.107   .     S
C975   H1011   1.109   .     S
C975   H1012   1.111   .     S
C976   H983    1.084   .     S
C977   H994    1.079   .     S
C977   C24     1.399   1_556 S
C978   C1044   1.416   .     S
C978   C1604   1.409   1_545 S
C979   C1147   1.412   1_455 S
C979   C1250   1.410   .     S
C980   C1290   1.409   .     S
Cu981  O1039   1.936   .     S
Cu981  O1035   1.964   .     S
Cu981  N1025   2.019   .     S
Cu981  O1036   1.940   .     S
Cu981  O1027   1.966   .     S
Cu981  Cu1190  2.687   1_455 S
Cu982  O1038   1.936   .     S
Cu982  O1037   1.940   .     S
Cu982  O1033   1.966   .     S
Cu982  N1026   2.019   .     S
Cu982  O1034   1.964   .     S
Cu982  Cu1085  2.687   .     S
H991   O1040   0.992   .     S
H992   O1028   0.992   .     S
H993   C1176   1.110   1_455 S
H995   C1176   1.103   1_455 S
H1002  C1073   1.109   .     S
H1003  C1073   1.109   .     S
H1005  C1057   1.083   .     S
H1015  O1029   0.990   .     S
H1016  C1160   1.083   1_455 S
H1017  O1030   0.988   .     S
H1018  O1031   0.990   .     S
H1019  O1032   0.990   .     S
H1021  C1055   1.084   .     S
O1033  C1052   1.286   .     A
O1034  C1041   1.294   .     S
O1036  C1153   1.303   1_455 S
O1037  C1050   1.307   .     S
C1041  O1131   1.293   .     A
C1041  C1044   1.459   .     S
C1042  C1044   1.414   .     A
C1042  C1078   1.523   .     S
C1042  C1707   1.410   1_545 S
C1043  C1156   1.448   .     S
C1043  C1084   1.412   .     A
C1043  C1187   1.412   .     S
C1045  N1130   1.368   .     A
C1045  C1047   1.438   .     A
C1045  O1133   1.377   .     S
C1046  O1134   1.375   .     S
C1046  C1048   1.439   .     A
C1046  N1129   1.369   .     A
C1047  N1129   1.368   .     A
C1047  O1135   1.375   .     S
C1048  O1136   1.377   .     S
C1048  N1130   1.367   .     A
C1049  O1142   1.298   .     A
C1049  C1051   1.480   .     S
C1049  O1244   1.303   .     S
C1050  C1053   1.488   .     S
C1050  O1143   1.299   .     A
C1051  C1058   1.418   .     A
C1051  C1056   1.404   .     A
C1052  O1139   1.295   .     S
C1053  C1059   1.427   .     A
C1053  C1057   1.407   .     A
C1054  H1124   1.083   .     S
C1054  C1056   1.394   .     A
C1054  C1062   1.397   .     A
C1055  C1064   1.397   .     A
C1055  C1057   1.391   .     A
C1056  H1224   1.083   .     S
C1058  C1069   1.528   .     S
C1058  C1060   1.420   .     A
C1059  C1061   1.423   .     A
C1059  C1067   1.536   .     S
C1060  C1065   1.414   .     A
C1060  C1062   1.413   .     A
C1061  C1066   1.416   .     A
C1061  C1064   1.413   .     A
C1062  C144    1.400   1_556 S
C1063  C1066   1.415   .     A
C1063  C1080   1.408   .     A
C1063  O1144   1.380   .     S
C1065  C1074   1.413   .     A
C1065  C130    1.409   1_556 S
C1067  H1088   1.105   .     S
C1067  C1068   1.534   .     S
C1067  H1089   1.102   .     S
C1068  H1128   1.106   .     S
C1068  H1127   1.111   .     S
C1068  H1126   1.111   .     S
C1069  H1093   1.103   .     S
C1069  C1070   1.529   .     S
C1069  H1094   1.094   .     S
C1070  H1091   1.111   .     S
C1070  H1090   1.111   .     S
C1070  H1092   1.108   .     S
C1071  C1082   1.520   .     S
C1071  H1101   1.100   .     S
C1071  H1102   1.106   .     S
C1071  C1072   1.524   .     S
C1072  H1100   1.110   .     S
C1072  H1201   1.110   .     S
C1072  H1203   1.103   .     S
C1073  C1083   1.529   .     S
C1073  C1075   1.523   .     S
C1074  C1081   1.405   .     A
C1074  O1132   1.383   .     S
C1075  H1105   1.106   .     S
C1075  H1104   1.110   .     S
C1075  H1103   1.104   .     S
C1076  C1077   1.531   .     S
C1076  C1084   1.527   .     S
C1076  H1113   1.108   .     S
C1076  H1112   1.107   .     S
C1077  H1108   1.107   .     S
C1077  H1110   1.109   .     S
C1077  H1111   1.109   .     S
C1078  C1079   1.529   .     S
C1078  H1118   1.109   .     S
C1078  H1117   1.105   .     S
C1079  H1114   1.107   .     S
C1079  H1115   1.109   .     S
C1079  H1116   1.111   .     S
C1080  H1087   1.084   .     S
C1081  H1098   1.079   .     S
C1081  C128    1.399   1_556 S
C1082  C1148   1.416   .     S
C1082  C1708   1.409   1_545 S
C1083  C1354   1.410   .     S
C1084  C1394   1.409   .     S
Cu1085 O1143   1.936   .     S
Cu1085 O1139   1.964   .     S
Cu1085 N1129   2.019   .     S
Cu1085 O1140   1.940   .     S
Cu1085 O1131   1.966   .     S
Cu1086 O1142   1.936   .     S
Cu1086 O1141   1.940   .     S
Cu1086 O1137   1.966   .     S
Cu1086 N1130   2.019   .     S
Cu1086 O1138   1.964   .     S
Cu1086 Cu1189  2.687   .     S
H1095  O1144   0.992   .     S
H1096  O1132   0.992   .     S
H1106  C1177   1.109   .     S
H1107  C1177   1.109   .     S
H1109  C1161   1.083   .     S
H1119  O1133   0.990   .     S
H1121  O1134   0.988   .     S
H1122  O1135   0.990   .     S
H1123  O1136   0.990   .     S
H1125  C1159   1.084   .     S
O1137  C1156   1.286   .     A
O1138  C1145   1.294   .     S
O1141  C1154   1.307   .     S
C1145  O1235   1.293   .     A
C1145  C1148   1.459   .     S
C1146  C1148   1.414   .     A
C1146  C1182   1.523   .     S
C1146  C1811   1.410   1_545 S
C1147  C948    1.448   1_655 S
C1147  C1188   1.412   .     A
C1147  C979    1.412   1_655 S
C1149  N1234   1.368   .     A
C1149  C1151   1.438   .     A
C1149  O1237   1.377   .     S
C1150  O1238   1.375   .     S
C1150  C1152   1.439   .     A
C1150  N1233   1.369   .     A
C1151  N1233   1.368   .     A
C1151  O1239   1.375   .     S
C1152  O1240   1.377   .     S
C1152  N1234   1.367   .     A
C1153  O1246   1.298   .     A
C1153  C1155   1.480   .     S
C1153  O1036   1.303   1_655 S
C1154  C1157   1.488   .     S
C1154  O1247   1.299   .     A
C1155  C1162   1.418   .     A
C1155  C1160   1.404   .     A
C1156  O1243   1.295   .     S
C1157  C1163   1.427   .     A
C1157  C1161   1.407   .     A
C1158  H1228   1.083   .     S
C1158  C1160   1.394   .     A
C1158  C1166   1.397   .     A
C1159  C1168   1.397   .     A
C1159  C1161   1.391   .     A
C1160  H1016   1.083   1_655 S
C1162  C1173   1.528   .     S
C1162  C1164   1.420   .     A
C1163  C1165   1.423   .     A
C1163  C1171   1.536   .     S
C1164  C1169   1.414   .     A
C1164  C1166   1.413   .     A
C1165  C1170   1.416   .     A
C1165  C1168   1.413   .     A
C1166  C248    1.400   1_556 S
C1167  C1170   1.415   .     A
C1167  C1184   1.408   .     A
C1167  O1248   1.380   .     S
C1169  C1178   1.413   .     A
C1169  C234    1.409   1_556 S
C1171  H1192   1.105   .     S
C1171  C1172   1.534   .     S
C1171  H1193   1.102   .     S
C1172  H1232   1.106   .     S
C1172  H1231   1.111   .     S
C1172  H1230   1.111   .     S
C1173  H1197   1.103   .     S
C1173  C1174   1.529   .     S
C1173  H1198   1.094   .     S
C1174  H1195   1.111   .     S
C1174  H1194   1.111   .     S
C1174  H1196   1.108   .     S
C1175  C1186   1.520   .     S
C1175  H1205   1.100   .     S
C1175  H1206   1.106   .     S
C1175  C1176   1.524   .     S
C1176  H1204   1.110   .     S
C1176  H993    1.110   1_655 S
C1176  H995    1.103   1_655 S
C1177  C1187   1.529   .     S
C1177  C1179   1.523   .     S
C1178  C1185   1.405   .     A
C1178  O1236   1.383   .     S
C1179  H1209   1.106   .     S
C1179  H1208   1.110   .     S
C1179  H1207   1.104   .     S
C1180  C1181   1.531   .     S
C1180  C1188   1.527   .     S
C1180  H1217   1.108   .     S
C1180  H1216   1.107   .     S
C1181  H1212   1.107   .     S
C1181  H1214   1.109   .     S
C1181  H1215   1.109   .     S
C1182  C1183   1.529   .     S
C1182  H1222   1.109   .     S
C1182  H1221   1.105   .     S
C1183  H1218   1.107   .     S
C1183  H1219   1.109   .     S
C1183  H1220   1.111   .     S
C1184  H1191   1.084   .     S
C1185  H1202   1.079   .     S
C1185  C232    1.399   1_556 S
C1186  C940    1.416   1_655 S
C1186  C1812   1.409   1_545 S
C1187  C1458   1.410   .     S
C1188  C1498   1.409   .     S
Cu1189 O1247   1.936   .     S
Cu1189 O1243   1.964   .     S
Cu1189 N1233   2.019   .     S
Cu1189 O1244   1.940   .     S
Cu1189 O1235   1.966   .     S
Cu1190 O1246   1.936   .     S
Cu1190 O1245   1.940   .     S
Cu1190 O1241   1.966   .     S
Cu1190 N1234   2.019   .     S
Cu1190 O1242   1.964   .     S
Cu1190 Cu981   2.687   1_655 S
H1199  O1248   0.992   .     S
H1200  O1236   0.992   .     S
H1210  C969    1.109   1_655 S
H1211  C969    1.109   1_655 S
H1213  C953    1.083   1_655 S
H1223  O1237   0.990   .     S
H1225  O1238   0.988   .     S
H1226  O1239   0.990   .     S
H1227  O1240   0.990   .     S
H1229  C951    1.084   1_655 S
O1241  C948    1.286   1_655 A
O1242  C937    1.294   1_655 S
O1245  C946    1.307   1_655 S
C1249  O1339   1.293   .     A
C1249  C1252   1.459   .     S
C1249  O1554   1.294   1_455 S
C1250  C1252   1.414   .     A
C1250  C1286   1.523   .     S
C1251  C1364   1.448   .     S
C1251  C1292   1.412   .     A
C1251  C1395   1.412   .     S
C1252  C1498   1.416   1_455 S
C1253  N1338   1.368   .     A
C1253  C1255   1.438   .     A
C1253  O1341   1.377   .     S
C1254  O1342   1.375   .     S
C1254  C1256   1.439   .     A
C1254  N1337   1.369   .     A
C1255  N1337   1.368   .     A
C1255  O1343   1.375   .     S
C1256  O1344   1.377   .     S
C1256  N1338   1.367   .     A
C1257  O1350   1.298   .     A
C1257  C1259   1.480   .     S
C1257  O1452   1.303   .     S
C1258  C1261   1.488   .     S
C1258  O1351   1.299   .     A
C1258  O1557   1.307   1_455 S
C1259  C1266   1.418   .     A
C1259  C1264   1.404   .     A
C1260  C1459   1.448   1_455 S
C1260  O1553   1.286   1_455 A
C1260  O1347   1.295   .     S
C1261  C1267   1.427   .     A
C1261  C1265   1.407   .     A
C1262  H1332   1.083   .     S
C1262  C1264   1.394   .     A
C1262  C1270   1.397   .     A
C1263  C1272   1.397   .     A
C1263  C1265   1.391   .     A
C1263  H1541   1.084   1_455 S
C1264  H1432   1.083   .     S
C1265  H1525   1.083   1_455 S
C1266  C1277   1.528   .     S
C1266  C1268   1.420   .     A
C1267  C1269   1.423   .     A
C1267  C1275   1.536   .     S
C1268  C1273   1.414   .     A
C1268  C1270   1.413   .     A
C1269  C1274   1.416   .     A
C1269  C1272   1.413   .     A
C1270  C352    1.400   1_556 S
C1271  C1274   1.415   .     A
C1271  C1288   1.408   .     A
C1271  O1352   1.380   .     S
C1273  C1282   1.413   .     A
C1273  C338    1.409   1_556 S
C1275  H1296   1.105   .     S
C1275  C1276   1.534   .     S
C1275  H1297   1.102   .     S
C1276  H1336   1.106   .     S
C1276  H1335   1.111   .     S
C1276  H1334   1.111   .     S
C1277  H1301   1.103   .     S
C1277  C1278   1.529   .     S
C1277  H1302   1.094   .     S
C1278  H1299   1.111   .     S
C1278  H1298   1.111   .     S
C1278  H1300   1.108   .     S
C1279  C1290   1.520   .     S
C1279  H1309   1.100   .     S
C1279  H1310   1.106   .     S
C1279  C1280   1.524   .     S
C1280  H1308   1.110   .     S
C1280  H1409   1.110   .     S
C1280  H1411   1.103   .     S
C1281  C1291   1.529   .     S
C1281  C1283   1.523   .     S
C1281  H1522   1.109   1_455 S
C1281  H1523   1.109   1_455 S
C1282  C1289   1.405   .     A
C1282  O1340   1.383   .     S
C1283  H1313   1.106   .     S
C1283  H1312   1.110   .     S
C1283  H1311   1.104   .     S
C1284  C1285   1.531   .     S
C1284  C1292   1.527   .     S
C1284  H1321   1.108   .     S
C1284  H1320   1.107   .     S
C1285  H1316   1.107   .     S
C1285  H1318   1.109   .     S
C1285  H1319   1.109   .     S
C1286  C1287   1.529   .     S
C1286  H1326   1.109   .     S
C1286  H1325   1.105   .     S
C1287  H1322   1.107   .     S
C1287  H1323   1.109   .     S
C1287  H1324   1.111   .     S
C1288  H1295   1.084   .     S
C1289  H1306   1.079   .     S
C1289  C336    1.399   1_556 S
C1290  C1356   1.416   .     S
C1291  C1459   1.412   1_455 S
C1291  C1562   1.410   .     S
C1292  C1602   1.409   .     S
Cu1293 O1351   1.936   .     S
Cu1293 O1347   1.964   .     S
Cu1293 N1337   2.019   .     S
Cu1293 O1348   1.940   .     S
Cu1293 O1339   1.966   .     S
Cu1293 Cu1502  2.687   1_455 S
Cu1294 O1350   1.936   .     S
Cu1294 O1349   1.940   .     S
Cu1294 O1345   1.966   .     S
Cu1294 N1338   2.019   .     S
Cu1294 O1346   1.964   .     S
Cu1294 Cu1397  2.687   .     S
H1303  O1352   0.992   .     S
H1304  O1340   0.992   .     S
H1305  C1488   1.110   1_455 S
H1307  C1488   1.103   1_455 S
H1314  C1385   1.109   .     S
H1315  C1385   1.109   .     S
H1317  C1369   1.083   .     S
H1327  O1341   0.990   .     S
H1328  C1472   1.083   1_455 S
H1329  O1342   0.988   .     S
H1330  O1343   0.990   .     S
H1331  O1344   0.990   .     S
H1333  C1367   1.084   .     S
O1345  C1364   1.286   .     A
O1346  C1353   1.294   .     S
O1348  C1465   1.303   1_455 S
O1349  C1362   1.307   .     S
C1353  O1443   1.293   .     A
C1353  C1356   1.459   .     S
C1354  C1356   1.414   .     A
C1354  C1390   1.523   .     S
C1355  C1468   1.448   .     S
C1355  C1396   1.412   .     A
C1355  C1499   1.412   .     S
C1357  N1442   1.368   .     A
C1357  C1359   1.438   .     A
C1357  O1445   1.377   .     S
C1358  O1446   1.375   .     S
C1358  C1360   1.439   .     A
C1358  N1441   1.369   .     A
C1359  N1441   1.368   .     A
C1359  O1447   1.375   .     S
C1360  O1448   1.377   .     S
C1360  N1442   1.367   .     A
C1361  O1454   1.298   .     A
C1361  C1363   1.480   .     S
C1361  O1556   1.303   .     S
C1362  C1365   1.488   .     S
C1362  O1455   1.299   .     A
C1363  C1370   1.418   .     A
C1363  C1368   1.404   .     A
C1364  O1451   1.295   .     S
C1365  C1371   1.427   .     A
C1365  C1369   1.407   .     A
C1366  H1436   1.083   .     S
C1366  C1368   1.394   .     A
C1366  C1374   1.397   .     A
C1367  C1376   1.397   .     A
C1367  C1369   1.391   .     A
C1368  H1536   1.083   .     S
C1370  C1381   1.528   .     S
C1370  C1372   1.420   .     A
C1371  C1373   1.423   .     A
C1371  C1379   1.536   .     S
C1372  C1377   1.414   .     A
C1372  C1374   1.413   .     A
C1373  C1378   1.416   .     A
C1373  C1376   1.413   .     A
C1374  C456    1.400   1_556 S
C1375  C1378   1.415   .     A
C1375  C1392   1.408   .     A
C1375  O1456   1.380   .     S
C1377  C1386   1.413   .     A
C1377  C442    1.409   1_556 S
C1379  H1400   1.105   .     S
C1379  C1380   1.534   .     S
C1379  H1401   1.102   .     S
C1380  H1440   1.106   .     S
C1380  H1439   1.111   .     S
C1380  H1438   1.111   .     S
C1381  H1405   1.103   .     S
C1381  C1382   1.529   .     S
C1381  H1406   1.094   .     S
C1382  H1403   1.111   .     S
C1382  H1402   1.111   .     S
C1382  H1404   1.108   .     S
C1383  C1394   1.520   .     S
C1383  H1413   1.100   .     S
C1383  H1414   1.106   .     S
C1383  C1384   1.524   .     S
C1384  H1412   1.110   .     S
C1384  H1513   1.110   .     S
C1384  H1515   1.103   .     S
C1385  C1395   1.529   .     S
C1385  C1387   1.523   .     S
C1386  C1393   1.405   .     A
C1386  O1444   1.383   .     S
C1387  H1417   1.106   .     S
C1387  H1416   1.110   .     S
C1387  H1415   1.104   .     S
C1388  C1389   1.531   .     S
C1388  C1396   1.527   .     S
C1388  H1425   1.108   .     S
C1388  H1424   1.107   .     S
C1389  H1420   1.107   .     S
C1389  H1422   1.109   .     S
C1389  H1423   1.109   .     S
C1390  C1391   1.529   .     S
C1390  H1430   1.109   .     S
C1390  H1429   1.105   .     S
C1391  H1426   1.107   .     S
C1391  H1427   1.109   .     S
C1391  H1428   1.111   .     S
C1392  H1399   1.084   .     S
C1393  H1410   1.079   .     S
C1393  C440    1.399   1_556 S
C1394  C1460   1.416   .     S
C1395  C1666   1.410   .     S
C1396  C1706   1.409   .     S
Cu1397 O1455   1.936   .     S
Cu1397 O1451   1.964   .     S
Cu1397 N1441   2.019   .     S
Cu1397 O1452   1.940   .     S
Cu1397 O1443   1.966   .     S
Cu1398 O1454   1.936   .     S
Cu1398 O1453   1.940   .     S
Cu1398 O1449   1.966   .     S
Cu1398 N1442   2.019   .     S
Cu1398 O1450   1.964   .     S
Cu1398 Cu1501  2.687   .     S
H1407  O1456   0.992   .     S
H1408  O1444   0.992   .     S
H1418  C1489   1.109   .     S
H1419  C1489   1.109   .     S
H1421  C1473   1.083   .     S
H1431  O1445   0.990   .     S
H1433  O1446   0.988   .     S
H1434  O1447   0.990   .     S
H1435  O1448   0.990   .     S
H1437  C1471   1.084   .     S
O1449  C1468   1.286   .     A
O1450  C1457   1.294   .     S
O1453  C1466   1.307   .     S
C1457  O1547   1.293   .     A
C1457  C1460   1.459   .     S
C1458  C1460   1.414   .     A
C1458  C1494   1.523   .     S
C1459  C1260   1.448   1_655 S
C1459  C1500   1.412   .     A
C1459  C1291   1.412   1_655 S
C1461  N1546   1.368   .     A
C1461  C1463   1.438   .     A
C1461  O1549   1.377   .     S
C1462  O1550   1.375   .     S
C1462  C1464   1.439   .     A
C1462  N1545   1.369   .     A
C1463  N1545   1.368   .     A
C1463  O1551   1.375   .     S
C1464  O1552   1.377   .     S
C1464  N1546   1.367   .     A
C1465  O1558   1.298   .     A
C1465  C1467   1.480   .     S
C1465  O1348   1.303   1_655 S
C1466  C1469   1.488   .     S
C1466  O1559   1.299   .     A
C1467  C1474   1.418   .     A
C1467  C1472   1.404   .     A
C1468  O1555   1.295   .     S
C1469  C1475   1.427   .     A
C1469  C1473   1.407   .     A
C1470  H1540   1.083   .     S
C1470  C1472   1.394   .     A
C1470  C1478   1.397   .     A
C1471  C1480   1.397   .     A
C1471  C1473   1.391   .     A
C1472  H1328   1.083   1_655 S
C1474  C1485   1.528   .     S
C1474  C1476   1.420   .     A
C1475  C1477   1.423   .     A
C1475  C1483   1.536   .     S
C1476  C1481   1.414   .     A
C1476  C1478   1.413   .     A
C1477  C1482   1.416   .     A
C1477  C1480   1.413   .     A
C1478  C560    1.400   1_556 S
C1479  C1482   1.415   .     A
C1479  C1496   1.408   .     A
C1479  O1560   1.380   .     S
C1481  C1490   1.413   .     A
C1481  C546    1.409   1_556 S
C1483  H1504   1.105   .     S
C1483  C1484   1.534   .     S
C1483  H1505   1.102   .     S
C1484  H1544   1.106   .     S
C1484  H1543   1.111   .     S
C1484  H1542   1.111   .     S
C1485  H1509   1.103   .     S
C1485  C1486   1.529   .     S
C1485  H1510   1.094   .     S
C1486  H1507   1.111   .     S
C1486  H1506   1.111   .     S
C1486  H1508   1.108   .     S
C1487  C1498   1.520   .     S
C1487  H1517   1.100   .     S
C1487  H1518   1.106   .     S
C1487  C1488   1.524   .     S
C1488  H1516   1.110   .     S
C1488  H1305   1.110   1_655 S
C1488  H1307   1.103   1_655 S
C1489  C1499   1.529   .     S
C1489  C1491   1.523   .     S
C1490  C1497   1.405   .     A
C1490  O1548   1.383   .     S
C1491  H1521   1.106   .     S
C1491  H1520   1.110   .     S
C1491  H1519   1.104   .     S
C1492  C1493   1.531   .     S
C1492  C1500   1.527   .     S
C1492  H1529   1.108   .     S
C1492  H1528   1.107   .     S
C1493  H1524   1.107   .     S
C1493  H1526   1.109   .     S
C1493  H1527   1.109   .     S
C1494  C1495   1.529   .     S
C1494  H1534   1.109   .     S
C1494  H1533   1.105   .     S
C1495  H1530   1.107   .     S
C1495  H1531   1.109   .     S
C1495  H1532   1.111   .     S
C1496  H1503   1.084   .     S
C1497  H1514   1.079   .     S
C1497  C544    1.399   1_556 S
C1498  C1252   1.416   1_655 S
C1499  C1770   1.410   .     S
C1500  C1810   1.409   .     S
Cu1501 O1559   1.936   .     S
Cu1501 O1555   1.964   .     S
Cu1501 N1545   2.019   .     S
Cu1501 O1556   1.940   .     S
Cu1501 O1547   1.966   .     S
Cu1502 O1558   1.936   .     S
Cu1502 O1557   1.940   .     S
Cu1502 O1553   1.966   .     S
Cu1502 N1546   2.019   .     S
Cu1502 O1554   1.964   .     S
Cu1502 Cu1293  2.687   1_655 S
H1511  O1560   0.992   .     S
H1512  O1548   0.992   .     S
H1522  C1281   1.109   1_655 S
H1523  C1281   1.109   1_655 S
H1525  C1265   1.083   1_655 S
H1535  O1549   0.990   .     S
H1537  O1550   0.988   .     S
H1538  O1551   0.990   .     S
H1539  O1552   0.990   .     S
H1541  C1263   1.084   1_655 S
O1553  C1260   1.286   1_655 A
O1554  C1249   1.294   1_655 S
O1557  C1258   1.307   1_655 S
C1561  O1651   1.293   .     A
C1561  C1564   1.459   .     S
C1561  O1866   1.294   1_455 S
C1562  C1564   1.414   .     A
C1562  C1598   1.523   .     S
C1563  C1676   1.448   .     S
C1563  C1604   1.412   .     A
C1563  C1707   1.412   .     S
C1564  C1810   1.416   1_455 S
C1565  N1650   1.368   .     A
C1565  C1567   1.438   .     A
C1565  O1653   1.377   .     S
C1566  O1654   1.375   .     S
C1566  C1568   1.439   .     A
C1566  N1649   1.369   .     A
C1567  N1649   1.368   .     A
C1567  O1655   1.375   .     S
C1568  O1656   1.377   .     S
C1568  N1650   1.367   .     A
C1569  O1662   1.298   .     A
C1569  C1571   1.480   .     S
C1569  O1764   1.303   .     S
C1570  C1573   1.488   .     S
C1570  O1663   1.299   .     A
C1570  O1869   1.307   1_455 S
C1571  C1578   1.418   .     A
C1571  C1576   1.404   .     A
C1572  C1771   1.448   1_455 S
C1572  O1865   1.286   1_455 A
C1572  O1659   1.295   .     S
C1573  C1579   1.427   .     A
C1573  C1577   1.407   .     A
C1574  H1644   1.083   .     S
C1574  C1576   1.394   .     A
C1574  C1582   1.397   .     A
C1575  C1584   1.397   .     A
C1575  C1577   1.391   .     A
C1575  H1853   1.084   1_455 S
C1576  H1744   1.083   .     S
C1577  H1837   1.083   1_455 S
C1578  C1589   1.528   .     S
C1578  C1580   1.420   .     A
C1579  C1581   1.423   .     A
C1579  C1587   1.536   .     S
C1580  C1585   1.414   .     A
C1580  C1582   1.413   .     A
C1581  C1586   1.416   .     A
C1581  C1584   1.413   .     A
C1582  C664    1.400   1_556 S
C1583  C1586   1.415   .     A
C1583  C1600   1.408   .     A
C1583  O1664   1.380   .     S
C1585  C1594   1.413   .     A
C1585  C650    1.409   1_556 S
C1587  H1608   1.105   .     S
C1587  C1588   1.534   .     S
C1587  H1609   1.102   .     S
C1588  H1648   1.106   .     S
C1588  H1647   1.111   .     S
C1588  H1646   1.111   .     S
C1589  H1613   1.103   .     S
C1589  C1590   1.529   .     S
C1589  H1614   1.094   .     S
C1590  H1611   1.111   .     S
C1590  H1610   1.111   .     S
C1590  H1612   1.108   .     S
C1591  C1602   1.520   .     S
C1591  H1621   1.100   .     S
C1591  H1622   1.106   .     S
C1591  C1592   1.524   .     S
C1592  H1620   1.110   .     S
C1592  H1721   1.110   .     S
C1592  H1723   1.103   .     S
C1593  C1603   1.529   .     S
C1593  C1595   1.523   .     S
C1593  H1834   1.109   1_455 S
C1593  H1835   1.109   1_455 S
C1594  C1601   1.405   .     A
C1594  O1652   1.383   .     S
C1595  H1625   1.106   .     S
C1595  H1624   1.110   .     S
C1595  H1623   1.104   .     S
C1596  C1597   1.531   .     S
C1596  C1604   1.527   .     S
C1596  H1633   1.108   .     S
C1596  H1632   1.107   .     S
C1597  H1628   1.107   .     S
C1597  H1630   1.109   .     S
C1597  H1631   1.109   .     S
C1598  C1599   1.529   .     S
C1598  H1638   1.109   .     S
C1598  H1637   1.105   .     S
C1599  H1634   1.107   .     S
C1599  H1635   1.109   .     S
C1599  H1636   1.111   .     S
C1600  H1607   1.084   .     S
C1601  H1618   1.079   .     S
C1601  C648    1.399   1_556 S
C1602  C1668   1.416   .     S
C1603  C1771   1.412   1_455 S
C1603  C938    1.410   1_565 S
C1604  C978    1.409   1_565 S
Cu1605 O1663   1.936   .     S
Cu1605 O1659   1.964   .     S
Cu1605 N1649   2.019   .     S
Cu1605 O1660   1.940   .     S
Cu1605 O1651   1.966   .     S
Cu1605 Cu1814  2.687   1_455 S
Cu1606 O1662   1.936   .     S
Cu1606 O1661   1.940   .     S
Cu1606 O1657   1.966   .     S
Cu1606 N1650   2.019   .     S
Cu1606 O1658   1.964   .     S
Cu1606 Cu1709  2.687   .     S
H1615  O1664   0.992   .     S
H1616  O1652   0.992   .     S
H1617  C1800   1.110   1_455 S
H1619  C1800   1.103   1_455 S
H1626  C1697   1.109   .     S
H1627  C1697   1.109   .     S
H1629  C1681   1.083   .     S
H1639  O1653   0.990   .     S
H1640  C1784   1.083   1_455 S
H1641  O1654   0.988   .     S
H1642  O1655   0.990   .     S
H1643  O1656   0.990   .     S
H1645  C1679   1.084   .     S
O1657  C1676   1.286   .     A
O1658  C1665   1.294   .     S
O1660  C1777   1.303   1_455 S
O1661  C1674   1.307   .     S
C1665  O1755   1.293   .     A
C1665  C1668   1.459   .     S
C1666  C1668   1.414   .     A
C1666  C1702   1.523   .     S
C1667  C1780   1.448   .     S
C1667  C1708   1.412   .     A
C1667  C1811   1.412   .     S
C1669  N1754   1.368   .     A
C1669  C1671   1.438   .     A
C1669  O1757   1.377   .     S
C1670  O1758   1.375   .     S
C1670  C1672   1.439   .     A
C1670  N1753   1.369   .     A
C1671  N1753   1.368   .     A
C1671  O1759   1.375   .     S
C1672  O1760   1.377   .     S
C1672  N1754   1.367   .     A
C1673  O1766   1.298   .     A
C1673  C1675   1.480   .     S
C1673  O1868   1.303   .     S
C1674  C1677   1.488   .     S
C1674  O1767   1.299   .     A
C1675  C1682   1.418   .     A
C1675  C1680   1.404   .     A
C1676  O1763   1.295   .     S
C1677  C1683   1.427   .     A
C1677  C1681   1.407   .     A
C1678  H1748   1.083   .     S
C1678  C1680   1.394   .     A
C1678  C1686   1.397   .     A
C1679  C1688   1.397   .     A
C1679  C1681   1.391   .     A
C1680  H1848   1.083   .     S
C1682  C1693   1.528   .     S
C1682  C1684   1.420   .     A
C1683  C1685   1.423   .     A
C1683  C1691   1.536   .     S
C1684  C1689   1.414   .     A
C1684  C1686   1.413   .     A
C1685  C1690   1.416   .     A
C1685  C1688   1.413   .     A
C1686  C768    1.400   1_556 S
C1687  C1690   1.415   .     A
C1687  C1704   1.408   .     A
C1687  O1768   1.380   .     S
C1689  C1698   1.413   .     A
C1689  C754    1.409   1_556 S
C1691  H1712   1.105   .     S
C1691  C1692   1.534   .     S
C1691  H1713   1.102   .     S
C1692  H1752   1.106   .     S
C1692  H1751   1.111   .     S
C1692  H1750   1.111   .     S
C1693  H1717   1.103   .     S
C1693  C1694   1.529   .     S
C1693  H1718   1.094   .     S
C1694  H1715   1.111   .     S
C1694  H1714   1.111   .     S
C1694  H1716   1.108   .     S
C1695  C1706   1.520   .     S
C1695  H1725   1.100   .     S
C1695  H1726   1.106   .     S
C1695  C1696   1.524   .     S
C1696  H1724   1.110   .     S
C1696  H1825   1.110   .     S
C1696  H1827   1.103   .     S
C1697  C1707   1.529   .     S
C1697  C1699   1.523   .     S
C1698  C1705   1.405   .     A
C1698  O1756   1.383   .     S
C1699  H1729   1.106   .     S
C1699  H1728   1.110   .     S
C1699  H1727   1.104   .     S
C1700  C1701   1.531   .     S
C1700  C1708   1.527   .     S
C1700  H1737   1.108   .     S
C1700  H1736   1.107   .     S
C1701  H1732   1.107   .     S
C1701  H1734   1.109   .     S
C1701  H1735   1.109   .     S
C1702  C1703   1.529   .     S
C1702  H1742   1.109   .     S
C1702  H1741   1.105   .     S
C1703  H1738   1.107   .     S
C1703  H1739   1.109   .     S
C1703  H1740   1.111   .     S
C1704  H1711   1.084   .     S
C1705  H1722   1.079   .     S
C1705  C752    1.399   1_556 S
C1706  C1772   1.416   .     S
C1707  C1042   1.410   1_565 S
C1708  C1082   1.409   1_565 S
Cu1709 O1767   1.936   .     S
Cu1709 O1763   1.964   .     S
Cu1709 N1753   2.019   .     S
Cu1709 O1764   1.940   .     S
Cu1709 O1755   1.966   .     S
Cu1710 O1766   1.936   .     S
Cu1710 O1765   1.940   .     S
Cu1710 O1761   1.966   .     S
Cu1710 N1754   2.019   .     S
Cu1710 O1762   1.964   .     S
Cu1710 Cu1813  2.687   .     S
H1719  O1768   0.992   .     S
H1720  O1756   0.992   .     S
H1730  C1801   1.109   .     S
H1731  C1801   1.109   .     S
H1733  C1785   1.083   .     S
H1743  O1757   0.990   .     S
H1745  O1758   0.988   .     S
H1746  O1759   0.990   .     S
H1747  O1760   0.990   .     S
H1749  C1783   1.084   .     S
O1761  C1780   1.286   .     A
O1762  C1769   1.294   .     S
O1765  C1778   1.307   .     S
C1769  O1859   1.293   .     A
C1769  C1772   1.459   .     S
C1770  C1772   1.414   .     A
C1770  C1806   1.523   .     S
C1771  C1572   1.448   1_655 S
C1771  C1812   1.412   .     A
C1771  C1603   1.412   1_655 S
C1773  N1858   1.368   .     A
C1773  C1775   1.438   .     A
C1773  O1861   1.377   .     S
C1774  O1862   1.375   .     S
C1774  C1776   1.439   .     A
C1774  N1857   1.369   .     A
C1775  N1857   1.368   .     A
C1775  O1863   1.375   .     S
C1776  O1864   1.377   .     S
C1776  N1858   1.367   .     A
C1777  O1870   1.298   .     A
C1777  C1779   1.480   .     S
C1777  O1660   1.303   1_655 S
C1778  C1781   1.488   .     S
C1778  O1871   1.299   .     A
C1779  C1786   1.418   .     A
C1779  C1784   1.404   .     A
C1780  O1867   1.295   .     S
C1781  C1787   1.427   .     A
C1781  C1785   1.407   .     A
C1782  H1852   1.083   .     S
C1782  C1784   1.394   .     A
C1782  C1790   1.397   .     A
C1783  C1792   1.397   .     A
C1783  C1785   1.391   .     A
C1784  H1640   1.083   1_655 S
C1786  C1797   1.528   .     S
C1786  C1788   1.420   .     A
C1787  C1789   1.423   .     A
C1787  C1795   1.536   .     S
C1788  C1793   1.414   .     A
C1788  C1790   1.413   .     A
C1789  C1794   1.416   .     A
C1789  C1792   1.413   .     A
C1790  C872    1.400   1_556 S
C1791  C1794   1.415   .     A
C1791  C1808   1.408   .     A
C1791  O1872   1.380   .     S
C1793  C1802   1.413   .     A
C1793  C858    1.409   1_556 S
C1795  H1816   1.105   .     S
C1795  C1796   1.534   .     S
C1795  H1817   1.102   .     S
C1796  H1856   1.106   .     S
C1796  H1855   1.111   .     S
C1796  H1854   1.111   .     S
C1797  H1821   1.103   .     S
C1797  C1798   1.529   .     S
C1797  H1822   1.094   .     S
C1798  H1819   1.111   .     S
C1798  H1818   1.111   .     S
C1798  H1820   1.108   .     S
C1799  C1810   1.520   .     S
C1799  H1829   1.100   .     S
C1799  H1830   1.106   .     S
C1799  C1800   1.524   .     S
C1800  H1828   1.110   .     S
C1800  H1617   1.110   1_655 S
C1800  H1619   1.103   1_655 S
C1801  C1811   1.529   .     S
C1801  C1803   1.523   .     S
C1802  C1809   1.405   .     A
C1802  O1860   1.383   .     S
C1803  H1833   1.106   .     S
C1803  H1832   1.110   .     S
C1803  H1831   1.104   .     S
C1804  C1805   1.531   .     S
C1804  C1812   1.527   .     S
C1804  H1841   1.108   .     S
C1804  H1840   1.107   .     S
C1805  H1836   1.107   .     S
C1805  H1838   1.109   .     S
C1805  H1839   1.109   .     S
C1806  C1807   1.529   .     S
C1806  H1846   1.109   .     S
C1806  H1845   1.105   .     S
C1807  H1842   1.107   .     S
C1807  H1843   1.109   .     S
C1807  H1844   1.111   .     S
C1808  H1815   1.084   .     S
C1809  H1826   1.079   .     S
C1809  C856    1.399   1_556 S
C1810  C1564   1.416   1_655 S
C1811  C1146   1.410   1_565 S
C1812  C1186   1.409   1_565 S
Cu1813 O1871   1.936   .     S
Cu1813 O1867   1.964   .     S
Cu1813 N1857   2.019   .     S
Cu1813 O1868   1.940   .     S
Cu1813 O1859   1.966   .     S
Cu1814 O1870   1.936   .     S
Cu1814 O1869   1.940   .     S
Cu1814 O1865   1.966   .     S
Cu1814 N1858   2.019   .     S
Cu1814 O1866   1.964   .     S
Cu1814 Cu1605  2.687   1_655 S
H1823  O1872   0.992   .     S
H1824  O1860   0.992   .     S
H1834  C1593   1.109   1_655 S
H1835  C1593   1.109   1_655 S
H1837  C1577   1.083   1_655 S
H1847  O1861   0.990   .     S
H1849  O1862   0.988   .     S
H1850  O1863   0.990   .     S
H1851  O1864   0.990   .     S
H1853  C1575   1.084   1_655 S
O1865  C1572   1.286   1_655 A
O1866  C1561   1.294   1_655 S
O1869  C1570   1.307   1_655 S
