data_str_m2_o10_o17_pcu_sym.143
_audit_creation_date              2020-01-03
_audit_creation_method            'Materials Studio'
_symmetry_space_group_name_H-M    'P1'
_symmetry_Int_Tables_number       1
_symmetry_cell_setting            triclinic
loop_
_symmetry_equiv_pos_as_xyz
  x,y,z
_cell_length_a                    30.0767
_cell_length_b                    26.2037
_cell_length_c                    22.4120
_cell_angle_alpha                 102.9262
_cell_angle_beta                  94.9050
_cell_angle_gamma                 93.2120
loop_
_atom_site_label
_atom_site_type_symbol
_atom_site_fract_x
_atom_site_fract_y
_atom_site_fract_z
_atom_site_U_iso_or_equiv
_atom_site_adp_type
_atom_site_occupancy
C1     C     0.24725   0.06668   0.15133   0.00000  Uiso   1.00
C2     C     0.25275   0.26665   0.18200   0.00000  Uiso   1.00
C3     C     0.01506   0.12549   0.05748   0.00000  Uiso   1.00
C4     C     0.48494   0.20772   0.27587   0.00000  Uiso   1.00
C5     C     0.24108   0.01069   0.14412   0.00000  Uiso   1.00
C6     C     0.25892   0.32264   0.18921   0.00000  Uiso   1.00
C7     C     0.16439   0.16624   0.16705   0.00000  Uiso   1.00
C8     C     0.33561   0.16709   0.16629   0.00000  Uiso   1.00
C9     C     0.41153   0.18872   0.22012   0.00000  Uiso   1.00
C10    C     0.08847   0.14455   0.11323   0.00000  Uiso   1.00
C11    C     0.38398   0.16797   0.16565   0.00000  Uiso   1.00
C12    C     0.11602   0.16534   0.16768   0.00000  Uiso   1.00
C13    C     0.40254   0.14765   0.11095   0.00000  Uiso   1.00
C14    C     0.09746   0.18567   0.22237   0.00000  Uiso   1.00
C15    C     0.44905   0.14795   0.10987   0.00000  Uiso   1.00
C16    C     0.05095   0.18533   0.22346   0.00000  Uiso   1.00
C17    C     0.47670   0.16740   0.16595   0.00000  Uiso   1.00
C18    C     0.02330   0.16587   0.16739   0.00000  Uiso   1.00
C19    C     0.45772   0.18829   0.22076   0.00000  Uiso   1.00
C20    C     0.04228   0.14497   0.11258   0.00000  Uiso   1.00
C21    C     0.46883   0.12784   0.05500   0.00000  Uiso   1.00
C22    C     0.03116   0.20539   0.27835   0.00000  Uiso   1.00
Cu23   Cu    0.25501   0.17246   0.22813   0.00000  Uiso   1.00
Cu24   Cu    0.24500   0.16087   0.10521   0.00000  Uiso   1.00
H25    H     0.02988   0.10970   0.01542   0.00000  Uiso   1.00
H26    H     0.47012   0.22347   0.31795   0.00000  Uiso   1.00
N27    N     0.23745   0.15214   0.01284   0.00000  Uiso   1.00
N28    N     0.26256   0.18119   0.32049   0.00000  Uiso   1.00
O29    O     0.25326   0.09538   0.20659   0.00000  Uiso   1.00
O30    O     0.24675   0.23796   0.12674   0.00000  Uiso   1.00
O31    O     0.24480   0.08559   0.10279   0.00000  Uiso   1.00
O32    O     0.25520   0.24774   0.23055   0.00000  Uiso   1.00
O33    O     0.18936   0.17155   0.21857   0.00000  Uiso   1.00
O34    O     0.31065   0.16179   0.11476   0.00000  Uiso   1.00
O35    O     0.18090   0.16176   0.11477   0.00000  Uiso   1.00
O36    O     0.31910   0.17157   0.21857   0.00000  Uiso   1.00
H37    H     0.39697   0.20482   0.26231   0.00000  Uiso   1.00
H38    H     0.10303   0.12842   0.07104   0.00000  Uiso   1.00
H39    H     0.38019   0.13029   0.07018   0.00000  Uiso   1.00
H40    H     0.11981   0.20307   0.26314   0.00000  Uiso   1.00
O41    O     0.44464   0.10997   0.33159   0.00000  Uiso   1.00
H42    H     0.41917   0.13193   0.32901   0.00000  Uiso   1.00
O43    O     0.05535   0.22319   0.00177   0.00000  Uiso   1.00
H44    H     0.08085   0.20126   0.00430   0.00000  Uiso   1.00
O45    O     0.21497   0.31348   0.09315   0.00000  Uiso   1.00
H46    H     0.20165   0.00303   0.06786   0.00000  Uiso   1.00
O47    O     0.28503   0.01986   0.24018   0.00000  Uiso   1.00
H48    H     0.29835   0.33030   0.26547   0.00000  Uiso   1.00
O49    O     0.20745   0.11779   0.30791   0.00000  Uiso   1.00
H50    H     0.19156   0.09943   0.00157   0.00000  Uiso   1.00
O51    O     0.29255   0.21555   0.02542   0.00000  Uiso   1.00
H52    H     0.30844   0.23390   0.33176   0.00000  Uiso   1.00
C53    C     0.74725   0.06668   0.15133   0.00000  Uiso   1.00
C54    C     0.75275   0.26665   0.18200   0.00000  Uiso   1.00
C55    C     0.51506   0.12549   0.05748   0.00000  Uiso   1.00
C56    C     0.98494   0.20772   0.27587   0.00000  Uiso   1.00
C57    C     0.74108   0.01069   0.14412   0.00000  Uiso   1.00
C58    C     0.75892   0.32264   0.18921   0.00000  Uiso   1.00
C59    C     0.66439   0.16624   0.16705   0.00000  Uiso   1.00
C60    C     0.83561   0.16709   0.16629   0.00000  Uiso   1.00
C61    C     0.91153   0.18872   0.22012   0.00000  Uiso   1.00
C62    C     0.58847   0.14455   0.11323   0.00000  Uiso   1.00
C63    C     0.88398   0.16797   0.16565   0.00000  Uiso   1.00
C64    C     0.61602   0.16534   0.16768   0.00000  Uiso   1.00
C65    C     0.90254   0.14765   0.11095   0.00000  Uiso   1.00
C66    C     0.59746   0.18567   0.22237   0.00000  Uiso   1.00
C67    C     0.94905   0.14795   0.10987   0.00000  Uiso   1.00
C68    C     0.55095   0.18533   0.22346   0.00000  Uiso   1.00
C69    C     0.97670   0.16740   0.16595   0.00000  Uiso   1.00
C70    C     0.52330   0.16587   0.16739   0.00000  Uiso   1.00
C71    C     0.95772   0.18829   0.22076   0.00000  Uiso   1.00
C72    C     0.54228   0.14497   0.11258   0.00000  Uiso   1.00
C73    C     0.96883   0.12784   0.05500   0.00000  Uiso   1.00
C74    C     0.53116   0.20539   0.27835   0.00000  Uiso   1.00
Cu75   Cu    0.75501   0.17246   0.22813   0.00000  Uiso   1.00
Cu76   Cu    0.74500   0.16087   0.10521   0.00000  Uiso   1.00
H77    H     0.52988   0.10970   0.01542   0.00000  Uiso   1.00
H78    H     0.97012   0.22347   0.31795   0.00000  Uiso   1.00
N79    N     0.73745   0.15214   0.01284   0.00000  Uiso   1.00
N80    N     0.76256   0.18119   0.32049   0.00000  Uiso   1.00
O81    O     0.75326   0.09538   0.20659   0.00000  Uiso   1.00
O82    O     0.74675   0.23796   0.12674   0.00000  Uiso   1.00
O83    O     0.74480   0.08559   0.10279   0.00000  Uiso   1.00
O84    O     0.75520   0.24774   0.23055   0.00000  Uiso   1.00
O85    O     0.68936   0.17155   0.21857   0.00000  Uiso   1.00
O86    O     0.81065   0.16179   0.11476   0.00000  Uiso   1.00
O87    O     0.68090   0.16176   0.11477   0.00000  Uiso   1.00
O88    O     0.81910   0.17157   0.21857   0.00000  Uiso   1.00
H89    H     0.89697   0.20482   0.26231   0.00000  Uiso   1.00
H90    H     0.60303   0.12842   0.07104   0.00000  Uiso   1.00
H91    H     0.88019   0.13029   0.07018   0.00000  Uiso   1.00
H92    H     0.61981   0.20307   0.26314   0.00000  Uiso   1.00
O93    O     0.94464   0.10997   0.33159   0.00000  Uiso   1.00
H94    H     0.91917   0.13193   0.32901   0.00000  Uiso   1.00
O95    O     0.55535   0.22319   0.00177   0.00000  Uiso   1.00
H96    H     0.58085   0.20126   0.00430   0.00000  Uiso   1.00
O97    O     0.71497   0.31348   0.09315   0.00000  Uiso   1.00
H98    H     0.70165   0.00303   0.06786   0.00000  Uiso   1.00
O99    O     0.78503   0.01986   0.24018   0.00000  Uiso   1.00
H100   H     0.79835   0.33030   0.26547   0.00000  Uiso   1.00
O101   O     0.70745   0.11779   0.30791   0.00000  Uiso   1.00
H102   H     0.69156   0.09943   0.00157   0.00000  Uiso   1.00
O103   O     0.79255   0.21555   0.02542   0.00000  Uiso   1.00
H104   H     0.80844   0.23390   0.33176   0.00000  Uiso   1.00
C105   C     0.24725   0.40002   0.15133   0.00000  Uiso   1.00
C106   C     0.25275   0.59998   0.18200   0.00000  Uiso   1.00
C107   C     0.01506   0.45882   0.05748   0.00000  Uiso   1.00
C108   C     0.48494   0.54106   0.27587   0.00000  Uiso   1.00
C109   C     0.24108   0.34403   0.14412   0.00000  Uiso   1.00
C110   C     0.25892   0.65597   0.18921   0.00000  Uiso   1.00
C111   C     0.16439   0.49958   0.16705   0.00000  Uiso   1.00
C112   C     0.33561   0.50042   0.16629   0.00000  Uiso   1.00
C113   C     0.41153   0.52205   0.22012   0.00000  Uiso   1.00
C114   C     0.08847   0.47788   0.11323   0.00000  Uiso   1.00
C115   C     0.38398   0.50131   0.16565   0.00000  Uiso   1.00
C116   C     0.11602   0.49867   0.16768   0.00000  Uiso   1.00
C117   C     0.40254   0.48099   0.11095   0.00000  Uiso   1.00
C118   C     0.09746   0.51900   0.22237   0.00000  Uiso   1.00
C119   C     0.44905   0.48128   0.10987   0.00000  Uiso   1.00
C120   C     0.05095   0.51866   0.22346   0.00000  Uiso   1.00
C121   C     0.47670   0.50073   0.16595   0.00000  Uiso   1.00
C122   C     0.02330   0.49921   0.16739   0.00000  Uiso   1.00
C123   C     0.45772   0.52162   0.22076   0.00000  Uiso   1.00
C124   C     0.04228   0.47830   0.11258   0.00000  Uiso   1.00
C125   C     0.46883   0.46117   0.05500   0.00000  Uiso   1.00
C126   C     0.03116   0.53872   0.27835   0.00000  Uiso   1.00
Cu127  Cu    0.25501   0.50579   0.22813   0.00000  Uiso   1.00
Cu128  Cu    0.24500   0.49421   0.10521   0.00000  Uiso   1.00
H129   H     0.02988   0.44304   0.01542   0.00000  Uiso   1.00
H130   H     0.47012   0.55680   0.31795   0.00000  Uiso   1.00
N131   N     0.23745   0.48547   0.01284   0.00000  Uiso   1.00
N132   N     0.26256   0.51453   0.32049   0.00000  Uiso   1.00
O133   O     0.25326   0.42871   0.20659   0.00000  Uiso   1.00
O134   O     0.24675   0.57129   0.12674   0.00000  Uiso   1.00
O135   O     0.24480   0.41892   0.10279   0.00000  Uiso   1.00
O136   O     0.25520   0.58108   0.23055   0.00000  Uiso   1.00
O137   O     0.18936   0.50488   0.21857   0.00000  Uiso   1.00
O138   O     0.31065   0.49512   0.11476   0.00000  Uiso   1.00
O139   O     0.18090   0.49510   0.11477   0.00000  Uiso   1.00
O140   O     0.31910   0.50490   0.21857   0.00000  Uiso   1.00
H141   H     0.39697   0.53815   0.26231   0.00000  Uiso   1.00
H142   H     0.10303   0.46175   0.07104   0.00000  Uiso   1.00
H143   H     0.38019   0.46362   0.07018   0.00000  Uiso   1.00
H144   H     0.11981   0.53640   0.26314   0.00000  Uiso   1.00
O145   O     0.44464   0.44331   0.33159   0.00000  Uiso   1.00
H146   H     0.41917   0.46526   0.32901   0.00000  Uiso   1.00
O147   O     0.05535   0.55652   0.00177   0.00000  Uiso   1.00
H148   H     0.08085   0.53460   0.00430   0.00000  Uiso   1.00
O149   O     0.21497   0.64681   0.09315   0.00000  Uiso   1.00
H150   H     0.20165   0.33636   0.06786   0.00000  Uiso   1.00
O151   O     0.28503   0.35319   0.24018   0.00000  Uiso   1.00
H152   H     0.29835   0.66364   0.26547   0.00000  Uiso   1.00
O153   O     0.20745   0.45112   0.30791   0.00000  Uiso   1.00
H154   H     0.19156   0.43276   0.00157   0.00000  Uiso   1.00
O155   O     0.29255   0.54888   0.02542   0.00000  Uiso   1.00
H156   H     0.30844   0.56724   0.33176   0.00000  Uiso   1.00
C157   C     0.74725   0.40002   0.15133   0.00000  Uiso   1.00
C158   C     0.75275   0.59998   0.18200   0.00000  Uiso   1.00
C159   C     0.51506   0.45882   0.05748   0.00000  Uiso   1.00
C160   C     0.98494   0.54106   0.27587   0.00000  Uiso   1.00
C161   C     0.74108   0.34403   0.14412   0.00000  Uiso   1.00
C162   C     0.75892   0.65597   0.18921   0.00000  Uiso   1.00
C163   C     0.66439   0.49958   0.16705   0.00000  Uiso   1.00
C164   C     0.83561   0.50042   0.16629   0.00000  Uiso   1.00
C165   C     0.91153   0.52205   0.22012   0.00000  Uiso   1.00
C166   C     0.58847   0.47788   0.11323   0.00000  Uiso   1.00
C167   C     0.88398   0.50131   0.16565   0.00000  Uiso   1.00
C168   C     0.61602   0.49867   0.16768   0.00000  Uiso   1.00
C169   C     0.90254   0.48099   0.11095   0.00000  Uiso   1.00
C170   C     0.59746   0.51900   0.22237   0.00000  Uiso   1.00
C171   C     0.94905   0.48128   0.10987   0.00000  Uiso   1.00
C172   C     0.55095   0.51866   0.22346   0.00000  Uiso   1.00
C173   C     0.97670   0.50073   0.16595   0.00000  Uiso   1.00
C174   C     0.52330   0.49921   0.16739   0.00000  Uiso   1.00
C175   C     0.95772   0.52162   0.22076   0.00000  Uiso   1.00
C176   C     0.54228   0.47830   0.11258   0.00000  Uiso   1.00
C177   C     0.96883   0.46117   0.05500   0.00000  Uiso   1.00
C178   C     0.53116   0.53872   0.27835   0.00000  Uiso   1.00
Cu179  Cu    0.75501   0.50579   0.22813   0.00000  Uiso   1.00
Cu180  Cu    0.74500   0.49421   0.10521   0.00000  Uiso   1.00
H181   H     0.52988   0.44304   0.01542   0.00000  Uiso   1.00
H182   H     0.97012   0.55680   0.31795   0.00000  Uiso   1.00
N183   N     0.73745   0.48547   0.01284   0.00000  Uiso   1.00
N184   N     0.76256   0.51453   0.32049   0.00000  Uiso   1.00
O185   O     0.75326   0.42871   0.20659   0.00000  Uiso   1.00
O186   O     0.74675   0.57129   0.12674   0.00000  Uiso   1.00
O187   O     0.74480   0.41892   0.10279   0.00000  Uiso   1.00
O188   O     0.75520   0.58108   0.23055   0.00000  Uiso   1.00
O189   O     0.68936   0.50488   0.21857   0.00000  Uiso   1.00
O190   O     0.81065   0.49512   0.11476   0.00000  Uiso   1.00
O191   O     0.68090   0.49510   0.11477   0.00000  Uiso   1.00
O192   O     0.81910   0.50490   0.21857   0.00000  Uiso   1.00
H193   H     0.89697   0.53815   0.26231   0.00000  Uiso   1.00
H194   H     0.60303   0.46175   0.07104   0.00000  Uiso   1.00
H195   H     0.88019   0.46362   0.07018   0.00000  Uiso   1.00
H196   H     0.61981   0.53640   0.26314   0.00000  Uiso   1.00
O197   O     0.94464   0.44331   0.33159   0.00000  Uiso   1.00
H198   H     0.91917   0.46526   0.32901   0.00000  Uiso   1.00
O199   O     0.55535   0.55652   0.00177   0.00000  Uiso   1.00
H200   H     0.58085   0.53460   0.00430   0.00000  Uiso   1.00
O201   O     0.71497   0.64681   0.09315   0.00000  Uiso   1.00
H202   H     0.70165   0.33636   0.06786   0.00000  Uiso   1.00
O203   O     0.78503   0.35319   0.24018   0.00000  Uiso   1.00
H204   H     0.79835   0.66364   0.26547   0.00000  Uiso   1.00
O205   O     0.70745   0.45112   0.30791   0.00000  Uiso   1.00
H206   H     0.69156   0.43276   0.00157   0.00000  Uiso   1.00
O207   O     0.79255   0.54888   0.02542   0.00000  Uiso   1.00
H208   H     0.80844   0.56724   0.33176   0.00000  Uiso   1.00
C209   C     0.24725   0.73335   0.15133   0.00000  Uiso   1.00
C210   C     0.25275   0.93332   0.18200   0.00000  Uiso   1.00
C211   C     0.01506   0.79216   0.05748   0.00000  Uiso   1.00
C212   C     0.48494   0.87439   0.27587   0.00000  Uiso   1.00
C213   C     0.24108   0.67736   0.14412   0.00000  Uiso   1.00
C214   C     0.25892   0.98931   0.18921   0.00000  Uiso   1.00
C215   C     0.16439   0.83291   0.16705   0.00000  Uiso   1.00
C216   C     0.33561   0.83375   0.16629   0.00000  Uiso   1.00
C217   C     0.41153   0.85538   0.22012   0.00000  Uiso   1.00
C218   C     0.08847   0.81121   0.11323   0.00000  Uiso   1.00
C219   C     0.38398   0.83464   0.16565   0.00000  Uiso   1.00
C220   C     0.11602   0.83200   0.16768   0.00000  Uiso   1.00
C221   C     0.40254   0.81432   0.11095   0.00000  Uiso   1.00
C222   C     0.09746   0.85233   0.22237   0.00000  Uiso   1.00
C223   C     0.44905   0.81462   0.10987   0.00000  Uiso   1.00
C224   C     0.05095   0.85199   0.22346   0.00000  Uiso   1.00
C225   C     0.47670   0.83406   0.16595   0.00000  Uiso   1.00
C226   C     0.02330   0.83254   0.16739   0.00000  Uiso   1.00
C227   C     0.45772   0.85495   0.22076   0.00000  Uiso   1.00
C228   C     0.04228   0.81163   0.11258   0.00000  Uiso   1.00
C229   C     0.46883   0.79450   0.05500   0.00000  Uiso   1.00
C230   C     0.03116   0.87205   0.27835   0.00000  Uiso   1.00
Cu231  Cu    0.25501   0.83913   0.22813   0.00000  Uiso   1.00
Cu232  Cu    0.24500   0.82754   0.10521   0.00000  Uiso   1.00
H233   H     0.02988   0.77637   0.01542   0.00000  Uiso   1.00
H234   H     0.47012   0.89014   0.31795   0.00000  Uiso   1.00
N235   N     0.23745   0.81881   0.01284   0.00000  Uiso   1.00
N236   N     0.26256   0.84786   0.32049   0.00000  Uiso   1.00
O237   O     0.25326   0.76204   0.20659   0.00000  Uiso   1.00
O238   O     0.24675   0.90462   0.12674   0.00000  Uiso   1.00
O239   O     0.24480   0.75226   0.10279   0.00000  Uiso   1.00
O240   O     0.25520   0.91441   0.23055   0.00000  Uiso   1.00
O241   O     0.18936   0.83821   0.21857   0.00000  Uiso   1.00
O242   O     0.31065   0.82845   0.11476   0.00000  Uiso   1.00
O243   O     0.18090   0.82843   0.11477   0.00000  Uiso   1.00
O244   O     0.31910   0.83824   0.21857   0.00000  Uiso   1.00
H245   H     0.39697   0.87149   0.26231   0.00000  Uiso   1.00
H246   H     0.10303   0.79509   0.07104   0.00000  Uiso   1.00
H247   H     0.38019   0.79696   0.07018   0.00000  Uiso   1.00
H248   H     0.11981   0.86973   0.26314   0.00000  Uiso   1.00
O249   O     0.44464   0.77664   0.33159   0.00000  Uiso   1.00
H250   H     0.41917   0.79860   0.32901   0.00000  Uiso   1.00
O251   O     0.05535   0.88986   0.00177   0.00000  Uiso   1.00
H252   H     0.08085   0.86793   0.00430   0.00000  Uiso   1.00
O253   O     0.21497   0.98014   0.09315   0.00000  Uiso   1.00
H254   H     0.20165   0.66970   0.06786   0.00000  Uiso   1.00
O255   O     0.28503   0.68652   0.24018   0.00000  Uiso   1.00
H256   H     0.29835   0.99697   0.26547   0.00000  Uiso   1.00
O257   O     0.20745   0.78445   0.30791   0.00000  Uiso   1.00
H258   H     0.19156   0.76610   0.00157   0.00000  Uiso   1.00
O259   O     0.29255   0.88221   0.02542   0.00000  Uiso   1.00
H260   H     0.30844   0.90057   0.33176   0.00000  Uiso   1.00
C261   C     0.74725   0.73335   0.15133   0.00000  Uiso   1.00
C262   C     0.75275   0.93332   0.18200   0.00000  Uiso   1.00
C263   C     0.51506   0.79216   0.05748   0.00000  Uiso   1.00
C264   C     0.98494   0.87439   0.27587   0.00000  Uiso   1.00
C265   C     0.74108   0.67736   0.14412   0.00000  Uiso   1.00
C266   C     0.75892   0.98931   0.18921   0.00000  Uiso   1.00
C267   C     0.66439   0.83291   0.16705   0.00000  Uiso   1.00
C268   C     0.83561   0.83375   0.16629   0.00000  Uiso   1.00
C269   C     0.91153   0.85538   0.22012   0.00000  Uiso   1.00
C270   C     0.58847   0.81121   0.11323   0.00000  Uiso   1.00
C271   C     0.88398   0.83464   0.16565   0.00000  Uiso   1.00
C272   C     0.61602   0.83200   0.16768   0.00000  Uiso   1.00
C273   C     0.90254   0.81432   0.11095   0.00000  Uiso   1.00
C274   C     0.59746   0.85233   0.22237   0.00000  Uiso   1.00
C275   C     0.94905   0.81462   0.10987   0.00000  Uiso   1.00
C276   C     0.55095   0.85199   0.22346   0.00000  Uiso   1.00
C277   C     0.97670   0.83406   0.16595   0.00000  Uiso   1.00
C278   C     0.52330   0.83254   0.16739   0.00000  Uiso   1.00
C279   C     0.95772   0.85495   0.22076   0.00000  Uiso   1.00
C280   C     0.54228   0.81163   0.11258   0.00000  Uiso   1.00
C281   C     0.96883   0.79450   0.05500   0.00000  Uiso   1.00
C282   C     0.53116   0.87205   0.27835   0.00000  Uiso   1.00
Cu283  Cu    0.75501   0.83913   0.22813   0.00000  Uiso   1.00
Cu284  Cu    0.74500   0.82754   0.10521   0.00000  Uiso   1.00
H285   H     0.52988   0.77637   0.01542   0.00000  Uiso   1.00
H286   H     0.97012   0.89014   0.31795   0.00000  Uiso   1.00
N287   N     0.73745   0.81881   0.01284   0.00000  Uiso   1.00
N288   N     0.76256   0.84786   0.32049   0.00000  Uiso   1.00
O289   O     0.75326   0.76204   0.20659   0.00000  Uiso   1.00
O290   O     0.74675   0.90462   0.12674   0.00000  Uiso   1.00
O291   O     0.74480   0.75226   0.10279   0.00000  Uiso   1.00
O292   O     0.75520   0.91441   0.23055   0.00000  Uiso   1.00
O293   O     0.68936   0.83821   0.21857   0.00000  Uiso   1.00
O294   O     0.81065   0.82845   0.11476   0.00000  Uiso   1.00
O295   O     0.68090   0.82843   0.11477   0.00000  Uiso   1.00
O296   O     0.81910   0.83824   0.21857   0.00000  Uiso   1.00
H297   H     0.89697   0.87149   0.26231   0.00000  Uiso   1.00
H298   H     0.60303   0.79509   0.07104   0.00000  Uiso   1.00
H299   H     0.88019   0.79696   0.07018   0.00000  Uiso   1.00
H300   H     0.61981   0.86973   0.26314   0.00000  Uiso   1.00
O301   O     0.94464   0.77664   0.33159   0.00000  Uiso   1.00
H302   H     0.91917   0.79860   0.32901   0.00000  Uiso   1.00
O303   O     0.55535   0.88986   0.00177   0.00000  Uiso   1.00
H304   H     0.58085   0.86793   0.00430   0.00000  Uiso   1.00
O305   O     0.71497   0.98014   0.09315   0.00000  Uiso   1.00
H306   H     0.70165   0.66970   0.06786   0.00000  Uiso   1.00
O307   O     0.78503   0.68652   0.24018   0.00000  Uiso   1.00
H308   H     0.79835   0.99697   0.26547   0.00000  Uiso   1.00
O309   O     0.70745   0.78445   0.30791   0.00000  Uiso   1.00
H310   H     0.69156   0.76610   0.00157   0.00000  Uiso   1.00
O311   O     0.79255   0.88221   0.02542   0.00000  Uiso   1.00
H312   H     0.80844   0.90057   0.33176   0.00000  Uiso   1.00
C313   C     0.24725   0.06668   0.48466   0.00000  Uiso   1.00
C314   C     0.25275   0.26665   0.51534   0.00000  Uiso   1.00
C315   C     0.01506   0.12549   0.39082   0.00000  Uiso   1.00
C316   C     0.48494   0.20772   0.60920   0.00000  Uiso   1.00
C317   C     0.24108   0.01069   0.47746   0.00000  Uiso   1.00
C318   C     0.25892   0.32264   0.52254   0.00000  Uiso   1.00
C319   C     0.16439   0.16624   0.50038   0.00000  Uiso   1.00
C320   C     0.33561   0.16709   0.49962   0.00000  Uiso   1.00
C321   C     0.41153   0.18872   0.55345   0.00000  Uiso   1.00
C322   C     0.08847   0.14455   0.44656   0.00000  Uiso   1.00
C323   C     0.38398   0.16797   0.49899   0.00000  Uiso   1.00
C324   C     0.11602   0.16534   0.50101   0.00000  Uiso   1.00
C325   C     0.40254   0.14765   0.44429   0.00000  Uiso   1.00
C326   C     0.09746   0.18567   0.55571   0.00000  Uiso   1.00
C327   C     0.44905   0.14795   0.44321   0.00000  Uiso   1.00
C328   C     0.05095   0.18533   0.55680   0.00000  Uiso   1.00
C329   C     0.47670   0.16740   0.49928   0.00000  Uiso   1.00
C330   C     0.02330   0.16587   0.50072   0.00000  Uiso   1.00
C331   C     0.45772   0.18829   0.55409   0.00000  Uiso   1.00
C332   C     0.04228   0.14497   0.44592   0.00000  Uiso   1.00
C333   C     0.46883   0.12784   0.38833   0.00000  Uiso   1.00
C334   C     0.03116   0.20539   0.61168   0.00000  Uiso   1.00
Cu335  Cu    0.25501   0.17246   0.56146   0.00000  Uiso   1.00
Cu336  Cu    0.24500   0.16087   0.43854   0.00000  Uiso   1.00
H337   H     0.02988   0.10970   0.34875   0.00000  Uiso   1.00
H338   H     0.47012   0.22347   0.65128   0.00000  Uiso   1.00
N339   N     0.23745   0.15214   0.34617   0.00000  Uiso   1.00
N340   N     0.26256   0.18119   0.65383   0.00000  Uiso   1.00
O341   O     0.25326   0.09538   0.53992   0.00000  Uiso   1.00
O342   O     0.24675   0.23796   0.46008   0.00000  Uiso   1.00
O343   O     0.24480   0.08559   0.43612   0.00000  Uiso   1.00
O344   O     0.25520   0.24774   0.56388   0.00000  Uiso   1.00
O345   O     0.18936   0.17155   0.55191   0.00000  Uiso   1.00
O346   O     0.31065   0.16179   0.44809   0.00000  Uiso   1.00
O347   O     0.18090   0.16176   0.44810   0.00000  Uiso   1.00
O348   O     0.31910   0.17157   0.55190   0.00000  Uiso   1.00
H349   H     0.39697   0.20482   0.59565   0.00000  Uiso   1.00
H350   H     0.10303   0.12842   0.40438   0.00000  Uiso   1.00
H351   H     0.38019   0.13029   0.40351   0.00000  Uiso   1.00
H352   H     0.11981   0.20307   0.59647   0.00000  Uiso   1.00
O353   O     0.44464   0.10997   0.66492   0.00000  Uiso   1.00
H354   H     0.41917   0.13193   0.66234   0.00000  Uiso   1.00
O355   O     0.05535   0.22319   0.33510   0.00000  Uiso   1.00
H356   H     0.08085   0.20126   0.33763   0.00000  Uiso   1.00
O357   O     0.21497   0.31348   0.42649   0.00000  Uiso   1.00
H358   H     0.20165   0.00303   0.40119   0.00000  Uiso   1.00
O359   O     0.28503   0.01986   0.57351   0.00000  Uiso   1.00
H360   H     0.29835   0.33030   0.59881   0.00000  Uiso   1.00
O361   O     0.20745   0.11779   0.64124   0.00000  Uiso   1.00
H362   H     0.19156   0.09943   0.33491   0.00000  Uiso   1.00
O363   O     0.29255   0.21555   0.35876   0.00000  Uiso   1.00
H364   H     0.30844   0.23390   0.66509   0.00000  Uiso   1.00
C365   C     0.74725   0.06668   0.48466   0.00000  Uiso   1.00
C366   C     0.75275   0.26665   0.51534   0.00000  Uiso   1.00
C367   C     0.51506   0.12549   0.39082   0.00000  Uiso   1.00
C368   C     0.98494   0.20772   0.60920   0.00000  Uiso   1.00
C369   C     0.74108   0.01069   0.47746   0.00000  Uiso   1.00
C370   C     0.75892   0.32264   0.52254   0.00000  Uiso   1.00
C371   C     0.66439   0.16624   0.50038   0.00000  Uiso   1.00
C372   C     0.83561   0.16709   0.49962   0.00000  Uiso   1.00
C373   C     0.91153   0.18872   0.55345   0.00000  Uiso   1.00
C374   C     0.58847   0.14455   0.44656   0.00000  Uiso   1.00
C375   C     0.88398   0.16797   0.49899   0.00000  Uiso   1.00
C376   C     0.61602   0.16534   0.50101   0.00000  Uiso   1.00
C377   C     0.90254   0.14765   0.44429   0.00000  Uiso   1.00
C378   C     0.59746   0.18567   0.55571   0.00000  Uiso   1.00
C379   C     0.94905   0.14795   0.44321   0.00000  Uiso   1.00
C380   C     0.55095   0.18533   0.55680   0.00000  Uiso   1.00
C381   C     0.97670   0.16740   0.49928   0.00000  Uiso   1.00
C382   C     0.52330   0.16587   0.50072   0.00000  Uiso   1.00
C383   C     0.95772   0.18829   0.55409   0.00000  Uiso   1.00
C384   C     0.54228   0.14497   0.44592   0.00000  Uiso   1.00
C385   C     0.96883   0.12784   0.38833   0.00000  Uiso   1.00
C386   C     0.53116   0.20539   0.61168   0.00000  Uiso   1.00
Cu387  Cu    0.75501   0.17246   0.56146   0.00000  Uiso   1.00
Cu388  Cu    0.74500   0.16087   0.43854   0.00000  Uiso   1.00
H389   H     0.52988   0.10970   0.34875   0.00000  Uiso   1.00
H390   H     0.97012   0.22347   0.65128   0.00000  Uiso   1.00
N391   N     0.73745   0.15214   0.34617   0.00000  Uiso   1.00
N392   N     0.76256   0.18119   0.65383   0.00000  Uiso   1.00
O393   O     0.75326   0.09538   0.53992   0.00000  Uiso   1.00
O394   O     0.74675   0.23796   0.46008   0.00000  Uiso   1.00
O395   O     0.74480   0.08559   0.43612   0.00000  Uiso   1.00
O396   O     0.75520   0.24774   0.56388   0.00000  Uiso   1.00
O397   O     0.68936   0.17155   0.55191   0.00000  Uiso   1.00
O398   O     0.81065   0.16179   0.44809   0.00000  Uiso   1.00
O399   O     0.68090   0.16176   0.44810   0.00000  Uiso   1.00
O400   O     0.81910   0.17157   0.55190   0.00000  Uiso   1.00
H401   H     0.89697   0.20482   0.59565   0.00000  Uiso   1.00
H402   H     0.60303   0.12842   0.40438   0.00000  Uiso   1.00
H403   H     0.88019   0.13029   0.40351   0.00000  Uiso   1.00
H404   H     0.61981   0.20307   0.59647   0.00000  Uiso   1.00
O405   O     0.94464   0.10997   0.66492   0.00000  Uiso   1.00
H406   H     0.91917   0.13193   0.66234   0.00000  Uiso   1.00
O407   O     0.55535   0.22319   0.33510   0.00000  Uiso   1.00
H408   H     0.58085   0.20126   0.33763   0.00000  Uiso   1.00
O409   O     0.71497   0.31348   0.42649   0.00000  Uiso   1.00
H410   H     0.70165   0.00303   0.40119   0.00000  Uiso   1.00
O411   O     0.78503   0.01986   0.57351   0.00000  Uiso   1.00
H412   H     0.79835   0.33030   0.59881   0.00000  Uiso   1.00
O413   O     0.70745   0.11779   0.64124   0.00000  Uiso   1.00
H414   H     0.69156   0.09943   0.33491   0.00000  Uiso   1.00
O415   O     0.79255   0.21555   0.35876   0.00000  Uiso   1.00
H416   H     0.80844   0.23390   0.66509   0.00000  Uiso   1.00
C417   C     0.24725   0.40002   0.48466   0.00000  Uiso   1.00
C418   C     0.25275   0.59998   0.51534   0.00000  Uiso   1.00
C419   C     0.01506   0.45882   0.39082   0.00000  Uiso   1.00
C420   C     0.48494   0.54106   0.60920   0.00000  Uiso   1.00
C421   C     0.24108   0.34403   0.47746   0.00000  Uiso   1.00
C422   C     0.25892   0.65597   0.52254   0.00000  Uiso   1.00
C423   C     0.16439   0.49958   0.50038   0.00000  Uiso   1.00
C424   C     0.33561   0.50042   0.49962   0.00000  Uiso   1.00
C425   C     0.41153   0.52205   0.55345   0.00000  Uiso   1.00
C426   C     0.08847   0.47788   0.44656   0.00000  Uiso   1.00
C427   C     0.38398   0.50131   0.49899   0.00000  Uiso   1.00
C428   C     0.11602   0.49867   0.50101   0.00000  Uiso   1.00
C429   C     0.40254   0.48099   0.44429   0.00000  Uiso   1.00
C430   C     0.09746   0.51900   0.55571   0.00000  Uiso   1.00
C431   C     0.44905   0.48128   0.44321   0.00000  Uiso   1.00
C432   C     0.05095   0.51866   0.55680   0.00000  Uiso   1.00
C433   C     0.47670   0.50073   0.49928   0.00000  Uiso   1.00
C434   C     0.02330   0.49921   0.50072   0.00000  Uiso   1.00
C435   C     0.45772   0.52162   0.55409   0.00000  Uiso   1.00
C436   C     0.04228   0.47830   0.44592   0.00000  Uiso   1.00
C437   C     0.46883   0.46117   0.38833   0.00000  Uiso   1.00
C438   C     0.03116   0.53872   0.61168   0.00000  Uiso   1.00
Cu439  Cu    0.25501   0.50579   0.56146   0.00000  Uiso   1.00
Cu440  Cu    0.24500   0.49421   0.43854   0.00000  Uiso   1.00
H441   H     0.02988   0.44304   0.34875   0.00000  Uiso   1.00
H442   H     0.47012   0.55680   0.65128   0.00000  Uiso   1.00
N443   N     0.23745   0.48547   0.34617   0.00000  Uiso   1.00
N444   N     0.26256   0.51453   0.65383   0.00000  Uiso   1.00
O445   O     0.25326   0.42871   0.53992   0.00000  Uiso   1.00
O446   O     0.24675   0.57129   0.46008   0.00000  Uiso   1.00
O447   O     0.24480   0.41892   0.43612   0.00000  Uiso   1.00
O448   O     0.25520   0.58108   0.56388   0.00000  Uiso   1.00
O449   O     0.18936   0.50488   0.55191   0.00000  Uiso   1.00
O450   O     0.31065   0.49512   0.44809   0.00000  Uiso   1.00
O451   O     0.18090   0.49510   0.44810   0.00000  Uiso   1.00
O452   O     0.31910   0.50490   0.55190   0.00000  Uiso   1.00
H453   H     0.39697   0.53815   0.59565   0.00000  Uiso   1.00
H454   H     0.10303   0.46175   0.40438   0.00000  Uiso   1.00
H455   H     0.38019   0.46362   0.40351   0.00000  Uiso   1.00
H456   H     0.11981   0.53640   0.59647   0.00000  Uiso   1.00
O457   O     0.44464   0.44331   0.66492   0.00000  Uiso   1.00
H458   H     0.41917   0.46526   0.66234   0.00000  Uiso   1.00
O459   O     0.05535   0.55652   0.33510   0.00000  Uiso   1.00
H460   H     0.08085   0.53460   0.33763   0.00000  Uiso   1.00
O461   O     0.21497   0.64681   0.42649   0.00000  Uiso   1.00
H462   H     0.20165   0.33636   0.40119   0.00000  Uiso   1.00
O463   O     0.28503   0.35319   0.57351   0.00000  Uiso   1.00
H464   H     0.29835   0.66364   0.59881   0.00000  Uiso   1.00
O465   O     0.20745   0.45112   0.64124   0.00000  Uiso   1.00
H466   H     0.19156   0.43276   0.33491   0.00000  Uiso   1.00
O467   O     0.29255   0.54888   0.35876   0.00000  Uiso   1.00
H468   H     0.30844   0.56724   0.66509   0.00000  Uiso   1.00
C469   C     0.74725   0.40002   0.48466   0.00000  Uiso   1.00
C470   C     0.75275   0.59998   0.51534   0.00000  Uiso   1.00
C471   C     0.51506   0.45882   0.39082   0.00000  Uiso   1.00
C472   C     0.98494   0.54106   0.60920   0.00000  Uiso   1.00
C473   C     0.74108   0.34403   0.47746   0.00000  Uiso   1.00
C474   C     0.75892   0.65597   0.52254   0.00000  Uiso   1.00
C475   C     0.66439   0.49958   0.50038   0.00000  Uiso   1.00
C476   C     0.83561   0.50042   0.49962   0.00000  Uiso   1.00
C477   C     0.91153   0.52205   0.55345   0.00000  Uiso   1.00
C478   C     0.58847   0.47788   0.44656   0.00000  Uiso   1.00
C479   C     0.88398   0.50131   0.49899   0.00000  Uiso   1.00
C480   C     0.61602   0.49867   0.50101   0.00000  Uiso   1.00
C481   C     0.90254   0.48099   0.44429   0.00000  Uiso   1.00
C482   C     0.59746   0.51900   0.55571   0.00000  Uiso   1.00
C483   C     0.94905   0.48128   0.44321   0.00000  Uiso   1.00
C484   C     0.55095   0.51866   0.55680   0.00000  Uiso   1.00
C485   C     0.97670   0.50073   0.49928   0.00000  Uiso   1.00
C486   C     0.52330   0.49921   0.50072   0.00000  Uiso   1.00
C487   C     0.95772   0.52162   0.55409   0.00000  Uiso   1.00
C488   C     0.54228   0.47830   0.44592   0.00000  Uiso   1.00
C489   C     0.96883   0.46117   0.38833   0.00000  Uiso   1.00
C490   C     0.53116   0.53872   0.61168   0.00000  Uiso   1.00
Cu491  Cu    0.75501   0.50579   0.56146   0.00000  Uiso   1.00
Cu492  Cu    0.74500   0.49421   0.43854   0.00000  Uiso   1.00
H493   H     0.52988   0.44304   0.34875   0.00000  Uiso   1.00
H494   H     0.97012   0.55680   0.65128   0.00000  Uiso   1.00
N495   N     0.73745   0.48547   0.34617   0.00000  Uiso   1.00
N496   N     0.76256   0.51453   0.65383   0.00000  Uiso   1.00
O497   O     0.75326   0.42871   0.53992   0.00000  Uiso   1.00
O498   O     0.74675   0.57129   0.46008   0.00000  Uiso   1.00
O499   O     0.74480   0.41892   0.43612   0.00000  Uiso   1.00
O500   O     0.75520   0.58108   0.56388   0.00000  Uiso   1.00
O501   O     0.68936   0.50488   0.55191   0.00000  Uiso   1.00
O502   O     0.81065   0.49512   0.44809   0.00000  Uiso   1.00
O503   O     0.68090   0.49510   0.44810   0.00000  Uiso   1.00
O504   O     0.81910   0.50490   0.55190   0.00000  Uiso   1.00
H505   H     0.89697   0.53815   0.59565   0.00000  Uiso   1.00
H506   H     0.60303   0.46175   0.40438   0.00000  Uiso   1.00
H507   H     0.88019   0.46362   0.40351   0.00000  Uiso   1.00
H508   H     0.61981   0.53640   0.59647   0.00000  Uiso   1.00
O509   O     0.94464   0.44331   0.66492   0.00000  Uiso   1.00
H510   H     0.91917   0.46526   0.66234   0.00000  Uiso   1.00
O511   O     0.55535   0.55652   0.33510   0.00000  Uiso   1.00
H512   H     0.58085   0.53460   0.33763   0.00000  Uiso   1.00
O513   O     0.71497   0.64681   0.42649   0.00000  Uiso   1.00
H514   H     0.70165   0.33636   0.40119   0.00000  Uiso   1.00
O515   O     0.78503   0.35319   0.57351   0.00000  Uiso   1.00
H516   H     0.79835   0.66364   0.59881   0.00000  Uiso   1.00
O517   O     0.70745   0.45112   0.64124   0.00000  Uiso   1.00
H518   H     0.69156   0.43276   0.33491   0.00000  Uiso   1.00
O519   O     0.79255   0.54888   0.35876   0.00000  Uiso   1.00
H520   H     0.80844   0.56724   0.66509   0.00000  Uiso   1.00
C521   C     0.24725   0.73335   0.48466   0.00000  Uiso   1.00
C522   C     0.25275   0.93332   0.51534   0.00000  Uiso   1.00
C523   C     0.01506   0.79216   0.39082   0.00000  Uiso   1.00
C524   C     0.48494   0.87439   0.60920   0.00000  Uiso   1.00
C525   C     0.24108   0.67736   0.47746   0.00000  Uiso   1.00
C526   C     0.25892   0.98931   0.52254   0.00000  Uiso   1.00
C527   C     0.16439   0.83291   0.50038   0.00000  Uiso   1.00
C528   C     0.33561   0.83375   0.49962   0.00000  Uiso   1.00
C529   C     0.41153   0.85538   0.55345   0.00000  Uiso   1.00
C530   C     0.08847   0.81121   0.44656   0.00000  Uiso   1.00
C531   C     0.38398   0.83464   0.49899   0.00000  Uiso   1.00
C532   C     0.11602   0.83200   0.50101   0.00000  Uiso   1.00
C533   C     0.40254   0.81432   0.44429   0.00000  Uiso   1.00
C534   C     0.09746   0.85233   0.55571   0.00000  Uiso   1.00
C535   C     0.44905   0.81462   0.44321   0.00000  Uiso   1.00
C536   C     0.05095   0.85199   0.55680   0.00000  Uiso   1.00
C537   C     0.47670   0.83406   0.49928   0.00000  Uiso   1.00
C538   C     0.02330   0.83254   0.50072   0.00000  Uiso   1.00
C539   C     0.45772   0.85495   0.55409   0.00000  Uiso   1.00
C540   C     0.04228   0.81163   0.44592   0.00000  Uiso   1.00
C541   C     0.46883   0.79450   0.38833   0.00000  Uiso   1.00
C542   C     0.03116   0.87205   0.61168   0.00000  Uiso   1.00
Cu543  Cu    0.25501   0.83913   0.56146   0.00000  Uiso   1.00
Cu544  Cu    0.24500   0.82754   0.43854   0.00000  Uiso   1.00
H545   H     0.02988   0.77637   0.34875   0.00000  Uiso   1.00
H546   H     0.47012   0.89014   0.65128   0.00000  Uiso   1.00
N547   N     0.23745   0.81881   0.34617   0.00000  Uiso   1.00
N548   N     0.26256   0.84786   0.65383   0.00000  Uiso   1.00
O549   O     0.25326   0.76204   0.53992   0.00000  Uiso   1.00
O550   O     0.24675   0.90462   0.46008   0.00000  Uiso   1.00
O551   O     0.24480   0.75226   0.43612   0.00000  Uiso   1.00
O552   O     0.25520   0.91441   0.56388   0.00000  Uiso   1.00
O553   O     0.18936   0.83821   0.55191   0.00000  Uiso   1.00
O554   O     0.31065   0.82845   0.44809   0.00000  Uiso   1.00
O555   O     0.18090   0.82843   0.44810   0.00000  Uiso   1.00
O556   O     0.31910   0.83824   0.55190   0.00000  Uiso   1.00
H557   H     0.39697   0.87149   0.59565   0.00000  Uiso   1.00
H558   H     0.10303   0.79509   0.40438   0.00000  Uiso   1.00
H559   H     0.38019   0.79696   0.40351   0.00000  Uiso   1.00
H560   H     0.11981   0.86973   0.59647   0.00000  Uiso   1.00
O561   O     0.44464   0.77664   0.66492   0.00000  Uiso   1.00
H562   H     0.41917   0.79860   0.66234   0.00000  Uiso   1.00
O563   O     0.05535   0.88986   0.33510   0.00000  Uiso   1.00
H564   H     0.08085   0.86793   0.33763   0.00000  Uiso   1.00
O565   O     0.21497   0.98014   0.42649   0.00000  Uiso   1.00
H566   H     0.20165   0.66970   0.40119   0.00000  Uiso   1.00
O567   O     0.28503   0.68652   0.57351   0.00000  Uiso   1.00
H568   H     0.29835   0.99697   0.59881   0.00000  Uiso   1.00
O569   O     0.20745   0.78445   0.64124   0.00000  Uiso   1.00
H570   H     0.19156   0.76610   0.33491   0.00000  Uiso   1.00
O571   O     0.29255   0.88221   0.35876   0.00000  Uiso   1.00
H572   H     0.30844   0.90057   0.66509   0.00000  Uiso   1.00
C573   C     0.74725   0.73335   0.48466   0.00000  Uiso   1.00
C574   C     0.75275   0.93332   0.51534   0.00000  Uiso   1.00
C575   C     0.51506   0.79216   0.39082   0.00000  Uiso   1.00
C576   C     0.98494   0.87439   0.60920   0.00000  Uiso   1.00
C577   C     0.74108   0.67736   0.47746   0.00000  Uiso   1.00
C578   C     0.75892   0.98931   0.52254   0.00000  Uiso   1.00
C579   C     0.66439   0.83291   0.50038   0.00000  Uiso   1.00
C580   C     0.83561   0.83375   0.49962   0.00000  Uiso   1.00
C581   C     0.91153   0.85538   0.55345   0.00000  Uiso   1.00
C582   C     0.58847   0.81121   0.44656   0.00000  Uiso   1.00
C583   C     0.88398   0.83464   0.49899   0.00000  Uiso   1.00
C584   C     0.61602   0.83200   0.50101   0.00000  Uiso   1.00
C585   C     0.90254   0.81432   0.44429   0.00000  Uiso   1.00
C586   C     0.59746   0.85233   0.55571   0.00000  Uiso   1.00
C587   C     0.94905   0.81462   0.44321   0.00000  Uiso   1.00
C588   C     0.55095   0.85199   0.55680   0.00000  Uiso   1.00
C589   C     0.97670   0.83406   0.49928   0.00000  Uiso   1.00
C590   C     0.52330   0.83254   0.50072   0.00000  Uiso   1.00
C591   C     0.95772   0.85495   0.55409   0.00000  Uiso   1.00
C592   C     0.54228   0.81163   0.44592   0.00000  Uiso   1.00
C593   C     0.96883   0.79450   0.38833   0.00000  Uiso   1.00
C594   C     0.53116   0.87205   0.61168   0.00000  Uiso   1.00
Cu595  Cu    0.75501   0.83913   0.56146   0.00000  Uiso   1.00
Cu596  Cu    0.74500   0.82754   0.43854   0.00000  Uiso   1.00
H597   H     0.52988   0.77637   0.34875   0.00000  Uiso   1.00
H598   H     0.97012   0.89014   0.65128   0.00000  Uiso   1.00
N599   N     0.73745   0.81881   0.34617   0.00000  Uiso   1.00
N600   N     0.76256   0.84786   0.65383   0.00000  Uiso   1.00
O601   O     0.75326   0.76204   0.53992   0.00000  Uiso   1.00
O602   O     0.74675   0.90462   0.46008   0.00000  Uiso   1.00
O603   O     0.74480   0.75226   0.43612   0.00000  Uiso   1.00
O604   O     0.75520   0.91441   0.56388   0.00000  Uiso   1.00
O605   O     0.68936   0.83821   0.55191   0.00000  Uiso   1.00
O606   O     0.81065   0.82845   0.44809   0.00000  Uiso   1.00
O607   O     0.68090   0.82843   0.44810   0.00000  Uiso   1.00
O608   O     0.81910   0.83824   0.55190   0.00000  Uiso   1.00
H609   H     0.89697   0.87149   0.59565   0.00000  Uiso   1.00
H610   H     0.60303   0.79509   0.40438   0.00000  Uiso   1.00
H611   H     0.88019   0.79696   0.40351   0.00000  Uiso   1.00
H612   H     0.61981   0.86973   0.59647   0.00000  Uiso   1.00
O613   O     0.94464   0.77664   0.66492   0.00000  Uiso   1.00
H614   H     0.91917   0.79860   0.66234   0.00000  Uiso   1.00
O615   O     0.55535   0.88986   0.33510   0.00000  Uiso   1.00
H616   H     0.58085   0.86793   0.33763   0.00000  Uiso   1.00
O617   O     0.71497   0.98014   0.42649   0.00000  Uiso   1.00
H618   H     0.70165   0.66970   0.40119   0.00000  Uiso   1.00
O619   O     0.78503   0.68652   0.57351   0.00000  Uiso   1.00
H620   H     0.79835   0.99697   0.59881   0.00000  Uiso   1.00
O621   O     0.70745   0.78445   0.64124   0.00000  Uiso   1.00
H622   H     0.69156   0.76610   0.33491   0.00000  Uiso   1.00
O623   O     0.79255   0.88221   0.35876   0.00000  Uiso   1.00
H624   H     0.80844   0.90057   0.66509   0.00000  Uiso   1.00
C625   C     0.24725   0.06668   0.81800   0.00000  Uiso   1.00
C626   C     0.25275   0.26665   0.84867   0.00000  Uiso   1.00
C627   C     0.01506   0.12549   0.72415   0.00000  Uiso   1.00
C628   C     0.48494   0.20772   0.94254   0.00000  Uiso   1.00
C629   C     0.24108   0.01069   0.81079   0.00000  Uiso   1.00
C630   C     0.25892   0.32264   0.85588   0.00000  Uiso   1.00
C631   C     0.16439   0.16624   0.83371   0.00000  Uiso   1.00
C632   C     0.33561   0.16709   0.83295   0.00000  Uiso   1.00
C633   C     0.41153   0.18872   0.88678   0.00000  Uiso   1.00
C634   C     0.08847   0.14455   0.77990   0.00000  Uiso   1.00
C635   C     0.38398   0.16797   0.83232   0.00000  Uiso   1.00
C636   C     0.11602   0.16534   0.83435   0.00000  Uiso   1.00
C637   C     0.40254   0.14765   0.77762   0.00000  Uiso   1.00
C638   C     0.09746   0.18567   0.88904   0.00000  Uiso   1.00
C639   C     0.44905   0.14795   0.77654   0.00000  Uiso   1.00
C640   C     0.05095   0.18533   0.89013   0.00000  Uiso   1.00
C641   C     0.47670   0.16740   0.83261   0.00000  Uiso   1.00
C642   C     0.02330   0.16587   0.83406   0.00000  Uiso   1.00
C643   C     0.45772   0.18829   0.88743   0.00000  Uiso   1.00
C644   C     0.04228   0.14497   0.77925   0.00000  Uiso   1.00
C645   C     0.46883   0.12784   0.72167   0.00000  Uiso   1.00
C646   C     0.03116   0.20539   0.94501   0.00000  Uiso   1.00
Cu647  Cu    0.25501   0.17246   0.89479   0.00000  Uiso   1.00
Cu648  Cu    0.24500   0.16087   0.77187   0.00000  Uiso   1.00
H649   H     0.02988   0.10970   0.68208   0.00000  Uiso   1.00
H650   H     0.47012   0.22347   0.98461   0.00000  Uiso   1.00
N651   N     0.23745   0.15214   0.67951   0.00000  Uiso   1.00
N652   N     0.26256   0.18119   0.98716   0.00000  Uiso   1.00
O653   O     0.25326   0.09538   0.87326   0.00000  Uiso   1.00
O654   O     0.24675   0.23796   0.79341   0.00000  Uiso   1.00
O655   O     0.24480   0.08559   0.76945   0.00000  Uiso   1.00
O656   O     0.25520   0.24774   0.89721   0.00000  Uiso   1.00
O657   O     0.18936   0.17155   0.88524   0.00000  Uiso   1.00
O658   O     0.31065   0.16179   0.78143   0.00000  Uiso   1.00
O659   O     0.18090   0.16176   0.78143   0.00000  Uiso   1.00
O660   O     0.31910   0.17157   0.88523   0.00000  Uiso   1.00
H661   H     0.39697   0.20482   0.92898   0.00000  Uiso   1.00
H662   H     0.10303   0.12842   0.73771   0.00000  Uiso   1.00
H663   H     0.38019   0.13029   0.73685   0.00000  Uiso   1.00
H664   H     0.11981   0.20307   0.92981   0.00000  Uiso   1.00
O665   O     0.44464   0.10997   0.99825   0.00000  Uiso   1.00
H666   H     0.41917   0.13193   0.99568   0.00000  Uiso   1.00
O667   O     0.05535   0.22319   0.66843   0.00000  Uiso   1.00
H668   H     0.08085   0.20126   0.67096   0.00000  Uiso   1.00
O669   O     0.21497   0.31348   0.75982   0.00000  Uiso   1.00
H670   H     0.20165   0.00303   0.73453   0.00000  Uiso   1.00
O671   O     0.28503   0.01986   0.90685   0.00000  Uiso   1.00
H672   H     0.29835   0.33030   0.93214   0.00000  Uiso   1.00
O673   O     0.20745   0.11779   0.97458   0.00000  Uiso   1.00
H674   H     0.19156   0.09943   0.66824   0.00000  Uiso   1.00
O675   O     0.29255   0.21555   0.69209   0.00000  Uiso   1.00
H676   H     0.30844   0.23390   0.99843   0.00000  Uiso   1.00
C677   C     0.74725   0.06668   0.81800   0.00000  Uiso   1.00
C678   C     0.75275   0.26665   0.84867   0.00000  Uiso   1.00
C679   C     0.51506   0.12549   0.72415   0.00000  Uiso   1.00
C680   C     0.98494   0.20772   0.94254   0.00000  Uiso   1.00
C681   C     0.74108   0.01069   0.81079   0.00000  Uiso   1.00
C682   C     0.75892   0.32264   0.85588   0.00000  Uiso   1.00
C683   C     0.66439   0.16624   0.83371   0.00000  Uiso   1.00
C684   C     0.83561   0.16709   0.83295   0.00000  Uiso   1.00
C685   C     0.91153   0.18872   0.88678   0.00000  Uiso   1.00
C686   C     0.58847   0.14455   0.77990   0.00000  Uiso   1.00
C687   C     0.88398   0.16797   0.83232   0.00000  Uiso   1.00
C688   C     0.61602   0.16534   0.83435   0.00000  Uiso   1.00
C689   C     0.90254   0.14765   0.77762   0.00000  Uiso   1.00
C690   C     0.59746   0.18567   0.88904   0.00000  Uiso   1.00
C691   C     0.94905   0.14795   0.77654   0.00000  Uiso   1.00
C692   C     0.55095   0.18533   0.89013   0.00000  Uiso   1.00
C693   C     0.97670   0.16740   0.83261   0.00000  Uiso   1.00
C694   C     0.52330   0.16587   0.83406   0.00000  Uiso   1.00
C695   C     0.95772   0.18829   0.88743   0.00000  Uiso   1.00
C696   C     0.54228   0.14497   0.77925   0.00000  Uiso   1.00
C697   C     0.96883   0.12784   0.72167   0.00000  Uiso   1.00
C698   C     0.53116   0.20539   0.94501   0.00000  Uiso   1.00
Cu699  Cu    0.75501   0.17246   0.89479   0.00000  Uiso   1.00
Cu700  Cu    0.74500   0.16087   0.77187   0.00000  Uiso   1.00
H701   H     0.52988   0.10970   0.68208   0.00000  Uiso   1.00
H702   H     0.97012   0.22347   0.98461   0.00000  Uiso   1.00
N703   N     0.73745   0.15214   0.67951   0.00000  Uiso   1.00
N704   N     0.76256   0.18119   0.98716   0.00000  Uiso   1.00
O705   O     0.75326   0.09538   0.87326   0.00000  Uiso   1.00
O706   O     0.74675   0.23796   0.79341   0.00000  Uiso   1.00
O707   O     0.74480   0.08559   0.76945   0.00000  Uiso   1.00
O708   O     0.75520   0.24774   0.89721   0.00000  Uiso   1.00
O709   O     0.68936   0.17155   0.88524   0.00000  Uiso   1.00
O710   O     0.81065   0.16179   0.78143   0.00000  Uiso   1.00
O711   O     0.68090   0.16176   0.78143   0.00000  Uiso   1.00
O712   O     0.81910   0.17157   0.88523   0.00000  Uiso   1.00
H713   H     0.89697   0.20482   0.92898   0.00000  Uiso   1.00
H714   H     0.60303   0.12842   0.73771   0.00000  Uiso   1.00
H715   H     0.88019   0.13029   0.73685   0.00000  Uiso   1.00
H716   H     0.61981   0.20307   0.92981   0.00000  Uiso   1.00
O717   O     0.94464   0.10997   0.99825   0.00000  Uiso   1.00
H718   H     0.91917   0.13193   0.99568   0.00000  Uiso   1.00
O719   O     0.55535   0.22319   0.66843   0.00000  Uiso   1.00
H720   H     0.58085   0.20126   0.67096   0.00000  Uiso   1.00
O721   O     0.71497   0.31348   0.75982   0.00000  Uiso   1.00
H722   H     0.70165   0.00303   0.73453   0.00000  Uiso   1.00
O723   O     0.78503   0.01986   0.90685   0.00000  Uiso   1.00
H724   H     0.79835   0.33030   0.93214   0.00000  Uiso   1.00
O725   O     0.70745   0.11779   0.97458   0.00000  Uiso   1.00
H726   H     0.69156   0.09943   0.66824   0.00000  Uiso   1.00
O727   O     0.79255   0.21555   0.69209   0.00000  Uiso   1.00
H728   H     0.80844   0.23390   0.99843   0.00000  Uiso   1.00
C729   C     0.24725   0.40002   0.81800   0.00000  Uiso   1.00
C730   C     0.25275   0.59998   0.84867   0.00000  Uiso   1.00
C731   C     0.01506   0.45882   0.72415   0.00000  Uiso   1.00
C732   C     0.48494   0.54106   0.94254   0.00000  Uiso   1.00
C733   C     0.24108   0.34403   0.81079   0.00000  Uiso   1.00
C734   C     0.25892   0.65597   0.85588   0.00000  Uiso   1.00
C735   C     0.16439   0.49958   0.83371   0.00000  Uiso   1.00
C736   C     0.33561   0.50042   0.83295   0.00000  Uiso   1.00
C737   C     0.41153   0.52205   0.88678   0.00000  Uiso   1.00
C738   C     0.08847   0.47788   0.77990   0.00000  Uiso   1.00
C739   C     0.38398   0.50131   0.83232   0.00000  Uiso   1.00
C740   C     0.11602   0.49867   0.83435   0.00000  Uiso   1.00
C741   C     0.40254   0.48099   0.77762   0.00000  Uiso   1.00
C742   C     0.09746   0.51900   0.88904   0.00000  Uiso   1.00
C743   C     0.44905   0.48128   0.77654   0.00000  Uiso   1.00
C744   C     0.05095   0.51866   0.89013   0.00000  Uiso   1.00
C745   C     0.47670   0.50073   0.83261   0.00000  Uiso   1.00
C746   C     0.02330   0.49921   0.83406   0.00000  Uiso   1.00
C747   C     0.45772   0.52162   0.88743   0.00000  Uiso   1.00
C748   C     0.04228   0.47830   0.77925   0.00000  Uiso   1.00
C749   C     0.46883   0.46117   0.72167   0.00000  Uiso   1.00
C750   C     0.03116   0.53872   0.94501   0.00000  Uiso   1.00
Cu751  Cu    0.25501   0.50579   0.89479   0.00000  Uiso   1.00
Cu752  Cu    0.24500   0.49421   0.77187   0.00000  Uiso   1.00
H753   H     0.02988   0.44304   0.68208   0.00000  Uiso   1.00
H754   H     0.47012   0.55680   0.98461   0.00000  Uiso   1.00
N755   N     0.23745   0.48547   0.67951   0.00000  Uiso   1.00
N756   N     0.26256   0.51453   0.98716   0.00000  Uiso   1.00
O757   O     0.25326   0.42871   0.87326   0.00000  Uiso   1.00
O758   O     0.24675   0.57129   0.79341   0.00000  Uiso   1.00
O759   O     0.24480   0.41892   0.76945   0.00000  Uiso   1.00
O760   O     0.25520   0.58108   0.89721   0.00000  Uiso   1.00
O761   O     0.18936   0.50488   0.88524   0.00000  Uiso   1.00
O762   O     0.31065   0.49512   0.78143   0.00000  Uiso   1.00
O763   O     0.18090   0.49510   0.78143   0.00000  Uiso   1.00
O764   O     0.31910   0.50490   0.88523   0.00000  Uiso   1.00
H765   H     0.39697   0.53815   0.92898   0.00000  Uiso   1.00
H766   H     0.10303   0.46175   0.73771   0.00000  Uiso   1.00
H767   H     0.38019   0.46362   0.73685   0.00000  Uiso   1.00
H768   H     0.11981   0.53640   0.92981   0.00000  Uiso   1.00
O769   O     0.44464   0.44331   0.99825   0.00000  Uiso   1.00
H770   H     0.41917   0.46526   0.99568   0.00000  Uiso   1.00
O771   O     0.05535   0.55652   0.66843   0.00000  Uiso   1.00
H772   H     0.08085   0.53460   0.67096   0.00000  Uiso   1.00
O773   O     0.21497   0.64681   0.75982   0.00000  Uiso   1.00
H774   H     0.20165   0.33636   0.73453   0.00000  Uiso   1.00
O775   O     0.28503   0.35319   0.90685   0.00000  Uiso   1.00
H776   H     0.29835   0.66364   0.93214   0.00000  Uiso   1.00
O777   O     0.20745   0.45112   0.97458   0.00000  Uiso   1.00
H778   H     0.19156   0.43276   0.66824   0.00000  Uiso   1.00
O779   O     0.29255   0.54888   0.69209   0.00000  Uiso   1.00
H780   H     0.30844   0.56724   0.99843   0.00000  Uiso   1.00
C781   C     0.74725   0.40002   0.81800   0.00000  Uiso   1.00
C782   C     0.75275   0.59998   0.84867   0.00000  Uiso   1.00
C783   C     0.51506   0.45882   0.72415   0.00000  Uiso   1.00
C784   C     0.98494   0.54106   0.94254   0.00000  Uiso   1.00
C785   C     0.74108   0.34403   0.81079   0.00000  Uiso   1.00
C786   C     0.75892   0.65597   0.85588   0.00000  Uiso   1.00
C787   C     0.66439   0.49958   0.83371   0.00000  Uiso   1.00
C788   C     0.83561   0.50042   0.83295   0.00000  Uiso   1.00
C789   C     0.91153   0.52205   0.88678   0.00000  Uiso   1.00
C790   C     0.58847   0.47788   0.77990   0.00000  Uiso   1.00
C791   C     0.88398   0.50131   0.83232   0.00000  Uiso   1.00
C792   C     0.61602   0.49867   0.83435   0.00000  Uiso   1.00
C793   C     0.90254   0.48099   0.77762   0.00000  Uiso   1.00
C794   C     0.59746   0.51900   0.88904   0.00000  Uiso   1.00
C795   C     0.94905   0.48128   0.77654   0.00000  Uiso   1.00
C796   C     0.55095   0.51866   0.89013   0.00000  Uiso   1.00
C797   C     0.97670   0.50073   0.83261   0.00000  Uiso   1.00
C798   C     0.52330   0.49921   0.83406   0.00000  Uiso   1.00
C799   C     0.95772   0.52162   0.88743   0.00000  Uiso   1.00
C800   C     0.54228   0.47830   0.77925   0.00000  Uiso   1.00
C801   C     0.96883   0.46117   0.72167   0.00000  Uiso   1.00
C802   C     0.53116   0.53872   0.94501   0.00000  Uiso   1.00
Cu803  Cu    0.75501   0.50579   0.89479   0.00000  Uiso   1.00
Cu804  Cu    0.74500   0.49421   0.77187   0.00000  Uiso   1.00
H805   H     0.52988   0.44304   0.68208   0.00000  Uiso   1.00
H806   H     0.97012   0.55680   0.98461   0.00000  Uiso   1.00
N807   N     0.73745   0.48547   0.67951   0.00000  Uiso   1.00
N808   N     0.76256   0.51453   0.98716   0.00000  Uiso   1.00
O809   O     0.75326   0.42871   0.87326   0.00000  Uiso   1.00
O810   O     0.74675   0.57129   0.79341   0.00000  Uiso   1.00
O811   O     0.74480   0.41892   0.76945   0.00000  Uiso   1.00
O812   O     0.75520   0.58108   0.89721   0.00000  Uiso   1.00
O813   O     0.68936   0.50488   0.88524   0.00000  Uiso   1.00
O814   O     0.81065   0.49512   0.78143   0.00000  Uiso   1.00
O815   O     0.68090   0.49510   0.78143   0.00000  Uiso   1.00
O816   O     0.81910   0.50490   0.88523   0.00000  Uiso   1.00
H817   H     0.89697   0.53815   0.92898   0.00000  Uiso   1.00
H818   H     0.60303   0.46175   0.73771   0.00000  Uiso   1.00
H819   H     0.88019   0.46362   0.73685   0.00000  Uiso   1.00
H820   H     0.61981   0.53640   0.92981   0.00000  Uiso   1.00
O821   O     0.94464   0.44331   0.99825   0.00000  Uiso   1.00
H822   H     0.91917   0.46526   0.99568   0.00000  Uiso   1.00
O823   O     0.55535   0.55652   0.66843   0.00000  Uiso   1.00
H824   H     0.58085   0.53460   0.67096   0.00000  Uiso   1.00
O825   O     0.71497   0.64681   0.75982   0.00000  Uiso   1.00
H826   H     0.70165   0.33636   0.73453   0.00000  Uiso   1.00
O827   O     0.78503   0.35319   0.90685   0.00000  Uiso   1.00
H828   H     0.79835   0.66364   0.93214   0.00000  Uiso   1.00
O829   O     0.70745   0.45112   0.97458   0.00000  Uiso   1.00
H830   H     0.69156   0.43276   0.66824   0.00000  Uiso   1.00
O831   O     0.79255   0.54888   0.69209   0.00000  Uiso   1.00
H832   H     0.80844   0.56724   0.99843   0.00000  Uiso   1.00
C833   C     0.24725   0.73335   0.81800   0.00000  Uiso   1.00
C834   C     0.25275   0.93332   0.84867   0.00000  Uiso   1.00
C835   C     0.01506   0.79216   0.72415   0.00000  Uiso   1.00
C836   C     0.48494   0.87439   0.94254   0.00000  Uiso   1.00
C837   C     0.24108   0.67736   0.81079   0.00000  Uiso   1.00
C838   C     0.25892   0.98931   0.85588   0.00000  Uiso   1.00
C839   C     0.16439   0.83291   0.83371   0.00000  Uiso   1.00
C840   C     0.33561   0.83375   0.83295   0.00000  Uiso   1.00
C841   C     0.41153   0.85538   0.88678   0.00000  Uiso   1.00
C842   C     0.08847   0.81121   0.77990   0.00000  Uiso   1.00
C843   C     0.38398   0.83464   0.83232   0.00000  Uiso   1.00
C844   C     0.11602   0.83200   0.83435   0.00000  Uiso   1.00
C845   C     0.40254   0.81432   0.77762   0.00000  Uiso   1.00
C846   C     0.09746   0.85233   0.88904   0.00000  Uiso   1.00
C847   C     0.44905   0.81462   0.77654   0.00000  Uiso   1.00
C848   C     0.05095   0.85199   0.89013   0.00000  Uiso   1.00
C849   C     0.47670   0.83406   0.83261   0.00000  Uiso   1.00
C850   C     0.02330   0.83254   0.83406   0.00000  Uiso   1.00
C851   C     0.45772   0.85495   0.88743   0.00000  Uiso   1.00
C852   C     0.04228   0.81163   0.77925   0.00000  Uiso   1.00
C853   C     0.46883   0.79450   0.72167   0.00000  Uiso   1.00
C854   C     0.03116   0.87205   0.94501   0.00000  Uiso   1.00
Cu855  Cu    0.25501   0.83913   0.89479   0.00000  Uiso   1.00
Cu856  Cu    0.24500   0.82754   0.77187   0.00000  Uiso   1.00
H857   H     0.02988   0.77637   0.68208   0.00000  Uiso   1.00
H858   H     0.47012   0.89014   0.98461   0.00000  Uiso   1.00
N859   N     0.23745   0.81881   0.67951   0.00000  Uiso   1.00
N860   N     0.26256   0.84786   0.98716   0.00000  Uiso   1.00
O861   O     0.25326   0.76204   0.87326   0.00000  Uiso   1.00
O862   O     0.24675   0.90462   0.79341   0.00000  Uiso   1.00
O863   O     0.24480   0.75226   0.76945   0.00000  Uiso   1.00
O864   O     0.25520   0.91441   0.89721   0.00000  Uiso   1.00
O865   O     0.18936   0.83821   0.88524   0.00000  Uiso   1.00
O866   O     0.31065   0.82845   0.78143   0.00000  Uiso   1.00
O867   O     0.18090   0.82843   0.78143   0.00000  Uiso   1.00
O868   O     0.31910   0.83824   0.88523   0.00000  Uiso   1.00
H869   H     0.39697   0.87149   0.92898   0.00000  Uiso   1.00
H870   H     0.10303   0.79509   0.73771   0.00000  Uiso   1.00
H871   H     0.38019   0.79696   0.73685   0.00000  Uiso   1.00
H872   H     0.11981   0.86973   0.92981   0.00000  Uiso   1.00
O873   O     0.44464   0.77664   0.99825   0.00000  Uiso   1.00
H874   H     0.41917   0.79860   0.99568   0.00000  Uiso   1.00
O875   O     0.05535   0.88986   0.66843   0.00000  Uiso   1.00
H876   H     0.08085   0.86793   0.67096   0.00000  Uiso   1.00
O877   O     0.21497   0.98014   0.75982   0.00000  Uiso   1.00
H878   H     0.20165   0.66970   0.73453   0.00000  Uiso   1.00
O879   O     0.28503   0.68652   0.90685   0.00000  Uiso   1.00
H880   H     0.29835   0.99697   0.93214   0.00000  Uiso   1.00
O881   O     0.20745   0.78445   0.97458   0.00000  Uiso   1.00
H882   H     0.19156   0.76610   0.66824   0.00000  Uiso   1.00
O883   O     0.29255   0.88221   0.69209   0.00000  Uiso   1.00
H884   H     0.30844   0.90057   0.99843   0.00000  Uiso   1.00
C885   C     0.74725   0.73335   0.81800   0.00000  Uiso   1.00
C886   C     0.75275   0.93332   0.84867   0.00000  Uiso   1.00
C887   C     0.51506   0.79216   0.72415   0.00000  Uiso   1.00
C888   C     0.98494   0.87439   0.94254   0.00000  Uiso   1.00
C889   C     0.74108   0.67736   0.81079   0.00000  Uiso   1.00
C890   C     0.75892   0.98931   0.85588   0.00000  Uiso   1.00
C891   C     0.66439   0.83291   0.83371   0.00000  Uiso   1.00
C892   C     0.83561   0.83375   0.83295   0.00000  Uiso   1.00
C893   C     0.91153   0.85538   0.88678   0.00000  Uiso   1.00
C894   C     0.58847   0.81121   0.77990   0.00000  Uiso   1.00
C895   C     0.88398   0.83464   0.83232   0.00000  Uiso   1.00
C896   C     0.61602   0.83200   0.83435   0.00000  Uiso   1.00
C897   C     0.90254   0.81432   0.77762   0.00000  Uiso   1.00
C898   C     0.59746   0.85233   0.88904   0.00000  Uiso   1.00
C899   C     0.94905   0.81462   0.77654   0.00000  Uiso   1.00
C900   C     0.55095   0.85199   0.89013   0.00000  Uiso   1.00
C901   C     0.97670   0.83406   0.83261   0.00000  Uiso   1.00
C902   C     0.52330   0.83254   0.83406   0.00000  Uiso   1.00
C903   C     0.95772   0.85495   0.88743   0.00000  Uiso   1.00
C904   C     0.54228   0.81163   0.77925   0.00000  Uiso   1.00
C905   C     0.96883   0.79450   0.72167   0.00000  Uiso   1.00
C906   C     0.53116   0.87205   0.94501   0.00000  Uiso   1.00
Cu907  Cu    0.75501   0.83913   0.89479   0.00000  Uiso   1.00
Cu908  Cu    0.74500   0.82754   0.77187   0.00000  Uiso   1.00
H909   H     0.52988   0.77637   0.68208   0.00000  Uiso   1.00
H910   H     0.97012   0.89014   0.98461   0.00000  Uiso   1.00
N911   N     0.73745   0.81881   0.67951   0.00000  Uiso   1.00
N912   N     0.76256   0.84786   0.98716   0.00000  Uiso   1.00
O913   O     0.75326   0.76204   0.87326   0.00000  Uiso   1.00
O914   O     0.74675   0.90462   0.79341   0.00000  Uiso   1.00
O915   O     0.74480   0.75226   0.76945   0.00000  Uiso   1.00
O916   O     0.75520   0.91441   0.89721   0.00000  Uiso   1.00
O917   O     0.68936   0.83821   0.88524   0.00000  Uiso   1.00
O918   O     0.81065   0.82845   0.78143   0.00000  Uiso   1.00
O919   O     0.68090   0.82843   0.78143   0.00000  Uiso   1.00
O920   O     0.81910   0.83824   0.88523   0.00000  Uiso   1.00
H921   H     0.89697   0.87149   0.92898   0.00000  Uiso   1.00
H922   H     0.60303   0.79509   0.73771   0.00000  Uiso   1.00
H923   H     0.88019   0.79696   0.73685   0.00000  Uiso   1.00
H924   H     0.61981   0.86973   0.92981   0.00000  Uiso   1.00
O925   O     0.94464   0.77664   0.99825   0.00000  Uiso   1.00
H926   H     0.91917   0.79860   0.99568   0.00000  Uiso   1.00
O927   O     0.55535   0.88986   0.66843   0.00000  Uiso   1.00
H928   H     0.58085   0.86793   0.67096   0.00000  Uiso   1.00
O929   O     0.71497   0.98014   0.75982   0.00000  Uiso   1.00
H930   H     0.70165   0.66970   0.73453   0.00000  Uiso   1.00
O931   O     0.78503   0.68652   0.90685   0.00000  Uiso   1.00
H932   H     0.79835   0.99697   0.93214   0.00000  Uiso   1.00
O933   O     0.70745   0.78445   0.97458   0.00000  Uiso   1.00
H934   H     0.69156   0.76610   0.66824   0.00000  Uiso   1.00
O935   O     0.79255   0.88221   0.69209   0.00000  Uiso   1.00
H936   H     0.80844   0.90057   0.99843   0.00000  Uiso   1.00
loop_
_geom_bond_atom_site_label_1
_geom_bond_atom_site_label_2
_geom_bond_distance
_geom_bond_site_symmetry_2
_ccdc_geom_bond_type
C1     O31     1.291   .     A
C1     O29     1.289   .     A
C1     C5      1.439   .     S
C2     O30     1.289   .     A
C2     C6      1.439   .     S
C2     O32     1.291   .     A
C3     C20     1.398   .     A
C3     H25     1.085   .     S
C3     C73     1.392   1_455 S
C4     H26     1.085   .     S
C4     C19     1.398   .     A
C4     C74     1.392   .     S
C5     C214    1.348   1_545 S
C5     O253    1.389   1_545 S
C6     C109    1.348   .     S
C6     O151    1.389   .     S
C7     O33     1.298   .     A
C7     C12     1.455   .     S
C7     O35     1.295   .     A
C8     O34     1.298   .     A
C8     C11     1.455   .     S
C8     O36     1.295   .     A
C9     H37     1.085   .     S
C9     C11     1.397   .     A
C9     C19     1.389   .     A
C10    H38     1.085   .     S
C10    C12     1.397   .     A
C10    C20     1.389   .     A
C11    C13     1.399   .     A
C12    C14     1.399   .     A
C13    C15     1.401   .     A
C13    H39     1.081   .     S
C14    C16     1.401   .     A
C14    H40     1.081   .     S
C15    C21     1.419   .     A
C15    C17     1.420   .     A
C16    C18     1.420   .     A
C16    C22     1.419   .     A
C17    C19     1.410   .     A
C17    C70     1.402   .     S
C18    C20     1.410   .     A
C18    C69     1.402   1_455 S
C21    C55     1.392   .     S
C21    O665    1.380   1_554 S
C22    C56     1.392   1_455 S
C22    O355    1.380   .     S
Cu23   O32     1.961   .     S
Cu23   N28     2.023   .     S
Cu23   O29     1.965   .     S
Cu23   O36     1.959   .     S
Cu23   Cu24    2.692   .     S
Cu23   O33     1.966   .     S
Cu24   N27     2.023   .     S
Cu24   O31     1.961   .     S
Cu24   O35     1.959   .     S
Cu24   O30     1.965   .     S
Cu24   O34     1.966   .     S
N27    N652    1.299   1_554 S
N27    O673    1.338   1_554 S
N28    N339    1.299   .     S
N28    O363    1.338   .     S
O41    H42     0.989   .     S
O41    C333    1.380   .     S
O43    H44     0.989   .     S
O43    C646    1.380   1_554 S
O45    C109    1.389   .     S
O45    H150    0.991   .     S
H46    O253    0.991   1_545 S
O47    C214    1.389   1_545 S
O47    H256    0.991   1_545 S
H48    O151    0.991   .     S
O49    N339    1.338   .     S
O49    H362    0.990   .     S
H50    O673    0.990   1_554 S
O51    N652    1.338   1_554 S
O51    H676    0.990   1_554 S
H52    O363    0.990   .     S
C53    O83     1.291   .     A
C53    O81     1.289   .     A
C53    C57     1.439   .     S
C54    O82     1.289   .     A
C54    C58     1.439   .     S
C54    O84     1.291   .     A
C55    C72     1.398   .     A
C55    H77     1.085   .     S
C56    H78     1.085   .     S
C56    C71     1.398   .     A
C56    C22     1.392   1_655 S
C57    C266    1.348   1_545 S
C57    O305    1.389   1_545 S
C58    C161    1.348   .     S
C58    O203    1.389   .     S
C59    O85     1.298   .     A
C59    C64     1.455   .     S
C59    O87     1.295   .     A
C60    O86     1.298   .     A
C60    C63     1.455   .     S
C60    O88     1.295   .     A
C61    H89     1.085   .     S
C61    C63     1.397   .     A
C61    C71     1.389   .     A
C62    H90     1.085   .     S
C62    C64     1.397   .     A
C62    C72     1.389   .     A
C63    C65     1.399   .     A
C64    C66     1.399   .     A
C65    C67     1.401   .     A
C65    H91     1.081   .     S
C66    C68     1.401   .     A
C66    H92     1.081   .     S
C67    C73     1.419   .     A
C67    C69     1.420   .     A
C68    C70     1.420   .     A
C68    C74     1.419   .     A
C69    C71     1.410   .     A
C69    C18     1.402   1_655 S
C70    C72     1.410   .     A
C73    C3      1.392   1_655 S
C73    O717    1.380   1_554 S
C74    O407    1.380   .     S
Cu75   O84     1.961   .     S
Cu75   N80     2.023   .     S
Cu75   O81     1.965   .     S
Cu75   O88     1.959   .     S
Cu75   Cu76    2.692   .     S
Cu75   O85     1.966   .     S
Cu76   N79     2.023   .     S
Cu76   O83     1.961   .     S
Cu76   O87     1.959   .     S
Cu76   O82     1.965   .     S
Cu76   O86     1.966   .     S
N79    N704    1.299   1_554 S
N79    O725    1.338   1_554 S
N80    N391    1.299   .     S
N80    O415    1.338   .     S
O93    H94     0.989   .     S
O93    C385    1.380   .     S
O95    H96     0.989   .     S
O95    C698    1.380   1_554 S
O97    C161    1.389   .     S
O97    H202    0.991   .     S
H98    O305    0.991   1_545 S
O99    C266    1.389   1_545 S
O99    H308    0.991   1_545 S
H100   O203    0.991   .     S
O101   N391    1.338   .     S
O101   H414    0.990   .     S
H102   O725    0.990   1_554 S
O103   N704    1.338   1_554 S
O103   H728    0.990   1_554 S
H104   O415    0.990   .     S
C105   O135    1.291   .     A
C105   O133    1.289   .     A
C105   C109    1.439   .     S
C106   O134    1.289   .     A
C106   C110    1.439   .     S
C106   O136    1.291   .     A
C107   C124    1.398   .     A
C107   H129    1.085   .     S
C107   C177    1.392   1_455 S
C108   H130    1.085   .     S
C108   C123    1.398   .     A
C108   C178    1.392   .     S
C110   C213    1.348   .     S
C110   O255    1.389   .     S
C111   O137    1.298   .     A
C111   C116    1.455   .     S
C111   O139    1.295   .     A
C112   O138    1.298   .     A
C112   C115    1.455   .     S
C112   O140    1.295   .     A
C113   H141    1.085   .     S
C113   C115    1.397   .     A
C113   C123    1.389   .     A
C114   H142    1.085   .     S
C114   C116    1.397   .     A
C114   C124    1.389   .     A
C115   C117    1.399   .     A
C116   C118    1.399   .     A
C117   C119    1.401   .     A
C117   H143    1.081   .     S
C118   C120    1.401   .     A
C118   H144    1.081   .     S
C119   C125    1.419   .     A
C119   C121    1.420   .     A
C120   C122    1.420   .     A
C120   C126    1.419   .     A
C121   C123    1.410   .     A
C121   C174    1.402   .     S
C122   C124    1.410   .     A
C122   C173    1.402   1_455 S
C125   C159    1.392   .     S
C125   O769    1.380   1_554 S
C126   C160    1.392   1_455 S
C126   O459    1.380   .     S
Cu127  O136    1.961   .     S
Cu127  N132    2.023   .     S
Cu127  O133    1.965   .     S
Cu127  O140    1.959   .     S
Cu127  Cu128   2.692   .     S
Cu127  O137    1.966   .     S
Cu128  N131    2.023   .     S
Cu128  O135    1.961   .     S
Cu128  O139    1.959   .     S
Cu128  O134    1.965   .     S
Cu128  O138    1.966   .     S
N131   N756    1.299   1_554 S
N131   O777    1.338   1_554 S
N132   N443    1.299   .     S
N132   O467    1.338   .     S
O145   H146    0.989   .     S
O145   C437    1.380   .     S
O147   H148    0.989   .     S
O147   C750    1.380   1_554 S
O149   C213    1.389   .     S
O149   H254    0.991   .     S
H152   O255    0.991   .     S
O153   N443    1.338   .     S
O153   H466    0.990   .     S
H154   O777    0.990   1_554 S
O155   N756    1.338   1_554 S
O155   H780    0.990   1_554 S
H156   O467    0.990   .     S
C157   O187    1.291   .     A
C157   O185    1.289   .     A
C157   C161    1.439   .     S
C158   O186    1.289   .     A
C158   C162    1.439   .     S
C158   O188    1.291   .     A
C159   C176    1.398   .     A
C159   H181    1.085   .     S
C160   H182    1.085   .     S
C160   C175    1.398   .     A
C160   C126    1.392   1_655 S
C162   C265    1.348   .     S
C162   O307    1.389   .     S
C163   O189    1.298   .     A
C163   C168    1.455   .     S
C163   O191    1.295   .     A
C164   O190    1.298   .     A
C164   C167    1.455   .     S
C164   O192    1.295   .     A
C165   H193    1.085   .     S
C165   C167    1.397   .     A
C165   C175    1.389   .     A
C166   H194    1.085   .     S
C166   C168    1.397   .     A
C166   C176    1.389   .     A
C167   C169    1.399   .     A
C168   C170    1.399   .     A
C169   C171    1.401   .     A
C169   H195    1.081   .     S
C170   C172    1.401   .     A
C170   H196    1.081   .     S
C171   C177    1.419   .     A
C171   C173    1.420   .     A
C172   C174    1.420   .     A
C172   C178    1.419   .     A
C173   C175    1.410   .     A
C173   C122    1.402   1_655 S
C174   C176    1.410   .     A
C177   C107    1.392   1_655 S
C177   O821    1.380   1_554 S
C178   O511    1.380   .     S
Cu179  O188    1.961   .     S
Cu179  N184    2.023   .     S
Cu179  O185    1.965   .     S
Cu179  O192    1.959   .     S
Cu179  Cu180   2.692   .     S
Cu179  O189    1.966   .     S
Cu180  N183    2.023   .     S
Cu180  O187    1.961   .     S
Cu180  O191    1.959   .     S
Cu180  O186    1.965   .     S
Cu180  O190    1.966   .     S
N183   N808    1.299   1_554 S
N183   O829    1.338   1_554 S
N184   N495    1.299   .     S
N184   O519    1.338   .     S
O197   H198    0.989   .     S
O197   C489    1.380   .     S
O199   H200    0.989   .     S
O199   C802    1.380   1_554 S
O201   C265    1.389   .     S
O201   H306    0.991   .     S
H204   O307    0.991   .     S
O205   N495    1.338   .     S
O205   H518    0.990   .     S
H206   O829    0.990   1_554 S
O207   N808    1.338   1_554 S
O207   H832    0.990   1_554 S
H208   O519    0.990   .     S
C209   O239    1.291   .     A
C209   O237    1.289   .     A
C209   C213    1.439   .     S
C210   O238    1.289   .     A
C210   C214    1.439   .     S
C210   O240    1.291   .     A
C211   C228    1.398   .     A
C211   H233    1.085   .     S
C211   C281    1.392   1_455 S
C212   H234    1.085   .     S
C212   C227    1.398   .     A
C212   C282    1.392   .     S
C214   C5      1.348   1_565 S
C214   O47     1.389   1_565 S
C215   O241    1.298   .     A
C215   C220    1.455   .     S
C215   O243    1.295   .     A
C216   O242    1.298   .     A
C216   C219    1.455   .     S
C216   O244    1.295   .     A
C217   H245    1.085   .     S
C217   C219    1.397   .     A
C217   C227    1.389   .     A
C218   H246    1.085   .     S
C218   C220    1.397   .     A
C218   C228    1.389   .     A
C219   C221    1.399   .     A
C220   C222    1.399   .     A
C221   C223    1.401   .     A
C221   H247    1.081   .     S
C222   C224    1.401   .     A
C222   H248    1.081   .     S
C223   C229    1.419   .     A
C223   C225    1.420   .     A
C224   C226    1.420   .     A
C224   C230    1.419   .     A
C225   C227    1.410   .     A
C225   C278    1.402   .     S
C226   C228    1.410   .     A
C226   C277    1.402   1_455 S
C229   C263    1.392   .     S
C229   O873    1.380   1_554 S
C230   C264    1.392   1_455 S
C230   O563    1.380   .     S
Cu231  O240    1.961   .     S
Cu231  N236    2.023   .     S
Cu231  O237    1.965   .     S
Cu231  O244    1.959   .     S
Cu231  Cu232   2.692   .     S
Cu231  O241    1.966   .     S
Cu232  N235    2.023   .     S
Cu232  O239    1.961   .     S
Cu232  O243    1.959   .     S
Cu232  O238    1.965   .     S
Cu232  O242    1.966   .     S
N235   N860    1.299   1_554 S
N235   O881    1.338   1_554 S
N236   N547    1.299   .     S
N236   O571    1.338   .     S
O249   H250    0.989   .     S
O249   C541    1.380   .     S
O251   H252    0.989   .     S
O251   C854    1.380   1_554 S
O253   C5      1.389   1_565 S
O253   H46     0.991   1_565 S
H256   O47     0.991   1_565 S
O257   N547    1.338   .     S
O257   H570    0.990   .     S
H258   O881    0.990   1_554 S
O259   N860    1.338   1_554 S
O259   H884    0.990   1_554 S
H260   O571    0.990   .     S
C261   O291    1.291   .     A
C261   O289    1.289   .     A
C261   C265    1.439   .     S
C262   O290    1.289   .     A
C262   C266    1.439   .     S
C262   O292    1.291   .     A
C263   C280    1.398   .     A
C263   H285    1.085   .     S
C264   H286    1.085   .     S
C264   C279    1.398   .     A
C264   C230    1.392   1_655 S
C266   C57     1.348   1_565 S
C266   O99     1.389   1_565 S
C267   O293    1.298   .     A
C267   C272    1.455   .     S
C267   O295    1.295   .     A
C268   O294    1.298   .     A
C268   C271    1.455   .     S
C268   O296    1.295   .     A
C269   H297    1.085   .     S
C269   C271    1.397   .     A
C269   C279    1.389   .     A
C270   H298    1.085   .     S
C270   C272    1.397   .     A
C270   C280    1.389   .     A
C271   C273    1.399   .     A
C272   C274    1.399   .     A
C273   C275    1.401   .     A
C273   H299    1.081   .     S
C274   C276    1.401   .     A
C274   H300    1.081   .     S
C275   C281    1.419   .     A
C275   C277    1.420   .     A
C276   C278    1.420   .     A
C276   C282    1.419   .     A
C277   C279    1.410   .     A
C277   C226    1.402   1_655 S
C278   C280    1.410   .     A
C281   C211    1.392   1_655 S
C281   O925    1.380   1_554 S
C282   O615    1.380   .     S
Cu283  O292    1.961   .     S
Cu283  N288    2.023   .     S
Cu283  O289    1.965   .     S
Cu283  O296    1.959   .     S
Cu283  Cu284   2.692   .     S
Cu283  O293    1.966   .     S
Cu284  N287    2.023   .     S
Cu284  O291    1.961   .     S
Cu284  O295    1.959   .     S
Cu284  O290    1.965   .     S
Cu284  O294    1.966   .     S
N287   N912    1.299   1_554 S
N287   O933    1.338   1_554 S
N288   N599    1.299   .     S
N288   O623    1.338   .     S
O301   H302    0.989   .     S
O301   C593    1.380   .     S
O303   H304    0.989   .     S
O303   C906    1.380   1_554 S
O305   C57     1.389   1_565 S
O305   H98     0.991   1_565 S
H308   O99     0.991   1_565 S
O309   N599    1.338   .     S
O309   H622    0.990   .     S
H310   O933    0.990   1_554 S
O311   N912    1.338   1_554 S
O311   H936    0.990   1_554 S
H312   O623    0.990   .     S
C313   O343    1.291   .     A
C313   O341    1.289   .     A
C313   C317    1.439   .     S
C314   O342    1.289   .     A
C314   C318    1.439   .     S
C314   O344    1.291   .     A
C315   C332    1.398   .     A
C315   H337    1.085   .     S
C315   C385    1.392   1_455 S
C316   H338    1.085   .     S
C316   C331    1.398   .     A
C316   C386    1.392   .     S
C317   C526    1.348   1_545 S
C317   O565    1.389   1_545 S
C318   C421    1.348   .     S
C318   O463    1.389   .     S
C319   O345    1.298   .     A
C319   C324    1.455   .     S
C319   O347    1.295   .     A
C320   O346    1.298   .     A
C320   C323    1.455   .     S
C320   O348    1.295   .     A
C321   H349    1.085   .     S
C321   C323    1.397   .     A
C321   C331    1.389   .     A
C322   H350    1.085   .     S
C322   C324    1.397   .     A
C322   C332    1.389   .     A
C323   C325    1.399   .     A
C324   C326    1.399   .     A
C325   C327    1.401   .     A
C325   H351    1.081   .     S
C326   C328    1.401   .     A
C326   H352    1.081   .     S
C327   C333    1.419   .     A
C327   C329    1.420   .     A
C328   C330    1.420   .     A
C328   C334    1.419   .     A
C329   C331    1.410   .     A
C329   C382    1.402   .     S
C330   C332    1.410   .     A
C330   C381    1.402   1_455 S
C333   C367    1.392   .     S
C334   C368    1.392   1_455 S
C334   O667    1.380   .     S
Cu335  O344    1.961   .     S
Cu335  N340    2.023   .     S
Cu335  O341    1.965   .     S
Cu335  O348    1.959   .     S
Cu335  Cu336   2.692   .     S
Cu335  O345    1.966   .     S
Cu336  N339    2.023   .     S
Cu336  O343    1.961   .     S
Cu336  O347    1.959   .     S
Cu336  O342    1.965   .     S
Cu336  O346    1.966   .     S
N340   N651    1.299   .     S
N340   O675    1.338   .     S
O353   H354    0.989   .     S
O353   C645    1.380   .     S
O355   H356    0.989   .     S
O357   C421    1.389   .     S
O357   H462    0.991   .     S
H358   O565    0.991   1_545 S
O359   C526    1.389   1_545 S
O359   H568    0.991   1_545 S
H360   O463    0.991   .     S
O361   N651    1.338   .     S
O361   H674    0.990   .     S
H364   O675    0.990   .     S
C365   O395    1.291   .     A
C365   O393    1.289   .     A
C365   C369    1.439   .     S
C366   O394    1.289   .     A
C366   C370    1.439   .     S
C366   O396    1.291   .     A
C367   C384    1.398   .     A
C367   H389    1.085   .     S
C368   H390    1.085   .     S
C368   C383    1.398   .     A
C368   C334    1.392   1_655 S
C369   C578    1.348   1_545 S
C369   O617    1.389   1_545 S
C370   C473    1.348   .     S
C370   O515    1.389   .     S
C371   O397    1.298   .     A
C371   C376    1.455   .     S
C371   O399    1.295   .     A
C372   O398    1.298   .     A
C372   C375    1.455   .     S
C372   O400    1.295   .     A
C373   H401    1.085   .     S
C373   C375    1.397   .     A
C373   C383    1.389   .     A
C374   H402    1.085   .     S
C374   C376    1.397   .     A
C374   C384    1.389   .     A
C375   C377    1.399   .     A
C376   C378    1.399   .     A
C377   C379    1.401   .     A
C377   H403    1.081   .     S
C378   C380    1.401   .     A
C378   H404    1.081   .     S
C379   C385    1.419   .     A
C379   C381    1.420   .     A
C380   C382    1.420   .     A
C380   C386    1.419   .     A
C381   C383    1.410   .     A
C381   C330    1.402   1_655 S
C382   C384    1.410   .     A
C385   C315    1.392   1_655 S
C386   O719    1.380   .     S
Cu387  O396    1.961   .     S
Cu387  N392    2.023   .     S
Cu387  O393    1.965   .     S
Cu387  O400    1.959   .     S
Cu387  Cu388   2.692   .     S
Cu387  O397    1.966   .     S
Cu388  N391    2.023   .     S
Cu388  O395    1.961   .     S
Cu388  O399    1.959   .     S
Cu388  O394    1.965   .     S
Cu388  O398    1.966   .     S
N392   N703    1.299   .     S
N392   O727    1.338   .     S
O405   H406    0.989   .     S
O405   C697    1.380   .     S
O407   H408    0.989   .     S
O409   C473    1.389   .     S
O409   H514    0.991   .     S
H410   O617    0.991   1_545 S
O411   C578    1.389   1_545 S
O411   H620    0.991   1_545 S
H412   O515    0.991   .     S
O413   N703    1.338   .     S
O413   H726    0.990   .     S
H416   O727    0.990   .     S
C417   O447    1.291   .     A
C417   O445    1.289   .     A
C417   C421    1.439   .     S
C418   O446    1.289   .     A
C418   C422    1.439   .     S
C418   O448    1.291   .     A
C419   C436    1.398   .     A
C419   H441    1.085   .     S
C419   C489    1.392   1_455 S
C420   H442    1.085   .     S
C420   C435    1.398   .     A
C420   C490    1.392   .     S
C422   C525    1.348   .     S
C422   O567    1.389   .     S
C423   O449    1.298   .     A
C423   C428    1.455   .     S
C423   O451    1.295   .     A
C424   O450    1.298   .     A
C424   C427    1.455   .     S
C424   O452    1.295   .     A
C425   H453    1.085   .     S
C425   C427    1.397   .     A
C425   C435    1.389   .     A
C426   H454    1.085   .     S
C426   C428    1.397   .     A
C426   C436    1.389   .     A
C427   C429    1.399   .     A
C428   C430    1.399   .     A
C429   C431    1.401   .     A
C429   H455    1.081   .     S
C430   C432    1.401   .     A
C430   H456    1.081   .     S
C431   C437    1.419   .     A
C431   C433    1.420   .     A
C432   C434    1.420   .     A
C432   C438    1.419   .     A
C433   C435    1.410   .     A
C433   C486    1.402   .     S
C434   C436    1.410   .     A
C434   C485    1.402   1_455 S
C437   C471    1.392   .     S
C438   C472    1.392   1_455 S
C438   O771    1.380   .     S
Cu439  O448    1.961   .     S
Cu439  N444    2.023   .     S
Cu439  O445    1.965   .     S
Cu439  O452    1.959   .     S
Cu439  Cu440   2.692   .     S
Cu439  O449    1.966   .     S
Cu440  N443    2.023   .     S
Cu440  O447    1.961   .     S
Cu440  O451    1.959   .     S
Cu440  O446    1.965   .     S
Cu440  O450    1.966   .     S
N444   N755    1.299   .     S
N444   O779    1.338   .     S
O457   H458    0.989   .     S
O457   C749    1.380   .     S
O459   H460    0.989   .     S
O461   C525    1.389   .     S
O461   H566    0.991   .     S
H464   O567    0.991   .     S
O465   N755    1.338   .     S
O465   H778    0.990   .     S
H468   O779    0.990   .     S
C469   O499    1.291   .     A
C469   O497    1.289   .     A
C469   C473    1.439   .     S
C470   O498    1.289   .     A
C470   C474    1.439   .     S
C470   O500    1.291   .     A
C471   C488    1.398   .     A
C471   H493    1.085   .     S
C472   H494    1.085   .     S
C472   C487    1.398   .     A
C472   C438    1.392   1_655 S
C474   C577    1.348   .     S
C474   O619    1.389   .     S
C475   O501    1.298   .     A
C475   C480    1.455   .     S
C475   O503    1.295   .     A
C476   O502    1.298   .     A
C476   C479    1.455   .     S
C476   O504    1.295   .     A
C477   H505    1.085   .     S
C477   C479    1.397   .     A
C477   C487    1.389   .     A
C478   H506    1.085   .     S
C478   C480    1.397   .     A
C478   C488    1.389   .     A
C479   C481    1.399   .     A
C480   C482    1.399   .     A
C481   C483    1.401   .     A
C481   H507    1.081   .     S
C482   C484    1.401   .     A
C482   H508    1.081   .     S
C483   C489    1.419   .     A
C483   C485    1.420   .     A
C484   C486    1.420   .     A
C484   C490    1.419   .     A
C485   C487    1.410   .     A
C485   C434    1.402   1_655 S
C486   C488    1.410   .     A
C489   C419    1.392   1_655 S
C490   O823    1.380   .     S
Cu491  O500    1.961   .     S
Cu491  N496    2.023   .     S
Cu491  O497    1.965   .     S
Cu491  O504    1.959   .     S
Cu491  Cu492   2.692   .     S
Cu491  O501    1.966   .     S
Cu492  N495    2.023   .     S
Cu492  O499    1.961   .     S
Cu492  O503    1.959   .     S
Cu492  O498    1.965   .     S
Cu492  O502    1.966   .     S
N496   N807    1.299   .     S
N496   O831    1.338   .     S
O509   H510    0.989   .     S
O509   C801    1.380   .     S
O511   H512    0.989   .     S
O513   C577    1.389   .     S
O513   H618    0.991   .     S
H516   O619    0.991   .     S
O517   N807    1.338   .     S
O517   H830    0.990   .     S
H520   O831    0.990   .     S
C521   O551    1.291   .     A
C521   O549    1.289   .     A
C521   C525    1.439   .     S
C522   O550    1.289   .     A
C522   C526    1.439   .     S
C522   O552    1.291   .     A
C523   C540    1.398   .     A
C523   H545    1.085   .     S
C523   C593    1.392   1_455 S
C524   H546    1.085   .     S
C524   C539    1.398   .     A
C524   C594    1.392   .     S
C526   C317    1.348   1_565 S
C526   O359    1.389   1_565 S
C527   O553    1.298   .     A
C527   C532    1.455   .     S
C527   O555    1.295   .     A
C528   O554    1.298   .     A
C528   C531    1.455   .     S
C528   O556    1.295   .     A
C529   H557    1.085   .     S
C529   C531    1.397   .     A
C529   C539    1.389   .     A
C530   H558    1.085   .     S
C530   C532    1.397   .     A
C530   C540    1.389   .     A
C531   C533    1.399   .     A
C532   C534    1.399   .     A
C533   C535    1.401   .     A
C533   H559    1.081   .     S
C534   C536    1.401   .     A
C534   H560    1.081   .     S
C535   C541    1.419   .     A
C535   C537    1.420   .     A
C536   C538    1.420   .     A
C536   C542    1.419   .     A
C537   C539    1.410   .     A
C537   C590    1.402   .     S
C538   C540    1.410   .     A
C538   C589    1.402   1_455 S
C541   C575    1.392   .     S
C542   C576    1.392   1_455 S
C542   O875    1.380   .     S
Cu543  O552    1.961   .     S
Cu543  N548    2.023   .     S
Cu543  O549    1.965   .     S
Cu543  O556    1.959   .     S
Cu543  Cu544   2.692   .     S
Cu543  O553    1.966   .     S
Cu544  N547    2.023   .     S
Cu544  O551    1.961   .     S
Cu544  O555    1.959   .     S
Cu544  O550    1.965   .     S
Cu544  O554    1.966   .     S
N548   N859    1.299   .     S
N548   O883    1.338   .     S
O561   H562    0.989   .     S
O561   C853    1.380   .     S
O563   H564    0.989   .     S
O565   C317    1.389   1_565 S
O565   H358    0.991   1_565 S
H568   O359    0.991   1_565 S
O569   N859    1.338   .     S
O569   H882    0.990   .     S
H572   O883    0.990   .     S
C573   O603    1.291   .     A
C573   O601    1.289   .     A
C573   C577    1.439   .     S
C574   O602    1.289   .     A
C574   C578    1.439   .     S
C574   O604    1.291   .     A
C575   C592    1.398   .     A
C575   H597    1.085   .     S
C576   H598    1.085   .     S
C576   C591    1.398   .     A
C576   C542    1.392   1_655 S
C578   C369    1.348   1_565 S
C578   O411    1.389   1_565 S
C579   O605    1.298   .     A
C579   C584    1.455   .     S
C579   O607    1.295   .     A
C580   O606    1.298   .     A
C580   C583    1.455   .     S
C580   O608    1.295   .     A
C581   H609    1.085   .     S
C581   C583    1.397   .     A
C581   C591    1.389   .     A
C582   H610    1.085   .     S
C582   C584    1.397   .     A
C582   C592    1.389   .     A
C583   C585    1.399   .     A
C584   C586    1.399   .     A
C585   C587    1.401   .     A
C585   H611    1.081   .     S
C586   C588    1.401   .     A
C586   H612    1.081   .     S
C587   C593    1.419   .     A
C587   C589    1.420   .     A
C588   C590    1.420   .     A
C588   C594    1.419   .     A
C589   C591    1.410   .     A
C589   C538    1.402   1_655 S
C590   C592    1.410   .     A
C593   C523    1.392   1_655 S
C594   O927    1.380   .     S
Cu595  O604    1.961   .     S
Cu595  N600    2.023   .     S
Cu595  O601    1.965   .     S
Cu595  O608    1.959   .     S
Cu595  Cu596   2.692   .     S
Cu595  O605    1.966   .     S
Cu596  N599    2.023   .     S
Cu596  O603    1.961   .     S
Cu596  O607    1.959   .     S
Cu596  O602    1.965   .     S
Cu596  O606    1.966   .     S
N600   N911    1.299   .     S
N600   O935    1.338   .     S
O613   H614    0.989   .     S
O613   C905    1.380   .     S
O615   H616    0.989   .     S
O617   C369    1.389   1_565 S
O617   H410    0.991   1_565 S
H620   O411    0.991   1_565 S
O621   N911    1.338   .     S
O621   H934    0.990   .     S
H624   O935    0.990   .     S
C625   O655    1.291   .     A
C625   O653    1.289   .     A
C625   C629    1.439   .     S
C626   O654    1.289   .     A
C626   C630    1.439   .     S
C626   O656    1.291   .     A
C627   C644    1.398   .     A
C627   H649    1.085   .     S
C627   C697    1.392   1_455 S
C628   H650    1.085   .     S
C628   C643    1.398   .     A
C628   C698    1.392   .     S
C629   C838    1.348   1_545 S
C629   O877    1.389   1_545 S
C630   C733    1.348   .     S
C630   O775    1.389   .     S
C631   O657    1.298   .     A
C631   C636    1.455   .     S
C631   O659    1.295   .     A
C632   O658    1.298   .     A
C632   C635    1.455   .     S
C632   O660    1.295   .     A
C633   H661    1.085   .     S
C633   C635    1.397   .     A
C633   C643    1.389   .     A
C634   H662    1.085   .     S
C634   C636    1.397   .     A
C634   C644    1.389   .     A
C635   C637    1.399   .     A
C636   C638    1.399   .     A
C637   C639    1.401   .     A
C637   H663    1.081   .     S
C638   C640    1.401   .     A
C638   H664    1.081   .     S
C639   C645    1.419   .     A
C639   C641    1.420   .     A
C640   C642    1.420   .     A
C640   C646    1.419   .     A
C641   C643    1.410   .     A
C641   C694    1.402   .     S
C642   C644    1.410   .     A
C642   C693    1.402   1_455 S
C645   C679    1.392   .     S
C646   C680    1.392   1_455 S
C646   O43     1.380   1_556 S
Cu647  O656    1.961   .     S
Cu647  N652    2.023   .     S
Cu647  O653    1.965   .     S
Cu647  O660    1.959   .     S
Cu647  Cu648   2.692   .     S
Cu647  O657    1.966   .     S
Cu648  N651    2.023   .     S
Cu648  O655    1.961   .     S
Cu648  O659    1.959   .     S
Cu648  O654    1.965   .     S
Cu648  O658    1.966   .     S
N652   N27     1.299   1_556 S
N652   O51     1.338   1_556 S
O665   H666    0.989   .     S
O665   C21     1.380   1_556 S
O667   H668    0.989   .     S
O669   C733    1.389   .     S
O669   H774    0.991   .     S
H670   O877    0.991   1_545 S
O671   C838    1.389   1_545 S
O671   H880    0.991   1_545 S
H672   O775    0.991   .     S
O673   N27     1.338   1_556 S
O673   H50     0.990   1_556 S
H676   O51     0.990   1_556 S
C677   O707    1.291   .     A
C677   O705    1.289   .     A
C677   C681    1.439   .     S
C678   O706    1.289   .     A
C678   C682    1.439   .     S
C678   O708    1.291   .     A
C679   C696    1.398   .     A
C679   H701    1.085   .     S
C680   H702    1.085   .     S
C680   C695    1.398   .     A
C680   C646    1.392   1_655 S
C681   C890    1.348   1_545 S
C681   O929    1.389   1_545 S
C682   C785    1.348   .     S
C682   O827    1.389   .     S
C683   O709    1.298   .     A
C683   C688    1.455   .     S
C683   O711    1.295   .     A
C684   O710    1.298   .     A
C684   C687    1.455   .     S
C684   O712    1.295   .     A
C685   H713    1.085   .     S
C685   C687    1.397   .     A
C685   C695    1.389   .     A
C686   H714    1.085   .     S
C686   C688    1.397   .     A
C686   C696    1.389   .     A
C687   C689    1.399   .     A
C688   C690    1.399   .     A
C689   C691    1.401   .     A
C689   H715    1.081   .     S
C690   C692    1.401   .     A
C690   H716    1.081   .     S
C691   C697    1.419   .     A
C691   C693    1.420   .     A
C692   C694    1.420   .     A
C692   C698    1.419   .     A
C693   C695    1.410   .     A
C693   C642    1.402   1_655 S
C694   C696    1.410   .     A
C697   C627    1.392   1_655 S
C698   O95     1.380   1_556 S
Cu699  O708    1.961   .     S
Cu699  N704    2.023   .     S
Cu699  O705    1.965   .     S
Cu699  O712    1.959   .     S
Cu699  Cu700   2.692   .     S
Cu699  O709    1.966   .     S
Cu700  N703    2.023   .     S
Cu700  O707    1.961   .     S
Cu700  O711    1.959   .     S
Cu700  O706    1.965   .     S
Cu700  O710    1.966   .     S
N704   N79     1.299   1_556 S
N704   O103    1.338   1_556 S
O717   H718    0.989   .     S
O717   C73     1.380   1_556 S
O719   H720    0.989   .     S
O721   C785    1.389   .     S
O721   H826    0.991   .     S
H722   O929    0.991   1_545 S
O723   C890    1.389   1_545 S
O723   H932    0.991   1_545 S
H724   O827    0.991   .     S
O725   N79     1.338   1_556 S
O725   H102    0.990   1_556 S
H728   O103    0.990   1_556 S
C729   O759    1.291   .     A
C729   O757    1.289   .     A
C729   C733    1.439   .     S
C730   O758    1.289   .     A
C730   C734    1.439   .     S
C730   O760    1.291   .     A
C731   C748    1.398   .     A
C731   H753    1.085   .     S
C731   C801    1.392   1_455 S
C732   H754    1.085   .     S
C732   C747    1.398   .     A
C732   C802    1.392   .     S
C734   C837    1.348   .     S
C734   O879    1.389   .     S
C735   O761    1.298   .     A
C735   C740    1.455   .     S
C735   O763    1.295   .     A
C736   O762    1.298   .     A
C736   C739    1.455   .     S
C736   O764    1.295   .     A
C737   H765    1.085   .     S
C737   C739    1.397   .     A
C737   C747    1.389   .     A
C738   H766    1.085   .     S
C738   C740    1.397   .     A
C738   C748    1.389   .     A
C739   C741    1.399   .     A
C740   C742    1.399   .     A
C741   C743    1.401   .     A
C741   H767    1.081   .     S
C742   C744    1.401   .     A
C742   H768    1.081   .     S
C743   C749    1.419   .     A
C743   C745    1.420   .     A
C744   C746    1.420   .     A
C744   C750    1.419   .     A
C745   C747    1.410   .     A
C745   C798    1.402   .     S
C746   C748    1.410   .     A
C746   C797    1.402   1_455 S
C749   C783    1.392   .     S
C750   C784    1.392   1_455 S
C750   O147    1.380   1_556 S
Cu751  O760    1.961   .     S
Cu751  N756    2.023   .     S
Cu751  O757    1.965   .     S
Cu751  O764    1.959   .     S
Cu751  Cu752   2.692   .     S
Cu751  O761    1.966   .     S
Cu752  N755    2.023   .     S
Cu752  O759    1.961   .     S
Cu752  O763    1.959   .     S
Cu752  O758    1.965   .     S
Cu752  O762    1.966   .     S
N756   N131    1.299   1_556 S
N756   O155    1.338   1_556 S
O769   H770    0.989   .     S
O769   C125    1.380   1_556 S
O771   H772    0.989   .     S
O773   C837    1.389   .     S
O773   H878    0.991   .     S
H776   O879    0.991   .     S
O777   N131    1.338   1_556 S
O777   H154    0.990   1_556 S
H780   O155    0.990   1_556 S
C781   O811    1.291   .     A
C781   O809    1.289   .     A
C781   C785    1.439   .     S
C782   O810    1.289   .     A
C782   C786    1.439   .     S
C782   O812    1.291   .     A
C783   C800    1.398   .     A
C783   H805    1.085   .     S
C784   H806    1.085   .     S
C784   C799    1.398   .     A
C784   C750    1.392   1_655 S
C786   C889    1.348   .     S
C786   O931    1.389   .     S
C787   O813    1.298   .     A
C787   C792    1.455   .     S
C787   O815    1.295   .     A
C788   O814    1.298   .     A
C788   C791    1.455   .     S
C788   O816    1.295   .     A
C789   H817    1.085   .     S
C789   C791    1.397   .     A
C789   C799    1.389   .     A
C790   H818    1.085   .     S
C790   C792    1.397   .     A
C790   C800    1.389   .     A
C791   C793    1.399   .     A
C792   C794    1.399   .     A
C793   C795    1.401   .     A
C793   H819    1.081   .     S
C794   C796    1.401   .     A
C794   H820    1.081   .     S
C795   C801    1.419   .     A
C795   C797    1.420   .     A
C796   C798    1.420   .     A
C796   C802    1.419   .     A
C797   C799    1.410   .     A
C797   C746    1.402   1_655 S
C798   C800    1.410   .     A
C801   C731    1.392   1_655 S
C802   O199    1.380   1_556 S
Cu803  O812    1.961   .     S
Cu803  N808    2.023   .     S
Cu803  O809    1.965   .     S
Cu803  O816    1.959   .     S
Cu803  Cu804   2.692   .     S
Cu803  O813    1.966   .     S
Cu804  N807    2.023   .     S
Cu804  O811    1.961   .     S
Cu804  O815    1.959   .     S
Cu804  O810    1.965   .     S
Cu804  O814    1.966   .     S
N808   N183    1.299   1_556 S
N808   O207    1.338   1_556 S
O821   H822    0.989   .     S
O821   C177    1.380   1_556 S
O823   H824    0.989   .     S
O825   C889    1.389   .     S
O825   H930    0.991   .     S
H828   O931    0.991   .     S
O829   N183    1.338   1_556 S
O829   H206    0.990   1_556 S
H832   O207    0.990   1_556 S
C833   O863    1.291   .     A
C833   O861    1.289   .     A
C833   C837    1.439   .     S
C834   O862    1.289   .     A
C834   C838    1.439   .     S
C834   O864    1.291   .     A
C835   C852    1.398   .     A
C835   H857    1.085   .     S
C835   C905    1.392   1_455 S
C836   H858    1.085   .     S
C836   C851    1.398   .     A
C836   C906    1.392   .     S
C838   C629    1.348   1_565 S
C838   O671    1.389   1_565 S
C839   O865    1.298   .     A
C839   C844    1.455   .     S
C839   O867    1.295   .     A
C840   O866    1.298   .     A
C840   C843    1.455   .     S
C840   O868    1.295   .     A
C841   H869    1.085   .     S
C841   C843    1.397   .     A
C841   C851    1.389   .     A
C842   H870    1.085   .     S
C842   C844    1.397   .     A
C842   C852    1.389   .     A
C843   C845    1.399   .     A
C844   C846    1.399   .     A
C845   C847    1.401   .     A
C845   H871    1.081   .     S
C846   C848    1.401   .     A
C846   H872    1.081   .     S
C847   C853    1.419   .     A
C847   C849    1.420   .     A
C848   C850    1.420   .     A
C848   C854    1.419   .     A
C849   C851    1.410   .     A
C849   C902    1.402   .     S
C850   C852    1.410   .     A
C850   C901    1.402   1_455 S
C853   C887    1.392   .     S
C854   C888    1.392   1_455 S
C854   O251    1.380   1_556 S
Cu855  O864    1.961   .     S
Cu855  N860    2.023   .     S
Cu855  O861    1.965   .     S
Cu855  O868    1.959   .     S
Cu855  Cu856   2.692   .     S
Cu855  O865    1.966   .     S
Cu856  N859    2.023   .     S
Cu856  O863    1.961   .     S
Cu856  O867    1.959   .     S
Cu856  O862    1.965   .     S
Cu856  O866    1.966   .     S
N860   N235    1.299   1_556 S
N860   O259    1.338   1_556 S
O873   H874    0.989   .     S
O873   C229    1.380   1_556 S
O875   H876    0.989   .     S
O877   C629    1.389   1_565 S
O877   H670    0.991   1_565 S
H880   O671    0.991   1_565 S
O881   N235    1.338   1_556 S
O881   H258    0.990   1_556 S
H884   O259    0.990   1_556 S
C885   O915    1.291   .     A
C885   O913    1.289   .     A
C885   C889    1.439   .     S
C886   O914    1.289   .     A
C886   C890    1.439   .     S
C886   O916    1.291   .     A
C887   C904    1.398   .     A
C887   H909    1.085   .     S
C888   H910    1.085   .     S
C888   C903    1.398   .     A
C888   C854    1.392   1_655 S
C890   C681    1.348   1_565 S
C890   O723    1.389   1_565 S
C891   O917    1.298   .     A
C891   C896    1.455   .     S
C891   O919    1.295   .     A
C892   O918    1.298   .     A
C892   C895    1.455   .     S
C892   O920    1.295   .     A
C893   H921    1.085   .     S
C893   C895    1.397   .     A
C893   C903    1.389   .     A
C894   H922    1.085   .     S
C894   C896    1.397   .     A
C894   C904    1.389   .     A
C895   C897    1.399   .     A
C896   C898    1.399   .     A
C897   C899    1.401   .     A
C897   H923    1.081   .     S
C898   C900    1.401   .     A
C898   H924    1.081   .     S
C899   C905    1.419   .     A
C899   C901    1.420   .     A
C900   C902    1.420   .     A
C900   C906    1.419   .     A
C901   C903    1.410   .     A
C901   C850    1.402   1_655 S
C902   C904    1.410   .     A
C905   C835    1.392   1_655 S
C906   O303    1.380   1_556 S
Cu907  O916    1.961   .     S
Cu907  N912    2.023   .     S
Cu907  O913    1.965   .     S
Cu907  O920    1.959   .     S
Cu907  Cu908   2.692   .     S
Cu907  O917    1.966   .     S
Cu908  N911    2.023   .     S
Cu908  O915    1.961   .     S
Cu908  O919    1.959   .     S
Cu908  O914    1.965   .     S
Cu908  O918    1.966   .     S
N912   N287    1.299   1_556 S
N912   O311    1.338   1_556 S
O925   H926    0.989   .     S
O925   C281    1.380   1_556 S
O927   H928    0.989   .     S
O929   C681    1.389   1_565 S
O929   H722    0.991   1_565 S
H932   O723    0.991   1_565 S
O933   N287    1.338   1_556 S
O933   H310    0.990   1_556 S
H936   O311    0.990   1_556 S
