data_str_m3_o10_o17_pcu_sym.52
_audit_creation_date              2020-01-03
_audit_creation_method            'Materials Studio'
_symmetry_space_group_name_H-M    'P1'
_symmetry_Int_Tables_number       1
_symmetry_cell_setting            triclinic
loop_
_symmetry_equiv_pos_as_xyz
  x,y,z
_cell_length_a                    23.5841
_cell_length_b                    26.1492
_cell_length_c                    29.6363
_cell_angle_alpha                 92.9229
_cell_angle_beta                  84.7737
_cell_angle_gamma                 92.9946
loop_
_atom_site_label
_atom_site_type_symbol
_atom_site_fract_x
_atom_site_fract_y
_atom_site_fract_z
_atom_site_U_iso_or_equiv
_atom_site_adp_type
_atom_site_occupancy
C1     C     0.18164   0.26477   0.24898   0.00000  Uiso   1.00
C2     C     0.16657   0.21611   0.40870   0.00000  Uiso   1.00
C3     C     0.16579   0.16521   0.11565   0.00000  Uiso   1.00
C4     C     0.16561   0.16851   0.38464   0.00000  Uiso   1.00
C5     C     0.18319   0.20999   0.09355   0.00000  Uiso   1.00
C6     C     0.15186   0.12244   0.40615   0.00000  Uiso   1.00
C7     C     0.16973   0.21334   0.04900   0.00000  Uiso   1.00
C8     C     0.13654   0.12496   0.45302   0.00000  Uiso   1.00
C9     C     0.15145   0.16928   0.02468   0.00000  Uiso   1.00
C10    C     0.15061   0.17054   0.47782   0.00000  Uiso   1.00
C11    C     0.13126   0.12518   0.04744   0.00000  Uiso   1.00
C12    C     0.15169   0.06857   0.25113   0.00000  Uiso   1.00
C13    C     0.16389   0.21722   0.45609   0.00000  Uiso   1.00
C14    C     0.16462   0.26064   0.03012   0.00000  Uiso   1.00
C15    C     0.10438   0.08547   0.47616   0.00000  Uiso   1.00
C16    C     0.17231   0.05230   0.12360   0.00000  Uiso   1.00
C17    C     0.11315   0.27457   0.38049   0.00000  Uiso   1.00
C18    C     0.21647   0.25288   0.11743   0.00000  Uiso   1.00
C19    C     0.15522   0.07203   0.37871   0.00000  Uiso   1.00
C20    C     0.08867   0.28908   0.07593   0.00000  Uiso   1.00
C21    C     0.02683   0.06564   0.43670   0.00000  Uiso   1.00
C22    C     0.22654   0.00232   0.47224   0.00000  Uiso   1.00
C23    C     0.16964   0.26334   0.48288   0.00000  Uiso   1.00
C24    C     0.01368   0.07753   0.06484   0.00000  Uiso   1.00
C25    C     0.00677   0.13114   0.19489   0.00000  Uiso   1.00
C26    C     0.32626   0.20331   0.30451   0.00000  Uiso   1.00
C27    C     0.09976   0.08700   0.02365   0.00000  Uiso   1.00
C28    C     0.18950   0.31904   0.24825   0.00000  Uiso   1.00
C29    C     0.14382   0.01430   0.25191   0.00000  Uiso   1.00
C30    C     0.16691   0.16812   0.33641   0.00000  Uiso   1.00
C31    C     0.16642   0.16569   0.16365   0.00000  Uiso   1.00
C32    C     0.14015   0.12257   0.09340   0.00000  Uiso   1.00
H33    H     0.23292   0.00208   0.24460   0.00000  Uiso   1.00
H34    H     0.18983   0.26874   0.14708   0.00000  Uiso   1.00
H35    H     0.25520   0.23762   0.12945   0.00000  Uiso   1.00
H36    H     0.15899   0.03958   0.40040   0.00000  Uiso   1.00
H37    H     0.11738   0.06548   0.35911   0.00000  Uiso   1.00
H38    H     0.19429   0.07228   0.35479   0.00000  Uiso   1.00
H39    H     0.08612   0.25487   0.09685   0.00000  Uiso   1.00
H40    H     0.05877   0.28320   0.04895   0.00000  Uiso   1.00
H41    H     0.07361   0.32054   0.09966   0.00000  Uiso   1.00
H42    H     0.03782   0.09799   0.41408   0.00000  Uiso   1.00
H43    H     0.32878   0.07778   0.46484   0.00000  Uiso   1.00
H44    H     0.10040   0.33127   0.25555   0.00000  Uiso   1.00
H45    H     0.00606   0.03456   0.41626   0.00000  Uiso   1.00
H46    H     0.26301   0.31121   0.46116   0.00000  Uiso   1.00
H47    H     0.23209   0.03747   0.45261   0.00000  Uiso   1.00
H48    H     0.22742   0.01467   0.00861   0.00000  Uiso   1.00
H49    H     0.32876   0.10124   0.04014   0.00000  Uiso   1.00
H50    H     0.02335   0.10195   0.09516   0.00000  Uiso   1.00
H51    H     0.31373   0.04816   0.07598   0.00000  Uiso   1.00
H52    H     0.30646   0.10640   0.17980   0.00000  Uiso   1.00
H53    H     0.01927   0.16210   0.17119   0.00000  Uiso   1.00
H54    H     0.04190   0.10604   0.19905   0.00000  Uiso   1.00
H55    H     0.19870   0.07256   0.14850   0.00000  Uiso   1.00
H56    H     0.02577   0.22994   0.31809   0.00000  Uiso   1.00
H57    H     0.29027   0.22710   0.29992   0.00000  Uiso   1.00
H58    H     0.31511   0.17325   0.32938   0.00000  Uiso   1.00
H59    H     0.19911   0.04469   0.09131   0.00000  Uiso   1.00
H60    H     0.15801   0.01535   0.13835   0.00000  Uiso   1.00
H61    H     0.09552   0.29570   0.41145   0.00000  Uiso   1.00
H62    H     0.08326   0.24129   0.37417   0.00000  Uiso   1.00
H63    H     0.11382   0.29971   0.35141   0.00000  Uiso   1.00
H64    H     0.23169   0.28420   0.09485   0.00000  Uiso   1.00
N65    N     0.31678   0.15265   0.23783   0.00000  Uiso   1.00
N66    N     0.01656   0.18068   0.26217   0.00000  Uiso   1.00
O67    O     0.12975   0.24619   0.25299   0.00000  Uiso   1.00
O68    O     0.16945   0.26076   0.38526   0.00000  Uiso   1.00
O69    O     0.14478   0.30198   0.05690   0.00000  Uiso   1.00
O70    O     0.07522   0.04631   0.45346   0.00000  Uiso   1.00
O71    O     0.17396   0.31056   0.46352   0.00000  Uiso   1.00
O72    O     0.06236   0.05225   0.04572   0.00000  Uiso   1.00
O73    O     0.20358   0.08714   0.24702   0.00000  Uiso   1.00
O74    O     0.22613   0.23721   0.24519   0.00000  Uiso   1.00
O75    O     0.10720   0.09613   0.25481   0.00000  Uiso   1.00
O76    O     0.11847   0.17117   0.31997   0.00000  Uiso   1.00
O77    O     0.21486   0.16216   0.18003   0.00000  Uiso   1.00
O78    O     0.21485   0.16219   0.31218   0.00000  Uiso   1.00
O79    O     0.11848   0.17115   0.18783   0.00000  Uiso   1.00
O80    O     0.12346   0.07892   0.11670   0.00000  Uiso   1.00
Zn81   Zn    0.10231   0.17266   0.25521   0.00000  Uiso   1.00
Zn82   Zn    0.23102   0.16067   0.24479   0.00000  Uiso   1.00
C83    C     0.51497   0.26477   0.24898   0.00000  Uiso   1.00
C84    C     0.49990   0.21611   0.40870   0.00000  Uiso   1.00
C85    C     0.49913   0.16521   0.11565   0.00000  Uiso   1.00
C86    C     0.49894   0.16851   0.38464   0.00000  Uiso   1.00
C87    C     0.51653   0.20999   0.09355   0.00000  Uiso   1.00
C88    C     0.48519   0.12244   0.40615   0.00000  Uiso   1.00
C89    C     0.50306   0.21334   0.04900   0.00000  Uiso   1.00
C90    C     0.46987   0.12496   0.45302   0.00000  Uiso   1.00
C91    C     0.48478   0.16928   0.02468   0.00000  Uiso   1.00
C92    C     0.48394   0.17054   0.47782   0.00000  Uiso   1.00
C93    C     0.46459   0.12518   0.04744   0.00000  Uiso   1.00
C94    C     0.48503   0.06857   0.25113   0.00000  Uiso   1.00
C95    C     0.49723   0.21722   0.45609   0.00000  Uiso   1.00
C96    C     0.49796   0.26064   0.03012   0.00000  Uiso   1.00
C97    C     0.43771   0.08547   0.47616   0.00000  Uiso   1.00
C98    C     0.50565   0.05230   0.12360   0.00000  Uiso   1.00
C99    C     0.44648   0.27457   0.38049   0.00000  Uiso   1.00
C100   C     0.54980   0.25288   0.11743   0.00000  Uiso   1.00
C101   C     0.48855   0.07203   0.37871   0.00000  Uiso   1.00
C102   C     0.42200   0.28908   0.07593   0.00000  Uiso   1.00
C103   C     0.36016   0.06564   0.43670   0.00000  Uiso   1.00
C104   C     0.55987   0.00232   0.47224   0.00000  Uiso   1.00
C105   C     0.50297   0.26334   0.48288   0.00000  Uiso   1.00
C106   C     0.34702   0.07753   0.06484   0.00000  Uiso   1.00
C107   C     0.34010   0.13114   0.19489   0.00000  Uiso   1.00
C108   C     0.65959   0.20331   0.30451   0.00000  Uiso   1.00
C109   C     0.43309   0.08700   0.02365   0.00000  Uiso   1.00
C110   C     0.52284   0.31904   0.24825   0.00000  Uiso   1.00
C111   C     0.47715   0.01430   0.25191   0.00000  Uiso   1.00
C112   C     0.50025   0.16812   0.33641   0.00000  Uiso   1.00
C113   C     0.49975   0.16569   0.16365   0.00000  Uiso   1.00
C114   C     0.47348   0.12257   0.09340   0.00000  Uiso   1.00
H115   H     0.56626   0.00208   0.24460   0.00000  Uiso   1.00
H116   H     0.52316   0.26874   0.14708   0.00000  Uiso   1.00
H117   H     0.58853   0.23762   0.12945   0.00000  Uiso   1.00
H118   H     0.49233   0.03958   0.40040   0.00000  Uiso   1.00
H119   H     0.45071   0.06548   0.35911   0.00000  Uiso   1.00
H120   H     0.52762   0.07228   0.35479   0.00000  Uiso   1.00
H121   H     0.41945   0.25487   0.09685   0.00000  Uiso   1.00
H122   H     0.39211   0.28320   0.04895   0.00000  Uiso   1.00
H123   H     0.40695   0.32054   0.09966   0.00000  Uiso   1.00
H124   H     0.37116   0.09799   0.41408   0.00000  Uiso   1.00
H125   H     0.66211   0.07778   0.46484   0.00000  Uiso   1.00
H126   H     0.43373   0.33127   0.25555   0.00000  Uiso   1.00
H127   H     0.33939   0.03456   0.41626   0.00000  Uiso   1.00
H128   H     0.59634   0.31121   0.46116   0.00000  Uiso   1.00
H129   H     0.56542   0.03747   0.45261   0.00000  Uiso   1.00
H130   H     0.56075   0.01467   0.00861   0.00000  Uiso   1.00
H131   H     0.66209   0.10124   0.04014   0.00000  Uiso   1.00
H132   H     0.35668   0.10195   0.09516   0.00000  Uiso   1.00
H133   H     0.64707   0.04816   0.07598   0.00000  Uiso   1.00
H134   H     0.63979   0.10640   0.17980   0.00000  Uiso   1.00
H135   H     0.35260   0.16210   0.17119   0.00000  Uiso   1.00
H136   H     0.37524   0.10604   0.19905   0.00000  Uiso   1.00
H137   H     0.53204   0.07256   0.14850   0.00000  Uiso   1.00
H138   H     0.35910   0.22994   0.31809   0.00000  Uiso   1.00
H139   H     0.62361   0.22710   0.29992   0.00000  Uiso   1.00
H140   H     0.64845   0.17325   0.32938   0.00000  Uiso   1.00
H141   H     0.53244   0.04469   0.09131   0.00000  Uiso   1.00
H142   H     0.49134   0.01535   0.13835   0.00000  Uiso   1.00
H143   H     0.42885   0.29570   0.41145   0.00000  Uiso   1.00
H144   H     0.41659   0.24129   0.37417   0.00000  Uiso   1.00
H145   H     0.44715   0.29971   0.35141   0.00000  Uiso   1.00
H146   H     0.56502   0.28420   0.09485   0.00000  Uiso   1.00
N147   N     0.65011   0.15265   0.23783   0.00000  Uiso   1.00
N148   N     0.34989   0.18068   0.26217   0.00000  Uiso   1.00
O149   O     0.46308   0.24619   0.25299   0.00000  Uiso   1.00
O150   O     0.50278   0.26076   0.38526   0.00000  Uiso   1.00
O151   O     0.47811   0.30198   0.05690   0.00000  Uiso   1.00
O152   O     0.40855   0.04631   0.45346   0.00000  Uiso   1.00
O153   O     0.50730   0.31056   0.46352   0.00000  Uiso   1.00
O154   O     0.39570   0.05225   0.04572   0.00000  Uiso   1.00
O155   O     0.53692   0.08714   0.24702   0.00000  Uiso   1.00
O156   O     0.55946   0.23721   0.24519   0.00000  Uiso   1.00
O157   O     0.44054   0.09613   0.25481   0.00000  Uiso   1.00
O158   O     0.45181   0.17117   0.31997   0.00000  Uiso   1.00
O159   O     0.54819   0.16216   0.18003   0.00000  Uiso   1.00
O160   O     0.54819   0.16219   0.31218   0.00000  Uiso   1.00
O161   O     0.45181   0.17115   0.18783   0.00000  Uiso   1.00
O162   O     0.45679   0.07892   0.11670   0.00000  Uiso   1.00
Zn163  Zn    0.43565   0.17266   0.25521   0.00000  Uiso   1.00
Zn164  Zn    0.56435   0.16067   0.24479   0.00000  Uiso   1.00
C165   C     0.84830   0.26477   0.24898   0.00000  Uiso   1.00
C166   C     0.83324   0.21611   0.40870   0.00000  Uiso   1.00
C167   C     0.83246   0.16521   0.11565   0.00000  Uiso   1.00
C168   C     0.83228   0.16851   0.38464   0.00000  Uiso   1.00
C169   C     0.84986   0.20999   0.09355   0.00000  Uiso   1.00
C170   C     0.81852   0.12244   0.40615   0.00000  Uiso   1.00
C171   C     0.83640   0.21334   0.04900   0.00000  Uiso   1.00
C172   C     0.80321   0.12496   0.45302   0.00000  Uiso   1.00
C173   C     0.81811   0.16928   0.02468   0.00000  Uiso   1.00
C174   C     0.81728   0.17054   0.47782   0.00000  Uiso   1.00
C175   C     0.79792   0.12518   0.04744   0.00000  Uiso   1.00
C176   C     0.81836   0.06857   0.25113   0.00000  Uiso   1.00
C177   C     0.83056   0.21722   0.45609   0.00000  Uiso   1.00
C178   C     0.83129   0.26064   0.03012   0.00000  Uiso   1.00
C179   C     0.77104   0.08547   0.47616   0.00000  Uiso   1.00
C180   C     0.83898   0.05230   0.12360   0.00000  Uiso   1.00
C181   C     0.77981   0.27457   0.38049   0.00000  Uiso   1.00
C182   C     0.88314   0.25288   0.11743   0.00000  Uiso   1.00
C183   C     0.82188   0.07203   0.37871   0.00000  Uiso   1.00
C184   C     0.75533   0.28908   0.07593   0.00000  Uiso   1.00
C185   C     0.69350   0.06564   0.43670   0.00000  Uiso   1.00
C186   C     0.89321   0.00232   0.47224   0.00000  Uiso   1.00
C187   C     0.83631   0.26334   0.48288   0.00000  Uiso   1.00
C188   C     0.68035   0.07753   0.06484   0.00000  Uiso   1.00
C189   C     0.67344   0.13114   0.19489   0.00000  Uiso   1.00
C190   C     0.99292   0.20331   0.30451   0.00000  Uiso   1.00
C191   C     0.76642   0.08700   0.02365   0.00000  Uiso   1.00
C192   C     0.85617   0.31904   0.24825   0.00000  Uiso   1.00
C193   C     0.81049   0.01430   0.25191   0.00000  Uiso   1.00
C194   C     0.83358   0.16812   0.33641   0.00000  Uiso   1.00
C195   C     0.83308   0.16569   0.16365   0.00000  Uiso   1.00
C196   C     0.80681   0.12257   0.09340   0.00000  Uiso   1.00
H197   H     0.89959   0.00208   0.24460   0.00000  Uiso   1.00
H198   H     0.85650   0.26874   0.14708   0.00000  Uiso   1.00
H199   H     0.92187   0.23762   0.12945   0.00000  Uiso   1.00
H200   H     0.82566   0.03958   0.40040   0.00000  Uiso   1.00
H201   H     0.78404   0.06548   0.35911   0.00000  Uiso   1.00
H202   H     0.86096   0.07228   0.35479   0.00000  Uiso   1.00
H203   H     0.75278   0.25487   0.09685   0.00000  Uiso   1.00
H204   H     0.72544   0.28320   0.04895   0.00000  Uiso   1.00
H205   H     0.74028   0.32054   0.09966   0.00000  Uiso   1.00
H206   H     0.70449   0.09799   0.41408   0.00000  Uiso   1.00
H207   H     0.99544   0.07778   0.46484   0.00000  Uiso   1.00
H208   H     0.76707   0.33127   0.25555   0.00000  Uiso   1.00
H209   H     0.67273   0.03456   0.41626   0.00000  Uiso   1.00
H210   H     0.92968   0.31121   0.46116   0.00000  Uiso   1.00
H211   H     0.89875   0.03747   0.45261   0.00000  Uiso   1.00
H212   H     0.89409   0.01467   0.00861   0.00000  Uiso   1.00
H213   H     0.99543   0.10124   0.04014   0.00000  Uiso   1.00
H214   H     0.69001   0.10195   0.09516   0.00000  Uiso   1.00
H215   H     0.98040   0.04816   0.07598   0.00000  Uiso   1.00
H216   H     0.97313   0.10640   0.17980   0.00000  Uiso   1.00
H217   H     0.68594   0.16210   0.17119   0.00000  Uiso   1.00
H218   H     0.70857   0.10604   0.19905   0.00000  Uiso   1.00
H219   H     0.86537   0.07256   0.14850   0.00000  Uiso   1.00
H220   H     0.69243   0.22994   0.31809   0.00000  Uiso   1.00
H221   H     0.95694   0.22710   0.29992   0.00000  Uiso   1.00
H222   H     0.98178   0.17325   0.32938   0.00000  Uiso   1.00
H223   H     0.86578   0.04469   0.09131   0.00000  Uiso   1.00
H224   H     0.82468   0.01535   0.13835   0.00000  Uiso   1.00
H225   H     0.76218   0.29570   0.41145   0.00000  Uiso   1.00
H226   H     0.74993   0.24129   0.37417   0.00000  Uiso   1.00
H227   H     0.78049   0.29971   0.35141   0.00000  Uiso   1.00
H228   H     0.89835   0.28420   0.09485   0.00000  Uiso   1.00
N229   N     0.98344   0.15265   0.23783   0.00000  Uiso   1.00
N230   N     0.68322   0.18068   0.26217   0.00000  Uiso   1.00
O231   O     0.79642   0.24619   0.25299   0.00000  Uiso   1.00
O232   O     0.83612   0.26076   0.38526   0.00000  Uiso   1.00
O233   O     0.81145   0.30198   0.05690   0.00000  Uiso   1.00
O234   O     0.74189   0.04631   0.45346   0.00000  Uiso   1.00
O235   O     0.84063   0.31056   0.46352   0.00000  Uiso   1.00
O236   O     0.72903   0.05225   0.04572   0.00000  Uiso   1.00
O237   O     0.87025   0.08714   0.24702   0.00000  Uiso   1.00
O238   O     0.89280   0.23721   0.24519   0.00000  Uiso   1.00
O239   O     0.77387   0.09613   0.25481   0.00000  Uiso   1.00
O240   O     0.78514   0.17117   0.31997   0.00000  Uiso   1.00
O241   O     0.88153   0.16216   0.18003   0.00000  Uiso   1.00
O242   O     0.88152   0.16219   0.31218   0.00000  Uiso   1.00
O243   O     0.78515   0.17115   0.18783   0.00000  Uiso   1.00
O244   O     0.79012   0.07892   0.11670   0.00000  Uiso   1.00
Zn245  Zn    0.76898   0.17266   0.25521   0.00000  Uiso   1.00
Zn246  Zn    0.89769   0.16067   0.24479   0.00000  Uiso   1.00
C247   C     0.18164   0.59810   0.24898   0.00000  Uiso   1.00
C248   C     0.16657   0.54945   0.40870   0.00000  Uiso   1.00
C249   C     0.16579   0.49854   0.11565   0.00000  Uiso   1.00
C250   C     0.16561   0.50185   0.38464   0.00000  Uiso   1.00
C251   C     0.18319   0.54332   0.09355   0.00000  Uiso   1.00
C252   C     0.15186   0.45577   0.40615   0.00000  Uiso   1.00
C253   C     0.16973   0.54667   0.04900   0.00000  Uiso   1.00
C254   C     0.13654   0.45829   0.45302   0.00000  Uiso   1.00
C255   C     0.15145   0.50261   0.02468   0.00000  Uiso   1.00
C256   C     0.15061   0.50388   0.47782   0.00000  Uiso   1.00
C257   C     0.13126   0.45851   0.04744   0.00000  Uiso   1.00
C258   C     0.15169   0.40190   0.25113   0.00000  Uiso   1.00
C259   C     0.16389   0.55056   0.45609   0.00000  Uiso   1.00
C260   C     0.16462   0.59398   0.03012   0.00000  Uiso   1.00
C261   C     0.10438   0.41881   0.47616   0.00000  Uiso   1.00
C262   C     0.17231   0.38563   0.12360   0.00000  Uiso   1.00
C263   C     0.11315   0.60790   0.38049   0.00000  Uiso   1.00
C264   C     0.21647   0.58621   0.11743   0.00000  Uiso   1.00
C265   C     0.15522   0.40536   0.37871   0.00000  Uiso   1.00
C266   C     0.08867   0.62241   0.07593   0.00000  Uiso   1.00
C267   C     0.02683   0.39897   0.43670   0.00000  Uiso   1.00
C268   C     0.22654   0.33566   0.47224   0.00000  Uiso   1.00
C269   C     0.16964   0.59667   0.48288   0.00000  Uiso   1.00
C270   C     0.01368   0.41087   0.06484   0.00000  Uiso   1.00
C271   C     0.00677   0.46447   0.19489   0.00000  Uiso   1.00
C272   C     0.32626   0.53664   0.30451   0.00000  Uiso   1.00
C273   C     0.09976   0.42033   0.02365   0.00000  Uiso   1.00
C274   C     0.18950   0.65238   0.24825   0.00000  Uiso   1.00
C275   C     0.14382   0.34764   0.25191   0.00000  Uiso   1.00
C276   C     0.16691   0.50145   0.33641   0.00000  Uiso   1.00
C277   C     0.16642   0.49903   0.16365   0.00000  Uiso   1.00
C278   C     0.14015   0.45590   0.09340   0.00000  Uiso   1.00
H279   H     0.23292   0.33541   0.24460   0.00000  Uiso   1.00
H280   H     0.18983   0.60208   0.14708   0.00000  Uiso   1.00
H281   H     0.25520   0.57095   0.12945   0.00000  Uiso   1.00
H282   H     0.15899   0.37292   0.40040   0.00000  Uiso   1.00
H283   H     0.11738   0.39882   0.35911   0.00000  Uiso   1.00
H284   H     0.19429   0.40562   0.35479   0.00000  Uiso   1.00
H285   H     0.08612   0.58820   0.09685   0.00000  Uiso   1.00
H286   H     0.05877   0.61654   0.04895   0.00000  Uiso   1.00
H287   H     0.07361   0.65387   0.09966   0.00000  Uiso   1.00
H288   H     0.03782   0.43132   0.41408   0.00000  Uiso   1.00
H289   H     0.32878   0.41111   0.46484   0.00000  Uiso   1.00
H290   H     0.10040   0.66461   0.25555   0.00000  Uiso   1.00
H291   H     0.00606   0.36789   0.41626   0.00000  Uiso   1.00
H292   H     0.26301   0.64454   0.46116   0.00000  Uiso   1.00
H293   H     0.23209   0.37080   0.45261   0.00000  Uiso   1.00
H294   H     0.22742   0.34800   0.00861   0.00000  Uiso   1.00
H295   H     0.32876   0.43457   0.04014   0.00000  Uiso   1.00
H296   H     0.02335   0.43528   0.09516   0.00000  Uiso   1.00
H297   H     0.31373   0.38150   0.07598   0.00000  Uiso   1.00
H298   H     0.30646   0.43973   0.17980   0.00000  Uiso   1.00
H299   H     0.01927   0.49544   0.17119   0.00000  Uiso   1.00
H300   H     0.04190   0.43937   0.19905   0.00000  Uiso   1.00
H301   H     0.19870   0.40589   0.14850   0.00000  Uiso   1.00
H302   H     0.02577   0.56327   0.31809   0.00000  Uiso   1.00
H303   H     0.29027   0.56044   0.29992   0.00000  Uiso   1.00
H304   H     0.31511   0.50659   0.32938   0.00000  Uiso   1.00
H305   H     0.19911   0.37803   0.09131   0.00000  Uiso   1.00
H306   H     0.15801   0.34869   0.13835   0.00000  Uiso   1.00
H307   H     0.09552   0.62903   0.41145   0.00000  Uiso   1.00
H308   H     0.08326   0.57463   0.37417   0.00000  Uiso   1.00
H309   H     0.11382   0.63304   0.35141   0.00000  Uiso   1.00
H310   H     0.23169   0.61753   0.09485   0.00000  Uiso   1.00
N311   N     0.31678   0.48598   0.23783   0.00000  Uiso   1.00
N312   N     0.01656   0.51402   0.26217   0.00000  Uiso   1.00
O313   O     0.12975   0.57952   0.25299   0.00000  Uiso   1.00
O314   O     0.16945   0.59409   0.38526   0.00000  Uiso   1.00
O315   O     0.14478   0.63531   0.05690   0.00000  Uiso   1.00
O316   O     0.07522   0.37964   0.45346   0.00000  Uiso   1.00
O317   O     0.17396   0.64389   0.46352   0.00000  Uiso   1.00
O318   O     0.06236   0.38559   0.04572   0.00000  Uiso   1.00
O319   O     0.20358   0.42048   0.24702   0.00000  Uiso   1.00
O320   O     0.22613   0.57054   0.24519   0.00000  Uiso   1.00
O321   O     0.10720   0.42946   0.25481   0.00000  Uiso   1.00
O322   O     0.11847   0.50450   0.31997   0.00000  Uiso   1.00
O323   O     0.21486   0.49550   0.18003   0.00000  Uiso   1.00
O324   O     0.21485   0.49552   0.31218   0.00000  Uiso   1.00
O325   O     0.11848   0.50448   0.18783   0.00000  Uiso   1.00
O326   O     0.12346   0.41226   0.11670   0.00000  Uiso   1.00
Zn327  Zn    0.10231   0.50600   0.25521   0.00000  Uiso   1.00
Zn328  Zn    0.23102   0.49400   0.24479   0.00000  Uiso   1.00
C329   C     0.51497   0.59810   0.24898   0.00000  Uiso   1.00
C330   C     0.49990   0.54945   0.40870   0.00000  Uiso   1.00
C331   C     0.49913   0.49854   0.11565   0.00000  Uiso   1.00
C332   C     0.49894   0.50185   0.38464   0.00000  Uiso   1.00
C333   C     0.51653   0.54332   0.09355   0.00000  Uiso   1.00
C334   C     0.48519   0.45577   0.40615   0.00000  Uiso   1.00
C335   C     0.50306   0.54667   0.04900   0.00000  Uiso   1.00
C336   C     0.46987   0.45829   0.45302   0.00000  Uiso   1.00
C337   C     0.48478   0.50261   0.02468   0.00000  Uiso   1.00
C338   C     0.48394   0.50388   0.47782   0.00000  Uiso   1.00
C339   C     0.46459   0.45851   0.04744   0.00000  Uiso   1.00
C340   C     0.48503   0.40190   0.25113   0.00000  Uiso   1.00
C341   C     0.49723   0.55056   0.45609   0.00000  Uiso   1.00
C342   C     0.49796   0.59398   0.03012   0.00000  Uiso   1.00
C343   C     0.43771   0.41881   0.47616   0.00000  Uiso   1.00
C344   C     0.50565   0.38563   0.12360   0.00000  Uiso   1.00
C345   C     0.44648   0.60790   0.38049   0.00000  Uiso   1.00
C346   C     0.54980   0.58621   0.11743   0.00000  Uiso   1.00
C347   C     0.48855   0.40536   0.37871   0.00000  Uiso   1.00
C348   C     0.42200   0.62241   0.07593   0.00000  Uiso   1.00
C349   C     0.36016   0.39897   0.43670   0.00000  Uiso   1.00
C350   C     0.55987   0.33566   0.47224   0.00000  Uiso   1.00
C351   C     0.50297   0.59667   0.48288   0.00000  Uiso   1.00
C352   C     0.34702   0.41087   0.06484   0.00000  Uiso   1.00
C353   C     0.34010   0.46447   0.19489   0.00000  Uiso   1.00
C354   C     0.65959   0.53664   0.30451   0.00000  Uiso   1.00
C355   C     0.43309   0.42033   0.02365   0.00000  Uiso   1.00
C356   C     0.52284   0.65238   0.24825   0.00000  Uiso   1.00
C357   C     0.47715   0.34764   0.25191   0.00000  Uiso   1.00
C358   C     0.50025   0.50145   0.33641   0.00000  Uiso   1.00
C359   C     0.49975   0.49903   0.16365   0.00000  Uiso   1.00
C360   C     0.47348   0.45590   0.09340   0.00000  Uiso   1.00
H361   H     0.56626   0.33541   0.24460   0.00000  Uiso   1.00
H362   H     0.52316   0.60208   0.14708   0.00000  Uiso   1.00
H363   H     0.58853   0.57095   0.12945   0.00000  Uiso   1.00
H364   H     0.49233   0.37292   0.40040   0.00000  Uiso   1.00
H365   H     0.45071   0.39882   0.35911   0.00000  Uiso   1.00
H366   H     0.52762   0.40562   0.35479   0.00000  Uiso   1.00
H367   H     0.41945   0.58820   0.09685   0.00000  Uiso   1.00
H368   H     0.39211   0.61654   0.04895   0.00000  Uiso   1.00
H369   H     0.40695   0.65387   0.09966   0.00000  Uiso   1.00
H370   H     0.37116   0.43132   0.41408   0.00000  Uiso   1.00
H371   H     0.66211   0.41111   0.46484   0.00000  Uiso   1.00
H372   H     0.43373   0.66461   0.25555   0.00000  Uiso   1.00
H373   H     0.33939   0.36789   0.41626   0.00000  Uiso   1.00
H374   H     0.59634   0.64454   0.46116   0.00000  Uiso   1.00
H375   H     0.56542   0.37080   0.45261   0.00000  Uiso   1.00
H376   H     0.56075   0.34800   0.00861   0.00000  Uiso   1.00
H377   H     0.66209   0.43457   0.04014   0.00000  Uiso   1.00
H378   H     0.35668   0.43528   0.09516   0.00000  Uiso   1.00
H379   H     0.64707   0.38150   0.07598   0.00000  Uiso   1.00
H380   H     0.63979   0.43973   0.17980   0.00000  Uiso   1.00
H381   H     0.35260   0.49544   0.17119   0.00000  Uiso   1.00
H382   H     0.37524   0.43937   0.19905   0.00000  Uiso   1.00
H383   H     0.53204   0.40589   0.14850   0.00000  Uiso   1.00
H384   H     0.35910   0.56327   0.31809   0.00000  Uiso   1.00
H385   H     0.62361   0.56044   0.29992   0.00000  Uiso   1.00
H386   H     0.64845   0.50659   0.32938   0.00000  Uiso   1.00
H387   H     0.53244   0.37803   0.09131   0.00000  Uiso   1.00
H388   H     0.49134   0.34869   0.13835   0.00000  Uiso   1.00
H389   H     0.42885   0.62903   0.41145   0.00000  Uiso   1.00
H390   H     0.41659   0.57463   0.37417   0.00000  Uiso   1.00
H391   H     0.44715   0.63304   0.35141   0.00000  Uiso   1.00
H392   H     0.56502   0.61753   0.09485   0.00000  Uiso   1.00
N393   N     0.65011   0.48598   0.23783   0.00000  Uiso   1.00
N394   N     0.34989   0.51402   0.26217   0.00000  Uiso   1.00
O395   O     0.46308   0.57952   0.25299   0.00000  Uiso   1.00
O396   O     0.50278   0.59409   0.38526   0.00000  Uiso   1.00
O397   O     0.47811   0.63531   0.05690   0.00000  Uiso   1.00
O398   O     0.40855   0.37964   0.45346   0.00000  Uiso   1.00
O399   O     0.50730   0.64389   0.46352   0.00000  Uiso   1.00
O400   O     0.39570   0.38559   0.04572   0.00000  Uiso   1.00
O401   O     0.53692   0.42048   0.24702   0.00000  Uiso   1.00
O402   O     0.55946   0.57054   0.24519   0.00000  Uiso   1.00
O403   O     0.44054   0.42946   0.25481   0.00000  Uiso   1.00
O404   O     0.45181   0.50450   0.31997   0.00000  Uiso   1.00
O405   O     0.54819   0.49550   0.18003   0.00000  Uiso   1.00
O406   O     0.54819   0.49552   0.31218   0.00000  Uiso   1.00
O407   O     0.45181   0.50448   0.18783   0.00000  Uiso   1.00
O408   O     0.45679   0.41226   0.11670   0.00000  Uiso   1.00
Zn409  Zn    0.43565   0.50600   0.25521   0.00000  Uiso   1.00
Zn410  Zn    0.56435   0.49400   0.24479   0.00000  Uiso   1.00
C411   C     0.84830   0.59810   0.24898   0.00000  Uiso   1.00
C412   C     0.83324   0.54945   0.40870   0.00000  Uiso   1.00
C413   C     0.83246   0.49854   0.11565   0.00000  Uiso   1.00
C414   C     0.83228   0.50185   0.38464   0.00000  Uiso   1.00
C415   C     0.84986   0.54332   0.09355   0.00000  Uiso   1.00
C416   C     0.81852   0.45577   0.40615   0.00000  Uiso   1.00
C417   C     0.83640   0.54667   0.04900   0.00000  Uiso   1.00
C418   C     0.80321   0.45829   0.45302   0.00000  Uiso   1.00
C419   C     0.81811   0.50261   0.02468   0.00000  Uiso   1.00
C420   C     0.81728   0.50388   0.47782   0.00000  Uiso   1.00
C421   C     0.79792   0.45851   0.04744   0.00000  Uiso   1.00
C422   C     0.81836   0.40190   0.25113   0.00000  Uiso   1.00
C423   C     0.83056   0.55056   0.45609   0.00000  Uiso   1.00
C424   C     0.83129   0.59398   0.03012   0.00000  Uiso   1.00
C425   C     0.77104   0.41881   0.47616   0.00000  Uiso   1.00
C426   C     0.83898   0.38563   0.12360   0.00000  Uiso   1.00
C427   C     0.77981   0.60790   0.38049   0.00000  Uiso   1.00
C428   C     0.88314   0.58621   0.11743   0.00000  Uiso   1.00
C429   C     0.82188   0.40536   0.37871   0.00000  Uiso   1.00
C430   C     0.75533   0.62241   0.07593   0.00000  Uiso   1.00
C431   C     0.69350   0.39897   0.43670   0.00000  Uiso   1.00
C432   C     0.89321   0.33566   0.47224   0.00000  Uiso   1.00
C433   C     0.83631   0.59667   0.48288   0.00000  Uiso   1.00
C434   C     0.68035   0.41087   0.06484   0.00000  Uiso   1.00
C435   C     0.67344   0.46447   0.19489   0.00000  Uiso   1.00
C436   C     0.99292   0.53664   0.30451   0.00000  Uiso   1.00
C437   C     0.76642   0.42033   0.02365   0.00000  Uiso   1.00
C438   C     0.85617   0.65238   0.24825   0.00000  Uiso   1.00
C439   C     0.81049   0.34764   0.25191   0.00000  Uiso   1.00
C440   C     0.83358   0.50145   0.33641   0.00000  Uiso   1.00
C441   C     0.83308   0.49903   0.16365   0.00000  Uiso   1.00
C442   C     0.80681   0.45590   0.09340   0.00000  Uiso   1.00
H443   H     0.89959   0.33541   0.24460   0.00000  Uiso   1.00
H444   H     0.85650   0.60208   0.14708   0.00000  Uiso   1.00
H445   H     0.92187   0.57095   0.12945   0.00000  Uiso   1.00
H446   H     0.82566   0.37292   0.40040   0.00000  Uiso   1.00
H447   H     0.78404   0.39882   0.35911   0.00000  Uiso   1.00
H448   H     0.86096   0.40562   0.35479   0.00000  Uiso   1.00
H449   H     0.75278   0.58820   0.09685   0.00000  Uiso   1.00
H450   H     0.72544   0.61654   0.04895   0.00000  Uiso   1.00
H451   H     0.74028   0.65387   0.09966   0.00000  Uiso   1.00
H452   H     0.70449   0.43132   0.41408   0.00000  Uiso   1.00
H453   H     0.99544   0.41111   0.46484   0.00000  Uiso   1.00
H454   H     0.76707   0.66461   0.25555   0.00000  Uiso   1.00
H455   H     0.67273   0.36789   0.41626   0.00000  Uiso   1.00
H456   H     0.92968   0.64454   0.46116   0.00000  Uiso   1.00
H457   H     0.89875   0.37080   0.45261   0.00000  Uiso   1.00
H458   H     0.89409   0.34800   0.00861   0.00000  Uiso   1.00
H459   H     0.99543   0.43457   0.04014   0.00000  Uiso   1.00
H460   H     0.69001   0.43528   0.09516   0.00000  Uiso   1.00
H461   H     0.98040   0.38150   0.07598   0.00000  Uiso   1.00
H462   H     0.97313   0.43973   0.17980   0.00000  Uiso   1.00
H463   H     0.68594   0.49544   0.17119   0.00000  Uiso   1.00
H464   H     0.70857   0.43937   0.19905   0.00000  Uiso   1.00
H465   H     0.86537   0.40589   0.14850   0.00000  Uiso   1.00
H466   H     0.69243   0.56327   0.31809   0.00000  Uiso   1.00
H467   H     0.95694   0.56044   0.29992   0.00000  Uiso   1.00
H468   H     0.98178   0.50659   0.32938   0.00000  Uiso   1.00
H469   H     0.86578   0.37803   0.09131   0.00000  Uiso   1.00
H470   H     0.82468   0.34869   0.13835   0.00000  Uiso   1.00
H471   H     0.76218   0.62903   0.41145   0.00000  Uiso   1.00
H472   H     0.74993   0.57463   0.37417   0.00000  Uiso   1.00
H473   H     0.78049   0.63304   0.35141   0.00000  Uiso   1.00
H474   H     0.89835   0.61753   0.09485   0.00000  Uiso   1.00
N475   N     0.98344   0.48598   0.23783   0.00000  Uiso   1.00
N476   N     0.68322   0.51402   0.26217   0.00000  Uiso   1.00
O477   O     0.79642   0.57952   0.25299   0.00000  Uiso   1.00
O478   O     0.83612   0.59409   0.38526   0.00000  Uiso   1.00
O479   O     0.81145   0.63531   0.05690   0.00000  Uiso   1.00
O480   O     0.74189   0.37964   0.45346   0.00000  Uiso   1.00
O481   O     0.84063   0.64389   0.46352   0.00000  Uiso   1.00
O482   O     0.72903   0.38559   0.04572   0.00000  Uiso   1.00
O483   O     0.87025   0.42048   0.24702   0.00000  Uiso   1.00
O484   O     0.89280   0.57054   0.24519   0.00000  Uiso   1.00
O485   O     0.77387   0.42946   0.25481   0.00000  Uiso   1.00
O486   O     0.78514   0.50450   0.31997   0.00000  Uiso   1.00
O487   O     0.88153   0.49550   0.18003   0.00000  Uiso   1.00
O488   O     0.88152   0.49552   0.31218   0.00000  Uiso   1.00
O489   O     0.78515   0.50448   0.18783   0.00000  Uiso   1.00
O490   O     0.79012   0.41226   0.11670   0.00000  Uiso   1.00
Zn491  Zn    0.76898   0.50600   0.25521   0.00000  Uiso   1.00
Zn492  Zn    0.89769   0.49400   0.24479   0.00000  Uiso   1.00
C493   C     0.18164   0.93144   0.24898   0.00000  Uiso   1.00
C494   C     0.16657   0.88278   0.40870   0.00000  Uiso   1.00
C495   C     0.16579   0.83187   0.11565   0.00000  Uiso   1.00
C496   C     0.16561   0.83518   0.38464   0.00000  Uiso   1.00
C497   C     0.18319   0.87665   0.09355   0.00000  Uiso   1.00
C498   C     0.15186   0.78910   0.40615   0.00000  Uiso   1.00
C499   C     0.16973   0.88001   0.04900   0.00000  Uiso   1.00
C500   C     0.13654   0.79163   0.45302   0.00000  Uiso   1.00
C501   C     0.15145   0.83594   0.02468   0.00000  Uiso   1.00
C502   C     0.15061   0.83721   0.47782   0.00000  Uiso   1.00
C503   C     0.13126   0.79184   0.04744   0.00000  Uiso   1.00
C504   C     0.15169   0.73524   0.25113   0.00000  Uiso   1.00
C505   C     0.16389   0.88389   0.45609   0.00000  Uiso   1.00
C506   C     0.16462   0.92731   0.03012   0.00000  Uiso   1.00
C507   C     0.10438   0.75214   0.47616   0.00000  Uiso   1.00
C508   C     0.17231   0.71896   0.12360   0.00000  Uiso   1.00
C509   C     0.11315   0.94123   0.38049   0.00000  Uiso   1.00
C510   C     0.21647   0.91954   0.11743   0.00000  Uiso   1.00
C511   C     0.15522   0.73869   0.37871   0.00000  Uiso   1.00
C512   C     0.08867   0.95574   0.07593   0.00000  Uiso   1.00
C513   C     0.02683   0.73230   0.43670   0.00000  Uiso   1.00
C514   C     0.22654   0.66899   0.47224   0.00000  Uiso   1.00
C515   C     0.16964   0.93000   0.48288   0.00000  Uiso   1.00
C516   C     0.01368   0.74420   0.06484   0.00000  Uiso   1.00
C517   C     0.00677   0.79780   0.19489   0.00000  Uiso   1.00
C518   C     0.32626   0.86997   0.30451   0.00000  Uiso   1.00
C519   C     0.09976   0.75367   0.02365   0.00000  Uiso   1.00
C520   C     0.18950   0.98571   0.24825   0.00000  Uiso   1.00
C521   C     0.14382   0.68097   0.25191   0.00000  Uiso   1.00
C522   C     0.16691   0.83479   0.33641   0.00000  Uiso   1.00
C523   C     0.16642   0.83236   0.16365   0.00000  Uiso   1.00
C524   C     0.14015   0.78923   0.09340   0.00000  Uiso   1.00
H525   H     0.23292   0.66874   0.24460   0.00000  Uiso   1.00
H526   H     0.18983   0.93541   0.14708   0.00000  Uiso   1.00
H527   H     0.25520   0.90428   0.12945   0.00000  Uiso   1.00
H528   H     0.15899   0.70625   0.40040   0.00000  Uiso   1.00
H529   H     0.11738   0.73215   0.35911   0.00000  Uiso   1.00
H530   H     0.19429   0.73895   0.35479   0.00000  Uiso   1.00
H531   H     0.08612   0.92154   0.09685   0.00000  Uiso   1.00
H532   H     0.05877   0.94987   0.04895   0.00000  Uiso   1.00
H533   H     0.07361   0.98720   0.09966   0.00000  Uiso   1.00
H534   H     0.03782   0.76466   0.41408   0.00000  Uiso   1.00
H535   H     0.32878   0.74444   0.46484   0.00000  Uiso   1.00
H536   H     0.10040   0.99794   0.25555   0.00000  Uiso   1.00
H537   H     0.00606   0.70123   0.41626   0.00000  Uiso   1.00
H538   H     0.26301   0.97788   0.46116   0.00000  Uiso   1.00
H539   H     0.23209   0.70413   0.45261   0.00000  Uiso   1.00
H540   H     0.22742   0.68133   0.00861   0.00000  Uiso   1.00
H541   H     0.32876   0.76790   0.04014   0.00000  Uiso   1.00
H542   H     0.02335   0.76862   0.09516   0.00000  Uiso   1.00
H543   H     0.31373   0.71483   0.07598   0.00000  Uiso   1.00
H544   H     0.30646   0.77306   0.17980   0.00000  Uiso   1.00
H545   H     0.01927   0.82877   0.17119   0.00000  Uiso   1.00
H546   H     0.04190   0.77270   0.19905   0.00000  Uiso   1.00
H547   H     0.19870   0.73922   0.14850   0.00000  Uiso   1.00
H548   H     0.02577   0.89660   0.31809   0.00000  Uiso   1.00
H549   H     0.29027   0.89377   0.29992   0.00000  Uiso   1.00
H550   H     0.31511   0.83992   0.32938   0.00000  Uiso   1.00
H551   H     0.19911   0.71136   0.09131   0.00000  Uiso   1.00
H552   H     0.15801   0.68202   0.13835   0.00000  Uiso   1.00
H553   H     0.09552   0.96236   0.41145   0.00000  Uiso   1.00
H554   H     0.08326   0.90796   0.37417   0.00000  Uiso   1.00
H555   H     0.11382   0.96637   0.35141   0.00000  Uiso   1.00
H556   H     0.23169   0.95087   0.09485   0.00000  Uiso   1.00
N557   N     0.31678   0.81932   0.23783   0.00000  Uiso   1.00
N558   N     0.01656   0.84735   0.26217   0.00000  Uiso   1.00
O559   O     0.12975   0.91286   0.25299   0.00000  Uiso   1.00
O560   O     0.16945   0.92743   0.38526   0.00000  Uiso   1.00
O561   O     0.14478   0.96864   0.05690   0.00000  Uiso   1.00
O562   O     0.07522   0.71297   0.45346   0.00000  Uiso   1.00
O563   O     0.17396   0.97722   0.46352   0.00000  Uiso   1.00
O564   O     0.06236   0.71892   0.04572   0.00000  Uiso   1.00
O565   O     0.20358   0.75381   0.24702   0.00000  Uiso   1.00
O566   O     0.22613   0.90387   0.24519   0.00000  Uiso   1.00
O567   O     0.10720   0.76279   0.25481   0.00000  Uiso   1.00
O568   O     0.11847   0.83784   0.31997   0.00000  Uiso   1.00
O569   O     0.21486   0.82883   0.18003   0.00000  Uiso   1.00
O570   O     0.21485   0.82885   0.31218   0.00000  Uiso   1.00
O571   O     0.11848   0.83781   0.18783   0.00000  Uiso   1.00
O572   O     0.12346   0.74559   0.11670   0.00000  Uiso   1.00
Zn573  Zn    0.10231   0.83933   0.25521   0.00000  Uiso   1.00
Zn574  Zn    0.23102   0.82734   0.24479   0.00000  Uiso   1.00
C575   C     0.51497   0.93144   0.24898   0.00000  Uiso   1.00
C576   C     0.49990   0.88278   0.40870   0.00000  Uiso   1.00
C577   C     0.49913   0.83187   0.11565   0.00000  Uiso   1.00
C578   C     0.49894   0.83518   0.38464   0.00000  Uiso   1.00
C579   C     0.51653   0.87665   0.09355   0.00000  Uiso   1.00
C580   C     0.48519   0.78910   0.40615   0.00000  Uiso   1.00
C581   C     0.50306   0.88001   0.04900   0.00000  Uiso   1.00
C582   C     0.46987   0.79163   0.45302   0.00000  Uiso   1.00
C583   C     0.48478   0.83594   0.02468   0.00000  Uiso   1.00
C584   C     0.48394   0.83721   0.47782   0.00000  Uiso   1.00
C585   C     0.46459   0.79184   0.04744   0.00000  Uiso   1.00
C586   C     0.48503   0.73524   0.25113   0.00000  Uiso   1.00
C587   C     0.49723   0.88389   0.45609   0.00000  Uiso   1.00
C588   C     0.49796   0.92731   0.03012   0.00000  Uiso   1.00
C589   C     0.43771   0.75214   0.47616   0.00000  Uiso   1.00
C590   C     0.50565   0.71896   0.12360   0.00000  Uiso   1.00
C591   C     0.44648   0.94123   0.38049   0.00000  Uiso   1.00
C592   C     0.54980   0.91954   0.11743   0.00000  Uiso   1.00
C593   C     0.48855   0.73869   0.37871   0.00000  Uiso   1.00
C594   C     0.42200   0.95574   0.07593   0.00000  Uiso   1.00
C595   C     0.36016   0.73230   0.43670   0.00000  Uiso   1.00
C596   C     0.55987   0.66899   0.47224   0.00000  Uiso   1.00
C597   C     0.50297   0.93000   0.48288   0.00000  Uiso   1.00
C598   C     0.34702   0.74420   0.06484   0.00000  Uiso   1.00
C599   C     0.34010   0.79780   0.19489   0.00000  Uiso   1.00
C600   C     0.65959   0.86997   0.30451   0.00000  Uiso   1.00
C601   C     0.43309   0.75367   0.02365   0.00000  Uiso   1.00
C602   C     0.52284   0.98571   0.24825   0.00000  Uiso   1.00
C603   C     0.47715   0.68097   0.25191   0.00000  Uiso   1.00
C604   C     0.50025   0.83479   0.33641   0.00000  Uiso   1.00
C605   C     0.49975   0.83236   0.16365   0.00000  Uiso   1.00
C606   C     0.47348   0.78923   0.09340   0.00000  Uiso   1.00
H607   H     0.56626   0.66874   0.24460   0.00000  Uiso   1.00
H608   H     0.52316   0.93541   0.14708   0.00000  Uiso   1.00
H609   H     0.58853   0.90428   0.12945   0.00000  Uiso   1.00
H610   H     0.49233   0.70625   0.40040   0.00000  Uiso   1.00
H611   H     0.45071   0.73215   0.35911   0.00000  Uiso   1.00
H612   H     0.52762   0.73895   0.35479   0.00000  Uiso   1.00
H613   H     0.41945   0.92154   0.09685   0.00000  Uiso   1.00
H614   H     0.39211   0.94987   0.04895   0.00000  Uiso   1.00
H615   H     0.40695   0.98720   0.09966   0.00000  Uiso   1.00
H616   H     0.37116   0.76466   0.41408   0.00000  Uiso   1.00
H617   H     0.66211   0.74444   0.46484   0.00000  Uiso   1.00
H618   H     0.43373   0.99794   0.25555   0.00000  Uiso   1.00
H619   H     0.33939   0.70123   0.41626   0.00000  Uiso   1.00
H620   H     0.59634   0.97788   0.46116   0.00000  Uiso   1.00
H621   H     0.56542   0.70413   0.45261   0.00000  Uiso   1.00
H622   H     0.56075   0.68133   0.00861   0.00000  Uiso   1.00
H623   H     0.66209   0.76790   0.04014   0.00000  Uiso   1.00
H624   H     0.35668   0.76862   0.09516   0.00000  Uiso   1.00
H625   H     0.64707   0.71483   0.07598   0.00000  Uiso   1.00
H626   H     0.63979   0.77306   0.17980   0.00000  Uiso   1.00
H627   H     0.35260   0.82877   0.17119   0.00000  Uiso   1.00
H628   H     0.37524   0.77270   0.19905   0.00000  Uiso   1.00
H629   H     0.53204   0.73922   0.14850   0.00000  Uiso   1.00
H630   H     0.35910   0.89660   0.31809   0.00000  Uiso   1.00
H631   H     0.62361   0.89377   0.29992   0.00000  Uiso   1.00
H632   H     0.64845   0.83992   0.32938   0.00000  Uiso   1.00
H633   H     0.53244   0.71136   0.09131   0.00000  Uiso   1.00
H634   H     0.49134   0.68202   0.13835   0.00000  Uiso   1.00
H635   H     0.42885   0.96236   0.41145   0.00000  Uiso   1.00
H636   H     0.41659   0.90796   0.37417   0.00000  Uiso   1.00
H637   H     0.44715   0.96637   0.35141   0.00000  Uiso   1.00
H638   H     0.56502   0.95087   0.09485   0.00000  Uiso   1.00
N639   N     0.65011   0.81932   0.23783   0.00000  Uiso   1.00
N640   N     0.34989   0.84735   0.26217   0.00000  Uiso   1.00
O641   O     0.46308   0.91286   0.25299   0.00000  Uiso   1.00
O642   O     0.50278   0.92743   0.38526   0.00000  Uiso   1.00
O643   O     0.47811   0.96864   0.05690   0.00000  Uiso   1.00
O644   O     0.40855   0.71297   0.45346   0.00000  Uiso   1.00
O645   O     0.50730   0.97722   0.46352   0.00000  Uiso   1.00
O646   O     0.39570   0.71892   0.04572   0.00000  Uiso   1.00
O647   O     0.53692   0.75381   0.24702   0.00000  Uiso   1.00
O648   O     0.55946   0.90387   0.24519   0.00000  Uiso   1.00
O649   O     0.44054   0.76279   0.25481   0.00000  Uiso   1.00
O650   O     0.45181   0.83784   0.31997   0.00000  Uiso   1.00
O651   O     0.54819   0.82883   0.18003   0.00000  Uiso   1.00
O652   O     0.54819   0.82885   0.31218   0.00000  Uiso   1.00
O653   O     0.45181   0.83781   0.18783   0.00000  Uiso   1.00
O654   O     0.45679   0.74559   0.11670   0.00000  Uiso   1.00
Zn655  Zn    0.43565   0.83933   0.25521   0.00000  Uiso   1.00
Zn656  Zn    0.56435   0.82734   0.24479   0.00000  Uiso   1.00
C657   C     0.84830   0.93144   0.24898   0.00000  Uiso   1.00
C658   C     0.83324   0.88278   0.40870   0.00000  Uiso   1.00
C659   C     0.83246   0.83187   0.11565   0.00000  Uiso   1.00
C660   C     0.83228   0.83518   0.38464   0.00000  Uiso   1.00
C661   C     0.84986   0.87665   0.09355   0.00000  Uiso   1.00
C662   C     0.81852   0.78910   0.40615   0.00000  Uiso   1.00
C663   C     0.83640   0.88001   0.04900   0.00000  Uiso   1.00
C664   C     0.80321   0.79163   0.45302   0.00000  Uiso   1.00
C665   C     0.81811   0.83594   0.02468   0.00000  Uiso   1.00
C666   C     0.81728   0.83721   0.47782   0.00000  Uiso   1.00
C667   C     0.79792   0.79184   0.04744   0.00000  Uiso   1.00
C668   C     0.81836   0.73524   0.25113   0.00000  Uiso   1.00
C669   C     0.83056   0.88389   0.45609   0.00000  Uiso   1.00
C670   C     0.83129   0.92731   0.03012   0.00000  Uiso   1.00
C671   C     0.77104   0.75214   0.47616   0.00000  Uiso   1.00
C672   C     0.83898   0.71896   0.12360   0.00000  Uiso   1.00
C673   C     0.77981   0.94123   0.38049   0.00000  Uiso   1.00
C674   C     0.88314   0.91954   0.11743   0.00000  Uiso   1.00
C675   C     0.82188   0.73869   0.37871   0.00000  Uiso   1.00
C676   C     0.75533   0.95574   0.07593   0.00000  Uiso   1.00
C677   C     0.69350   0.73230   0.43670   0.00000  Uiso   1.00
C678   C     0.89321   0.66899   0.47224   0.00000  Uiso   1.00
C679   C     0.83631   0.93000   0.48288   0.00000  Uiso   1.00
C680   C     0.68035   0.74420   0.06484   0.00000  Uiso   1.00
C681   C     0.67344   0.79780   0.19489   0.00000  Uiso   1.00
C682   C     0.99292   0.86997   0.30451   0.00000  Uiso   1.00
C683   C     0.76642   0.75367   0.02365   0.00000  Uiso   1.00
C684   C     0.85617   0.98571   0.24825   0.00000  Uiso   1.00
C685   C     0.81049   0.68097   0.25191   0.00000  Uiso   1.00
C686   C     0.83358   0.83479   0.33641   0.00000  Uiso   1.00
C687   C     0.83308   0.83236   0.16365   0.00000  Uiso   1.00
C688   C     0.80681   0.78923   0.09340   0.00000  Uiso   1.00
H689   H     0.89959   0.66874   0.24460   0.00000  Uiso   1.00
H690   H     0.85650   0.93541   0.14708   0.00000  Uiso   1.00
H691   H     0.92187   0.90428   0.12945   0.00000  Uiso   1.00
H692   H     0.82566   0.70625   0.40040   0.00000  Uiso   1.00
H693   H     0.78404   0.73215   0.35911   0.00000  Uiso   1.00
H694   H     0.86096   0.73895   0.35479   0.00000  Uiso   1.00
H695   H     0.75278   0.92154   0.09685   0.00000  Uiso   1.00
H696   H     0.72544   0.94987   0.04895   0.00000  Uiso   1.00
H697   H     0.74028   0.98720   0.09966   0.00000  Uiso   1.00
H698   H     0.70449   0.76466   0.41408   0.00000  Uiso   1.00
H699   H     0.99544   0.74444   0.46484   0.00000  Uiso   1.00
H700   H     0.76707   0.99794   0.25555   0.00000  Uiso   1.00
H701   H     0.67273   0.70123   0.41626   0.00000  Uiso   1.00
H702   H     0.92968   0.97788   0.46116   0.00000  Uiso   1.00
H703   H     0.89875   0.70413   0.45261   0.00000  Uiso   1.00
H704   H     0.89409   0.68133   0.00861   0.00000  Uiso   1.00
H705   H     0.99543   0.76790   0.04014   0.00000  Uiso   1.00
H706   H     0.69001   0.76862   0.09516   0.00000  Uiso   1.00
H707   H     0.98040   0.71483   0.07598   0.00000  Uiso   1.00
H708   H     0.97313   0.77306   0.17980   0.00000  Uiso   1.00
H709   H     0.68594   0.82877   0.17119   0.00000  Uiso   1.00
H710   H     0.70857   0.77270   0.19905   0.00000  Uiso   1.00
H711   H     0.86537   0.73922   0.14850   0.00000  Uiso   1.00
H712   H     0.69243   0.89660   0.31809   0.00000  Uiso   1.00
H713   H     0.95694   0.89377   0.29992   0.00000  Uiso   1.00
H714   H     0.98178   0.83992   0.32938   0.00000  Uiso   1.00
H715   H     0.86578   0.71136   0.09131   0.00000  Uiso   1.00
H716   H     0.82468   0.68202   0.13835   0.00000  Uiso   1.00
H717   H     0.76218   0.96236   0.41145   0.00000  Uiso   1.00
H718   H     0.74993   0.90796   0.37417   0.00000  Uiso   1.00
H719   H     0.78049   0.96637   0.35141   0.00000  Uiso   1.00
H720   H     0.89835   0.95087   0.09485   0.00000  Uiso   1.00
N721   N     0.98344   0.81932   0.23783   0.00000  Uiso   1.00
N722   N     0.68322   0.84735   0.26217   0.00000  Uiso   1.00
O723   O     0.79642   0.91286   0.25299   0.00000  Uiso   1.00
O724   O     0.83612   0.92743   0.38526   0.00000  Uiso   1.00
O725   O     0.81145   0.96864   0.05690   0.00000  Uiso   1.00
O726   O     0.74189   0.71297   0.45346   0.00000  Uiso   1.00
O727   O     0.84063   0.97722   0.46352   0.00000  Uiso   1.00
O728   O     0.72903   0.71892   0.04572   0.00000  Uiso   1.00
O729   O     0.87025   0.75381   0.24702   0.00000  Uiso   1.00
O730   O     0.89280   0.90387   0.24519   0.00000  Uiso   1.00
O731   O     0.77387   0.76279   0.25481   0.00000  Uiso   1.00
O732   O     0.78514   0.83784   0.31997   0.00000  Uiso   1.00
O733   O     0.88153   0.82883   0.18003   0.00000  Uiso   1.00
O734   O     0.88152   0.82885   0.31218   0.00000  Uiso   1.00
O735   O     0.78515   0.83781   0.18783   0.00000  Uiso   1.00
O736   O     0.79012   0.74559   0.11670   0.00000  Uiso   1.00
Zn737  Zn    0.76898   0.83933   0.25521   0.00000  Uiso   1.00
Zn738  Zn    0.89769   0.82734   0.24479   0.00000  Uiso   1.00
C739   C     0.18164   0.26477   0.74898   0.00000  Uiso   1.00
C740   C     0.16657   0.21611   0.90870   0.00000  Uiso   1.00
C741   C     0.16579   0.16521   0.61565   0.00000  Uiso   1.00
C742   C     0.16561   0.16851   0.88464   0.00000  Uiso   1.00
C743   C     0.18319   0.20999   0.59355   0.00000  Uiso   1.00
C744   C     0.15186   0.12244   0.90615   0.00000  Uiso   1.00
C745   C     0.16973   0.21334   0.54900   0.00000  Uiso   1.00
C746   C     0.13654   0.12496   0.95302   0.00000  Uiso   1.00
C747   C     0.15145   0.16928   0.52468   0.00000  Uiso   1.00
C748   C     0.15061   0.17054   0.97782   0.00000  Uiso   1.00
C749   C     0.13126   0.12518   0.54744   0.00000  Uiso   1.00
C750   C     0.15169   0.06857   0.75113   0.00000  Uiso   1.00
C751   C     0.16389   0.21722   0.95609   0.00000  Uiso   1.00
C752   C     0.16462   0.26064   0.53012   0.00000  Uiso   1.00
C753   C     0.10438   0.08547   0.97616   0.00000  Uiso   1.00
C754   C     0.17231   0.05230   0.62360   0.00000  Uiso   1.00
C755   C     0.11315   0.27457   0.88049   0.00000  Uiso   1.00
C756   C     0.21647   0.25288   0.61743   0.00000  Uiso   1.00
C757   C     0.15522   0.07203   0.87871   0.00000  Uiso   1.00
C758   C     0.08867   0.28908   0.57593   0.00000  Uiso   1.00
C759   C     0.02683   0.06564   0.93670   0.00000  Uiso   1.00
C760   C     0.22654   0.00232   0.97224   0.00000  Uiso   1.00
C761   C     0.16964   0.26334   0.98288   0.00000  Uiso   1.00
C762   C     0.01368   0.07753   0.56484   0.00000  Uiso   1.00
C763   C     0.00677   0.13114   0.69489   0.00000  Uiso   1.00
C764   C     0.32626   0.20331   0.80451   0.00000  Uiso   1.00
C765   C     0.09976   0.08700   0.52365   0.00000  Uiso   1.00
C766   C     0.18950   0.31904   0.74825   0.00000  Uiso   1.00
C767   C     0.14382   0.01430   0.75191   0.00000  Uiso   1.00
C768   C     0.16691   0.16812   0.83641   0.00000  Uiso   1.00
C769   C     0.16642   0.16569   0.66365   0.00000  Uiso   1.00
C770   C     0.14015   0.12257   0.59340   0.00000  Uiso   1.00
H771   H     0.23292   0.00208   0.74460   0.00000  Uiso   1.00
H772   H     0.18983   0.26874   0.64708   0.00000  Uiso   1.00
H773   H     0.25520   0.23762   0.62945   0.00000  Uiso   1.00
H774   H     0.15899   0.03958   0.90040   0.00000  Uiso   1.00
H775   H     0.11738   0.06548   0.85911   0.00000  Uiso   1.00
H776   H     0.19429   0.07228   0.85479   0.00000  Uiso   1.00
H777   H     0.08612   0.25487   0.59685   0.00000  Uiso   1.00
H778   H     0.05877   0.28320   0.54895   0.00000  Uiso   1.00
H779   H     0.07361   0.32054   0.59966   0.00000  Uiso   1.00
H780   H     0.03782   0.09799   0.91408   0.00000  Uiso   1.00
H781   H     0.32878   0.07778   0.96484   0.00000  Uiso   1.00
H782   H     0.10040   0.33127   0.75555   0.00000  Uiso   1.00
H783   H     0.00606   0.03456   0.91626   0.00000  Uiso   1.00
H784   H     0.26301   0.31121   0.96116   0.00000  Uiso   1.00
H785   H     0.23209   0.03747   0.95261   0.00000  Uiso   1.00
H786   H     0.22742   0.01467   0.50861   0.00000  Uiso   1.00
H787   H     0.32876   0.10124   0.54014   0.00000  Uiso   1.00
H788   H     0.02335   0.10195   0.59516   0.00000  Uiso   1.00
H789   H     0.31373   0.04816   0.57598   0.00000  Uiso   1.00
H790   H     0.30646   0.10640   0.67980   0.00000  Uiso   1.00
H791   H     0.01927   0.16210   0.67119   0.00000  Uiso   1.00
H792   H     0.04190   0.10604   0.69905   0.00000  Uiso   1.00
H793   H     0.19870   0.07256   0.64850   0.00000  Uiso   1.00
H794   H     0.02577   0.22994   0.81809   0.00000  Uiso   1.00
H795   H     0.29027   0.22710   0.79992   0.00000  Uiso   1.00
H796   H     0.31511   0.17325   0.82938   0.00000  Uiso   1.00
H797   H     0.19911   0.04469   0.59131   0.00000  Uiso   1.00
H798   H     0.15801   0.01535   0.63835   0.00000  Uiso   1.00
H799   H     0.09552   0.29570   0.91145   0.00000  Uiso   1.00
H800   H     0.08326   0.24129   0.87417   0.00000  Uiso   1.00
H801   H     0.11382   0.29971   0.85141   0.00000  Uiso   1.00
H802   H     0.23169   0.28420   0.59485   0.00000  Uiso   1.00
N803   N     0.31678   0.15265   0.73783   0.00000  Uiso   1.00
N804   N     0.01656   0.18068   0.76217   0.00000  Uiso   1.00
O805   O     0.12975   0.24619   0.75299   0.00000  Uiso   1.00
O806   O     0.16945   0.26076   0.88526   0.00000  Uiso   1.00
O807   O     0.14478   0.30198   0.55690   0.00000  Uiso   1.00
O808   O     0.07522   0.04631   0.95346   0.00000  Uiso   1.00
O809   O     0.17396   0.31056   0.96352   0.00000  Uiso   1.00
O810   O     0.06236   0.05225   0.54572   0.00000  Uiso   1.00
O811   O     0.20358   0.08714   0.74702   0.00000  Uiso   1.00
O812   O     0.22613   0.23721   0.74519   0.00000  Uiso   1.00
O813   O     0.10720   0.09613   0.75481   0.00000  Uiso   1.00
O814   O     0.11847   0.17117   0.81997   0.00000  Uiso   1.00
O815   O     0.21486   0.16216   0.68003   0.00000  Uiso   1.00
O816   O     0.21485   0.16219   0.81218   0.00000  Uiso   1.00
O817   O     0.11848   0.17115   0.68783   0.00000  Uiso   1.00
O818   O     0.12346   0.07892   0.61670   0.00000  Uiso   1.00
Zn819  Zn    0.10231   0.17266   0.75521   0.00000  Uiso   1.00
Zn820  Zn    0.23102   0.16067   0.74479   0.00000  Uiso   1.00
C821   C     0.51497   0.26477   0.74898   0.00000  Uiso   1.00
C822   C     0.49990   0.21611   0.90870   0.00000  Uiso   1.00
C823   C     0.49913   0.16521   0.61565   0.00000  Uiso   1.00
C824   C     0.49894   0.16851   0.88464   0.00000  Uiso   1.00
C825   C     0.51653   0.20999   0.59355   0.00000  Uiso   1.00
C826   C     0.48519   0.12244   0.90615   0.00000  Uiso   1.00
C827   C     0.50306   0.21334   0.54900   0.00000  Uiso   1.00
C828   C     0.46987   0.12496   0.95302   0.00000  Uiso   1.00
C829   C     0.48478   0.16928   0.52468   0.00000  Uiso   1.00
C830   C     0.48394   0.17054   0.97782   0.00000  Uiso   1.00
C831   C     0.46459   0.12518   0.54744   0.00000  Uiso   1.00
C832   C     0.48503   0.06857   0.75113   0.00000  Uiso   1.00
C833   C     0.49723   0.21722   0.95609   0.00000  Uiso   1.00
C834   C     0.49796   0.26064   0.53012   0.00000  Uiso   1.00
C835   C     0.43771   0.08547   0.97616   0.00000  Uiso   1.00
C836   C     0.50565   0.05230   0.62360   0.00000  Uiso   1.00
C837   C     0.44648   0.27457   0.88049   0.00000  Uiso   1.00
C838   C     0.54980   0.25288   0.61743   0.00000  Uiso   1.00
C839   C     0.48855   0.07203   0.87871   0.00000  Uiso   1.00
C840   C     0.42200   0.28908   0.57593   0.00000  Uiso   1.00
C841   C     0.36016   0.06564   0.93670   0.00000  Uiso   1.00
C842   C     0.55987   0.00232   0.97224   0.00000  Uiso   1.00
C843   C     0.50297   0.26334   0.98288   0.00000  Uiso   1.00
C844   C     0.34702   0.07753   0.56484   0.00000  Uiso   1.00
C845   C     0.34010   0.13114   0.69489   0.00000  Uiso   1.00
C846   C     0.65959   0.20331   0.80451   0.00000  Uiso   1.00
C847   C     0.43309   0.08700   0.52365   0.00000  Uiso   1.00
C848   C     0.52284   0.31904   0.74825   0.00000  Uiso   1.00
C849   C     0.47715   0.01430   0.75191   0.00000  Uiso   1.00
C850   C     0.50025   0.16812   0.83641   0.00000  Uiso   1.00
C851   C     0.49975   0.16569   0.66365   0.00000  Uiso   1.00
C852   C     0.47348   0.12257   0.59340   0.00000  Uiso   1.00
H853   H     0.56626   0.00208   0.74460   0.00000  Uiso   1.00
H854   H     0.52316   0.26874   0.64708   0.00000  Uiso   1.00
H855   H     0.58853   0.23762   0.62945   0.00000  Uiso   1.00
H856   H     0.49233   0.03958   0.90040   0.00000  Uiso   1.00
H857   H     0.45071   0.06548   0.85911   0.00000  Uiso   1.00
H858   H     0.52762   0.07228   0.85479   0.00000  Uiso   1.00
H859   H     0.41945   0.25487   0.59685   0.00000  Uiso   1.00
H860   H     0.39211   0.28320   0.54895   0.00000  Uiso   1.00
H861   H     0.40695   0.32054   0.59966   0.00000  Uiso   1.00
H862   H     0.37116   0.09799   0.91408   0.00000  Uiso   1.00
H863   H     0.66211   0.07778   0.96484   0.00000  Uiso   1.00
H864   H     0.43373   0.33127   0.75555   0.00000  Uiso   1.00
H865   H     0.33939   0.03456   0.91626   0.00000  Uiso   1.00
H866   H     0.59634   0.31121   0.96116   0.00000  Uiso   1.00
H867   H     0.56542   0.03747   0.95261   0.00000  Uiso   1.00
H868   H     0.56075   0.01467   0.50861   0.00000  Uiso   1.00
H869   H     0.66209   0.10124   0.54014   0.00000  Uiso   1.00
H870   H     0.35668   0.10195   0.59516   0.00000  Uiso   1.00
H871   H     0.64707   0.04816   0.57598   0.00000  Uiso   1.00
H872   H     0.63979   0.10640   0.67980   0.00000  Uiso   1.00
H873   H     0.35260   0.16210   0.67119   0.00000  Uiso   1.00
H874   H     0.37524   0.10604   0.69905   0.00000  Uiso   1.00
H875   H     0.53204   0.07256   0.64850   0.00000  Uiso   1.00
H876   H     0.35910   0.22994   0.81809   0.00000  Uiso   1.00
H877   H     0.62361   0.22710   0.79992   0.00000  Uiso   1.00
H878   H     0.64845   0.17325   0.82938   0.00000  Uiso   1.00
H879   H     0.53244   0.04469   0.59131   0.00000  Uiso   1.00
H880   H     0.49134   0.01535   0.63835   0.00000  Uiso   1.00
H881   H     0.42885   0.29570   0.91145   0.00000  Uiso   1.00
H882   H     0.41659   0.24129   0.87417   0.00000  Uiso   1.00
H883   H     0.44715   0.29971   0.85141   0.00000  Uiso   1.00
H884   H     0.56502   0.28420   0.59485   0.00000  Uiso   1.00
N885   N     0.65011   0.15265   0.73783   0.00000  Uiso   1.00
N886   N     0.34989   0.18068   0.76217   0.00000  Uiso   1.00
O887   O     0.46308   0.24619   0.75299   0.00000  Uiso   1.00
O888   O     0.50278   0.26076   0.88526   0.00000  Uiso   1.00
O889   O     0.47811   0.30198   0.55690   0.00000  Uiso   1.00
O890   O     0.40855   0.04631   0.95346   0.00000  Uiso   1.00
O891   O     0.50730   0.31056   0.96352   0.00000  Uiso   1.00
O892   O     0.39570   0.05225   0.54572   0.00000  Uiso   1.00
O893   O     0.53692   0.08714   0.74702   0.00000  Uiso   1.00
O894   O     0.55946   0.23721   0.74519   0.00000  Uiso   1.00
O895   O     0.44054   0.09613   0.75481   0.00000  Uiso   1.00
O896   O     0.45181   0.17117   0.81997   0.00000  Uiso   1.00
O897   O     0.54819   0.16216   0.68003   0.00000  Uiso   1.00
O898   O     0.54819   0.16219   0.81218   0.00000  Uiso   1.00
O899   O     0.45181   0.17115   0.68783   0.00000  Uiso   1.00
O900   O     0.45679   0.07892   0.61670   0.00000  Uiso   1.00
Zn901  Zn    0.43565   0.17266   0.75521   0.00000  Uiso   1.00
Zn902  Zn    0.56435   0.16067   0.74479   0.00000  Uiso   1.00
C903   C     0.84830   0.26477   0.74898   0.00000  Uiso   1.00
C904   C     0.83324   0.21611   0.90870   0.00000  Uiso   1.00
C905   C     0.83246   0.16521   0.61565   0.00000  Uiso   1.00
C906   C     0.83228   0.16851   0.88464   0.00000  Uiso   1.00
C907   C     0.84986   0.20999   0.59355   0.00000  Uiso   1.00
C908   C     0.81852   0.12244   0.90615   0.00000  Uiso   1.00
C909   C     0.83640   0.21334   0.54900   0.00000  Uiso   1.00
C910   C     0.80321   0.12496   0.95302   0.00000  Uiso   1.00
C911   C     0.81811   0.16928   0.52468   0.00000  Uiso   1.00
C912   C     0.81728   0.17054   0.97782   0.00000  Uiso   1.00
C913   C     0.79792   0.12518   0.54744   0.00000  Uiso   1.00
C914   C     0.81836   0.06857   0.75113   0.00000  Uiso   1.00
C915   C     0.83056   0.21722   0.95609   0.00000  Uiso   1.00
C916   C     0.83129   0.26064   0.53012   0.00000  Uiso   1.00
C917   C     0.77104   0.08547   0.97616   0.00000  Uiso   1.00
C918   C     0.83898   0.05230   0.62360   0.00000  Uiso   1.00
C919   C     0.77981   0.27457   0.88049   0.00000  Uiso   1.00
C920   C     0.88314   0.25288   0.61743   0.00000  Uiso   1.00
C921   C     0.82188   0.07203   0.87871   0.00000  Uiso   1.00
C922   C     0.75533   0.28908   0.57593   0.00000  Uiso   1.00
C923   C     0.69350   0.06564   0.93670   0.00000  Uiso   1.00
C924   C     0.89321   0.00232   0.97224   0.00000  Uiso   1.00
C925   C     0.83631   0.26334   0.98288   0.00000  Uiso   1.00
C926   C     0.68035   0.07753   0.56484   0.00000  Uiso   1.00
C927   C     0.67344   0.13114   0.69489   0.00000  Uiso   1.00
C928   C     0.99292   0.20331   0.80451   0.00000  Uiso   1.00
C929   C     0.76642   0.08700   0.52365   0.00000  Uiso   1.00
C930   C     0.85617   0.31904   0.74825   0.00000  Uiso   1.00
C931   C     0.81049   0.01430   0.75191   0.00000  Uiso   1.00
C932   C     0.83358   0.16812   0.83641   0.00000  Uiso   1.00
C933   C     0.83308   0.16569   0.66365   0.00000  Uiso   1.00
C934   C     0.80681   0.12257   0.59340   0.00000  Uiso   1.00
H935   H     0.89959   0.00208   0.74460   0.00000  Uiso   1.00
H936   H     0.85650   0.26874   0.64708   0.00000  Uiso   1.00
H937   H     0.92187   0.23762   0.62945   0.00000  Uiso   1.00
H938   H     0.82566   0.03958   0.90040   0.00000  Uiso   1.00
H939   H     0.78404   0.06548   0.85911   0.00000  Uiso   1.00
H940   H     0.86096   0.07228   0.85479   0.00000  Uiso   1.00
H941   H     0.75278   0.25487   0.59685   0.00000  Uiso   1.00
H942   H     0.72544   0.28320   0.54895   0.00000  Uiso   1.00
H943   H     0.74028   0.32054   0.59966   0.00000  Uiso   1.00
H944   H     0.70449   0.09799   0.91408   0.00000  Uiso   1.00
H945   H     0.99544   0.07778   0.96484   0.00000  Uiso   1.00
H946   H     0.76707   0.33127   0.75555   0.00000  Uiso   1.00
H947   H     0.67273   0.03456   0.91626   0.00000  Uiso   1.00
H948   H     0.92968   0.31121   0.96116   0.00000  Uiso   1.00
H949   H     0.89875   0.03747   0.95261   0.00000  Uiso   1.00
H950   H     0.89409   0.01467   0.50861   0.00000  Uiso   1.00
H951   H     0.99543   0.10124   0.54014   0.00000  Uiso   1.00
H952   H     0.69001   0.10195   0.59516   0.00000  Uiso   1.00
H953   H     0.98040   0.04816   0.57598   0.00000  Uiso   1.00
H954   H     0.97313   0.10640   0.67980   0.00000  Uiso   1.00
H955   H     0.68594   0.16210   0.67119   0.00000  Uiso   1.00
H956   H     0.70857   0.10604   0.69905   0.00000  Uiso   1.00
H957   H     0.86537   0.07256   0.64850   0.00000  Uiso   1.00
H958   H     0.69243   0.22994   0.81809   0.00000  Uiso   1.00
H959   H     0.95694   0.22710   0.79992   0.00000  Uiso   1.00
H960   H     0.98178   0.17325   0.82938   0.00000  Uiso   1.00
H961   H     0.86578   0.04469   0.59131   0.00000  Uiso   1.00
H962   H     0.82468   0.01535   0.63835   0.00000  Uiso   1.00
H963   H     0.76218   0.29570   0.91145   0.00000  Uiso   1.00
H964   H     0.74993   0.24129   0.87417   0.00000  Uiso   1.00
H965   H     0.78049   0.29971   0.85141   0.00000  Uiso   1.00
H966   H     0.89835   0.28420   0.59485   0.00000  Uiso   1.00
N967   N     0.98344   0.15265   0.73783   0.00000  Uiso   1.00
N968   N     0.68322   0.18068   0.76217   0.00000  Uiso   1.00
O969   O     0.79642   0.24619   0.75299   0.00000  Uiso   1.00
O970   O     0.83612   0.26076   0.88526   0.00000  Uiso   1.00
O971   O     0.81145   0.30198   0.55690   0.00000  Uiso   1.00
O972   O     0.74189   0.04631   0.95346   0.00000  Uiso   1.00
O973   O     0.84063   0.31056   0.96352   0.00000  Uiso   1.00
O974   O     0.72903   0.05225   0.54572   0.00000  Uiso   1.00
O975   O     0.87025   0.08714   0.74702   0.00000  Uiso   1.00
O976   O     0.89280   0.23721   0.74519   0.00000  Uiso   1.00
O977   O     0.77387   0.09613   0.75481   0.00000  Uiso   1.00
O978   O     0.78514   0.17117   0.81997   0.00000  Uiso   1.00
O979   O     0.88153   0.16216   0.68003   0.00000  Uiso   1.00
O980   O     0.88152   0.16219   0.81218   0.00000  Uiso   1.00
O981   O     0.78515   0.17115   0.68783   0.00000  Uiso   1.00
O982   O     0.79012   0.07892   0.61670   0.00000  Uiso   1.00
Zn983  Zn    0.76898   0.17266   0.75521   0.00000  Uiso   1.00
Zn984  Zn    0.89769   0.16067   0.74479   0.00000  Uiso   1.00
C985   C     0.18164   0.59810   0.74898   0.00000  Uiso   1.00
C986   C     0.16657   0.54945   0.90870   0.00000  Uiso   1.00
C987   C     0.16579   0.49854   0.61565   0.00000  Uiso   1.00
C988   C     0.16561   0.50185   0.88464   0.00000  Uiso   1.00
C989   C     0.18319   0.54332   0.59355   0.00000  Uiso   1.00
C990   C     0.15186   0.45577   0.90615   0.00000  Uiso   1.00
C991   C     0.16973   0.54667   0.54900   0.00000  Uiso   1.00
C992   C     0.13654   0.45829   0.95302   0.00000  Uiso   1.00
C993   C     0.15145   0.50261   0.52468   0.00000  Uiso   1.00
C994   C     0.15061   0.50388   0.97782   0.00000  Uiso   1.00
C995   C     0.13126   0.45851   0.54744   0.00000  Uiso   1.00
C996   C     0.15169   0.40190   0.75113   0.00000  Uiso   1.00
C997   C     0.16389   0.55056   0.95609   0.00000  Uiso   1.00
C998   C     0.16462   0.59398   0.53012   0.00000  Uiso   1.00
C999   C     0.10438   0.41881   0.97616   0.00000  Uiso   1.00
C1000  C     0.17231   0.38563   0.62360   0.00000  Uiso   1.00
C1001  C     0.11315   0.60790   0.88049   0.00000  Uiso   1.00
C1002  C     0.21647   0.58621   0.61743   0.00000  Uiso   1.00
C1003  C     0.15522   0.40536   0.87871   0.00000  Uiso   1.00
C1004  C     0.08867   0.62241   0.57593   0.00000  Uiso   1.00
C1005  C     0.02683   0.39897   0.93670   0.00000  Uiso   1.00
C1006  C     0.22654   0.33566   0.97224   0.00000  Uiso   1.00
C1007  C     0.16964   0.59667   0.98288   0.00000  Uiso   1.00
C1008  C     0.01368   0.41087   0.56484   0.00000  Uiso   1.00
C1009  C     0.00677   0.46447   0.69489   0.00000  Uiso   1.00
C1010  C     0.32626   0.53664   0.80451   0.00000  Uiso   1.00
C1011  C     0.09976   0.42033   0.52365   0.00000  Uiso   1.00
C1012  C     0.18950   0.65238   0.74825   0.00000  Uiso   1.00
C1013  C     0.14382   0.34764   0.75191   0.00000  Uiso   1.00
C1014  C     0.16691   0.50145   0.83641   0.00000  Uiso   1.00
C1015  C     0.16642   0.49903   0.66365   0.00000  Uiso   1.00
C1016  C     0.14015   0.45590   0.59340   0.00000  Uiso   1.00
H1017  H     0.23292   0.33541   0.74460   0.00000  Uiso   1.00
H1018  H     0.18983   0.60208   0.64708   0.00000  Uiso   1.00
H1019  H     0.25520   0.57095   0.62945   0.00000  Uiso   1.00
H1020  H     0.15899   0.37292   0.90040   0.00000  Uiso   1.00
H1021  H     0.11738   0.39882   0.85911   0.00000  Uiso   1.00
H1022  H     0.19429   0.40562   0.85479   0.00000  Uiso   1.00
H1023  H     0.08612   0.58820   0.59685   0.00000  Uiso   1.00
H1024  H     0.05877   0.61654   0.54895   0.00000  Uiso   1.00
H1025  H     0.07361   0.65387   0.59966   0.00000  Uiso   1.00
H1026  H     0.03782   0.43132   0.91408   0.00000  Uiso   1.00
H1027  H     0.32878   0.41111   0.96484   0.00000  Uiso   1.00
H1028  H     0.10040   0.66461   0.75555   0.00000  Uiso   1.00
H1029  H     0.00606   0.36789   0.91626   0.00000  Uiso   1.00
H1030  H     0.26301   0.64454   0.96116   0.00000  Uiso   1.00
H1031  H     0.23209   0.37080   0.95261   0.00000  Uiso   1.00
H1032  H     0.22742   0.34800   0.50861   0.00000  Uiso   1.00
H1033  H     0.32876   0.43457   0.54014   0.00000  Uiso   1.00
H1034  H     0.02335   0.43528   0.59516   0.00000  Uiso   1.00
H1035  H     0.31373   0.38150   0.57598   0.00000  Uiso   1.00
H1036  H     0.30646   0.43973   0.67980   0.00000  Uiso   1.00
H1037  H     0.01927   0.49544   0.67119   0.00000  Uiso   1.00
H1038  H     0.04190   0.43937   0.69905   0.00000  Uiso   1.00
H1039  H     0.19870   0.40589   0.64850   0.00000  Uiso   1.00
H1040  H     0.02577   0.56327   0.81809   0.00000  Uiso   1.00
H1041  H     0.29027   0.56044   0.79992   0.00000  Uiso   1.00
H1042  H     0.31511   0.50659   0.82938   0.00000  Uiso   1.00
H1043  H     0.19911   0.37803   0.59131   0.00000  Uiso   1.00
H1044  H     0.15801   0.34869   0.63835   0.00000  Uiso   1.00
H1045  H     0.09552   0.62903   0.91145   0.00000  Uiso   1.00
H1046  H     0.08326   0.57463   0.87417   0.00000  Uiso   1.00
H1047  H     0.11382   0.63304   0.85141   0.00000  Uiso   1.00
H1048  H     0.23169   0.61753   0.59485   0.00000  Uiso   1.00
N1049  N     0.31678   0.48598   0.73783   0.00000  Uiso   1.00
N1050  N     0.01656   0.51402   0.76217   0.00000  Uiso   1.00
O1051  O     0.12975   0.57952   0.75299   0.00000  Uiso   1.00
O1052  O     0.16945   0.59409   0.88526   0.00000  Uiso   1.00
O1053  O     0.14478   0.63531   0.55690   0.00000  Uiso   1.00
O1054  O     0.07522   0.37964   0.95346   0.00000  Uiso   1.00
O1055  O     0.17396   0.64389   0.96352   0.00000  Uiso   1.00
O1056  O     0.06236   0.38559   0.54572   0.00000  Uiso   1.00
O1057  O     0.20358   0.42048   0.74702   0.00000  Uiso   1.00
O1058  O     0.22613   0.57054   0.74519   0.00000  Uiso   1.00
O1059  O     0.10720   0.42946   0.75481   0.00000  Uiso   1.00
O1060  O     0.11847   0.50450   0.81997   0.00000  Uiso   1.00
O1061  O     0.21486   0.49550   0.68003   0.00000  Uiso   1.00
O1062  O     0.21485   0.49552   0.81218   0.00000  Uiso   1.00
O1063  O     0.11848   0.50448   0.68783   0.00000  Uiso   1.00
O1064  O     0.12346   0.41226   0.61670   0.00000  Uiso   1.00
Zn1065 Zn    0.10231   0.50600   0.75521   0.00000  Uiso   1.00
Zn1066 Zn    0.23102   0.49400   0.74479   0.00000  Uiso   1.00
C1067  C     0.51497   0.59810   0.74898   0.00000  Uiso   1.00
C1068  C     0.49990   0.54945   0.90870   0.00000  Uiso   1.00
C1069  C     0.49913   0.49854   0.61565   0.00000  Uiso   1.00
C1070  C     0.49894   0.50185   0.88464   0.00000  Uiso   1.00
C1071  C     0.51653   0.54332   0.59355   0.00000  Uiso   1.00
C1072  C     0.48519   0.45577   0.90615   0.00000  Uiso   1.00
C1073  C     0.50306   0.54667   0.54900   0.00000  Uiso   1.00
C1074  C     0.46987   0.45829   0.95302   0.00000  Uiso   1.00
C1075  C     0.48478   0.50261   0.52468   0.00000  Uiso   1.00
C1076  C     0.48394   0.50388   0.97782   0.00000  Uiso   1.00
C1077  C     0.46459   0.45851   0.54744   0.00000  Uiso   1.00
C1078  C     0.48503   0.40190   0.75113   0.00000  Uiso   1.00
C1079  C     0.49723   0.55056   0.95609   0.00000  Uiso   1.00
C1080  C     0.49796   0.59398   0.53012   0.00000  Uiso   1.00
C1081  C     0.43771   0.41881   0.97616   0.00000  Uiso   1.00
C1082  C     0.50565   0.38563   0.62360   0.00000  Uiso   1.00
C1083  C     0.44648   0.60790   0.88049   0.00000  Uiso   1.00
C1084  C     0.54980   0.58621   0.61743   0.00000  Uiso   1.00
C1085  C     0.48855   0.40536   0.87871   0.00000  Uiso   1.00
C1086  C     0.42200   0.62241   0.57593   0.00000  Uiso   1.00
C1087  C     0.36016   0.39897   0.93670   0.00000  Uiso   1.00
C1088  C     0.55987   0.33566   0.97224   0.00000  Uiso   1.00
C1089  C     0.50297   0.59667   0.98288   0.00000  Uiso   1.00
C1090  C     0.34702   0.41087   0.56484   0.00000  Uiso   1.00
C1091  C     0.34010   0.46447   0.69489   0.00000  Uiso   1.00
C1092  C     0.65959   0.53664   0.80451   0.00000  Uiso   1.00
C1093  C     0.43309   0.42033   0.52365   0.00000  Uiso   1.00
C1094  C     0.52284   0.65238   0.74825   0.00000  Uiso   1.00
C1095  C     0.47715   0.34764   0.75191   0.00000  Uiso   1.00
C1096  C     0.50025   0.50145   0.83641   0.00000  Uiso   1.00
C1097  C     0.49975   0.49903   0.66365   0.00000  Uiso   1.00
C1098  C     0.47348   0.45590   0.59340   0.00000  Uiso   1.00
H1099  H     0.56626   0.33541   0.74460   0.00000  Uiso   1.00
H1100  H     0.52316   0.60208   0.64708   0.00000  Uiso   1.00
H1101  H     0.58853   0.57095   0.62945   0.00000  Uiso   1.00
H1102  H     0.49233   0.37292   0.90040   0.00000  Uiso   1.00
H1103  H     0.45071   0.39882   0.85911   0.00000  Uiso   1.00
H1104  H     0.52762   0.40562   0.85479   0.00000  Uiso   1.00
H1105  H     0.41945   0.58820   0.59685   0.00000  Uiso   1.00
H1106  H     0.39211   0.61654   0.54895   0.00000  Uiso   1.00
H1107  H     0.40695   0.65387   0.59966   0.00000  Uiso   1.00
H1108  H     0.37116   0.43132   0.91408   0.00000  Uiso   1.00
H1109  H     0.66211   0.41111   0.96484   0.00000  Uiso   1.00
H1110  H     0.43373   0.66461   0.75555   0.00000  Uiso   1.00
H1111  H     0.33939   0.36789   0.91626   0.00000  Uiso   1.00
H1112  H     0.59634   0.64454   0.96116   0.00000  Uiso   1.00
H1113  H     0.56542   0.37080   0.95261   0.00000  Uiso   1.00
H1114  H     0.56075   0.34800   0.50861   0.00000  Uiso   1.00
H1115  H     0.66209   0.43457   0.54014   0.00000  Uiso   1.00
H1116  H     0.35668   0.43528   0.59516   0.00000  Uiso   1.00
H1117  H     0.64707   0.38150   0.57598   0.00000  Uiso   1.00
H1118  H     0.63979   0.43973   0.67980   0.00000  Uiso   1.00
H1119  H     0.35260   0.49544   0.67119   0.00000  Uiso   1.00
H1120  H     0.37524   0.43937   0.69905   0.00000  Uiso   1.00
H1121  H     0.53204   0.40589   0.64850   0.00000  Uiso   1.00
H1122  H     0.35910   0.56327   0.81809   0.00000  Uiso   1.00
H1123  H     0.62361   0.56044   0.79992   0.00000  Uiso   1.00
H1124  H     0.64845   0.50659   0.82938   0.00000  Uiso   1.00
H1125  H     0.53244   0.37803   0.59131   0.00000  Uiso   1.00
H1126  H     0.49134   0.34869   0.63835   0.00000  Uiso   1.00
H1127  H     0.42885   0.62903   0.91145   0.00000  Uiso   1.00
H1128  H     0.41659   0.57463   0.87417   0.00000  Uiso   1.00
H1129  H     0.44715   0.63304   0.85141   0.00000  Uiso   1.00
H1130  H     0.56502   0.61753   0.59485   0.00000  Uiso   1.00
N1131  N     0.65011   0.48598   0.73783   0.00000  Uiso   1.00
N1132  N     0.34989   0.51402   0.76217   0.00000  Uiso   1.00
O1133  O     0.46308   0.57952   0.75299   0.00000  Uiso   1.00
O1134  O     0.50278   0.59409   0.88526   0.00000  Uiso   1.00
O1135  O     0.47811   0.63531   0.55690   0.00000  Uiso   1.00
O1136  O     0.40855   0.37964   0.95346   0.00000  Uiso   1.00
O1137  O     0.50730   0.64389   0.96352   0.00000  Uiso   1.00
O1138  O     0.39570   0.38559   0.54572   0.00000  Uiso   1.00
O1139  O     0.53692   0.42048   0.74702   0.00000  Uiso   1.00
O1140  O     0.55946   0.57054   0.74519   0.00000  Uiso   1.00
O1141  O     0.44054   0.42946   0.75481   0.00000  Uiso   1.00
O1142  O     0.45181   0.50450   0.81997   0.00000  Uiso   1.00
O1143  O     0.54819   0.49550   0.68003   0.00000  Uiso   1.00
O1144  O     0.54819   0.49552   0.81218   0.00000  Uiso   1.00
O1145  O     0.45181   0.50448   0.68783   0.00000  Uiso   1.00
O1146  O     0.45679   0.41226   0.61670   0.00000  Uiso   1.00
Zn1147 Zn    0.43565   0.50600   0.75521   0.00000  Uiso   1.00
Zn1148 Zn    0.56435   0.49400   0.74479   0.00000  Uiso   1.00
C1149  C     0.84830   0.59810   0.74898   0.00000  Uiso   1.00
C1150  C     0.83324   0.54945   0.90870   0.00000  Uiso   1.00
C1151  C     0.83246   0.49854   0.61565   0.00000  Uiso   1.00
C1152  C     0.83228   0.50185   0.88464   0.00000  Uiso   1.00
C1153  C     0.84986   0.54332   0.59355   0.00000  Uiso   1.00
C1154  C     0.81852   0.45577   0.90615   0.00000  Uiso   1.00
C1155  C     0.83640   0.54667   0.54900   0.00000  Uiso   1.00
C1156  C     0.80321   0.45829   0.95302   0.00000  Uiso   1.00
C1157  C     0.81811   0.50261   0.52468   0.00000  Uiso   1.00
C1158  C     0.81728   0.50388   0.97782   0.00000  Uiso   1.00
C1159  C     0.79792   0.45851   0.54744   0.00000  Uiso   1.00
C1160  C     0.81836   0.40190   0.75113   0.00000  Uiso   1.00
C1161  C     0.83056   0.55056   0.95609   0.00000  Uiso   1.00
C1162  C     0.83129   0.59398   0.53012   0.00000  Uiso   1.00
C1163  C     0.77104   0.41881   0.97616   0.00000  Uiso   1.00
C1164  C     0.83898   0.38563   0.62360   0.00000  Uiso   1.00
C1165  C     0.77981   0.60790   0.88049   0.00000  Uiso   1.00
C1166  C     0.88314   0.58621   0.61743   0.00000  Uiso   1.00
C1167  C     0.82188   0.40536   0.87871   0.00000  Uiso   1.00
C1168  C     0.75533   0.62241   0.57593   0.00000  Uiso   1.00
C1169  C     0.69350   0.39897   0.93670   0.00000  Uiso   1.00
C1170  C     0.89321   0.33566   0.97224   0.00000  Uiso   1.00
C1171  C     0.83631   0.59667   0.98288   0.00000  Uiso   1.00
C1172  C     0.68035   0.41087   0.56484   0.00000  Uiso   1.00
C1173  C     0.67344   0.46447   0.69489   0.00000  Uiso   1.00
C1174  C     0.99292   0.53664   0.80451   0.00000  Uiso   1.00
C1175  C     0.76642   0.42033   0.52365   0.00000  Uiso   1.00
C1176  C     0.85617   0.65238   0.74825   0.00000  Uiso   1.00
C1177  C     0.81049   0.34764   0.75191   0.00000  Uiso   1.00
C1178  C     0.83358   0.50145   0.83641   0.00000  Uiso   1.00
C1179  C     0.83308   0.49903   0.66365   0.00000  Uiso   1.00
C1180  C     0.80681   0.45590   0.59340   0.00000  Uiso   1.00
H1181  H     0.89959   0.33541   0.74460   0.00000  Uiso   1.00
H1182  H     0.85650   0.60208   0.64708   0.00000  Uiso   1.00
H1183  H     0.92187   0.57095   0.62945   0.00000  Uiso   1.00
H1184  H     0.82566   0.37292   0.90040   0.00000  Uiso   1.00
H1185  H     0.78404   0.39882   0.85911   0.00000  Uiso   1.00
H1186  H     0.86096   0.40562   0.85479   0.00000  Uiso   1.00
H1187  H     0.75278   0.58820   0.59685   0.00000  Uiso   1.00
H1188  H     0.72544   0.61654   0.54895   0.00000  Uiso   1.00
H1189  H     0.74028   0.65387   0.59966   0.00000  Uiso   1.00
H1190  H     0.70449   0.43132   0.91408   0.00000  Uiso   1.00
H1191  H     0.99544   0.41111   0.96484   0.00000  Uiso   1.00
H1192  H     0.76707   0.66461   0.75555   0.00000  Uiso   1.00
H1193  H     0.67273   0.36789   0.91626   0.00000  Uiso   1.00
H1194  H     0.92968   0.64454   0.96116   0.00000  Uiso   1.00
H1195  H     0.89875   0.37080   0.95261   0.00000  Uiso   1.00
H1196  H     0.89409   0.34800   0.50861   0.00000  Uiso   1.00
H1197  H     0.99543   0.43457   0.54014   0.00000  Uiso   1.00
H1198  H     0.69001   0.43528   0.59516   0.00000  Uiso   1.00
H1199  H     0.98040   0.38150   0.57598   0.00000  Uiso   1.00
H1200  H     0.97313   0.43973   0.67980   0.00000  Uiso   1.00
H1201  H     0.68594   0.49544   0.67119   0.00000  Uiso   1.00
H1202  H     0.70857   0.43937   0.69905   0.00000  Uiso   1.00
H1203  H     0.86537   0.40589   0.64850   0.00000  Uiso   1.00
H1204  H     0.69243   0.56327   0.81809   0.00000  Uiso   1.00
H1205  H     0.95694   0.56044   0.79992   0.00000  Uiso   1.00
H1206  H     0.98178   0.50659   0.82938   0.00000  Uiso   1.00
H1207  H     0.86578   0.37803   0.59131   0.00000  Uiso   1.00
H1208  H     0.82468   0.34869   0.63835   0.00000  Uiso   1.00
H1209  H     0.76218   0.62903   0.91145   0.00000  Uiso   1.00
H1210  H     0.74993   0.57463   0.87417   0.00000  Uiso   1.00
H1211  H     0.78049   0.63304   0.85141   0.00000  Uiso   1.00
H1212  H     0.89835   0.61753   0.59485   0.00000  Uiso   1.00
N1213  N     0.98344   0.48598   0.73783   0.00000  Uiso   1.00
N1214  N     0.68322   0.51402   0.76217   0.00000  Uiso   1.00
O1215  O     0.79642   0.57952   0.75299   0.00000  Uiso   1.00
O1216  O     0.83612   0.59409   0.88526   0.00000  Uiso   1.00
O1217  O     0.81145   0.63531   0.55690   0.00000  Uiso   1.00
O1218  O     0.74189   0.37964   0.95346   0.00000  Uiso   1.00
O1219  O     0.84063   0.64389   0.96352   0.00000  Uiso   1.00
O1220  O     0.72903   0.38559   0.54572   0.00000  Uiso   1.00
O1221  O     0.87025   0.42048   0.74702   0.00000  Uiso   1.00
O1222  O     0.89280   0.57054   0.74519   0.00000  Uiso   1.00
O1223  O     0.77387   0.42946   0.75481   0.00000  Uiso   1.00
O1224  O     0.78514   0.50450   0.81997   0.00000  Uiso   1.00
O1225  O     0.88153   0.49550   0.68003   0.00000  Uiso   1.00
O1226  O     0.88152   0.49552   0.81218   0.00000  Uiso   1.00
O1227  O     0.78515   0.50448   0.68783   0.00000  Uiso   1.00
O1228  O     0.79012   0.41226   0.61670   0.00000  Uiso   1.00
Zn1229 Zn    0.76898   0.50600   0.75521   0.00000  Uiso   1.00
Zn1230 Zn    0.89769   0.49400   0.74479   0.00000  Uiso   1.00
C1231  C     0.18164   0.93144   0.74898   0.00000  Uiso   1.00
C1232  C     0.16657   0.88278   0.90870   0.00000  Uiso   1.00
C1233  C     0.16579   0.83187   0.61565   0.00000  Uiso   1.00
C1234  C     0.16561   0.83518   0.88464   0.00000  Uiso   1.00
C1235  C     0.18319   0.87665   0.59355   0.00000  Uiso   1.00
C1236  C     0.15186   0.78910   0.90615   0.00000  Uiso   1.00
C1237  C     0.16973   0.88001   0.54900   0.00000  Uiso   1.00
C1238  C     0.13654   0.79163   0.95302   0.00000  Uiso   1.00
C1239  C     0.15145   0.83594   0.52468   0.00000  Uiso   1.00
C1240  C     0.15061   0.83721   0.97782   0.00000  Uiso   1.00
C1241  C     0.13126   0.79184   0.54744   0.00000  Uiso   1.00
C1242  C     0.15169   0.73524   0.75113   0.00000  Uiso   1.00
C1243  C     0.16389   0.88389   0.95609   0.00000  Uiso   1.00
C1244  C     0.16462   0.92731   0.53012   0.00000  Uiso   1.00
C1245  C     0.10438   0.75214   0.97616   0.00000  Uiso   1.00
C1246  C     0.17231   0.71896   0.62360   0.00000  Uiso   1.00
C1247  C     0.11315   0.94123   0.88049   0.00000  Uiso   1.00
C1248  C     0.21647   0.91954   0.61743   0.00000  Uiso   1.00
C1249  C     0.15522   0.73869   0.87871   0.00000  Uiso   1.00
C1250  C     0.08867   0.95574   0.57593   0.00000  Uiso   1.00
C1251  C     0.02683   0.73230   0.93670   0.00000  Uiso   1.00
C1252  C     0.22654   0.66899   0.97224   0.00000  Uiso   1.00
C1253  C     0.16964   0.93000   0.98288   0.00000  Uiso   1.00
C1254  C     0.01368   0.74420   0.56484   0.00000  Uiso   1.00
C1255  C     0.00677   0.79780   0.69489   0.00000  Uiso   1.00
C1256  C     0.32626   0.86997   0.80451   0.00000  Uiso   1.00
C1257  C     0.09976   0.75367   0.52365   0.00000  Uiso   1.00
C1258  C     0.18950   0.98571   0.74825   0.00000  Uiso   1.00
C1259  C     0.14382   0.68097   0.75191   0.00000  Uiso   1.00
C1260  C     0.16691   0.83479   0.83641   0.00000  Uiso   1.00
C1261  C     0.16642   0.83236   0.66365   0.00000  Uiso   1.00
C1262  C     0.14015   0.78923   0.59340   0.00000  Uiso   1.00
H1263  H     0.23292   0.66874   0.74460   0.00000  Uiso   1.00
H1264  H     0.18983   0.93541   0.64708   0.00000  Uiso   1.00
H1265  H     0.25520   0.90428   0.62945   0.00000  Uiso   1.00
H1266  H     0.15899   0.70625   0.90040   0.00000  Uiso   1.00
H1267  H     0.11738   0.73215   0.85911   0.00000  Uiso   1.00
H1268  H     0.19429   0.73895   0.85479   0.00000  Uiso   1.00
H1269  H     0.08612   0.92154   0.59685   0.00000  Uiso   1.00
H1270  H     0.05877   0.94987   0.54895   0.00000  Uiso   1.00
H1271  H     0.07361   0.98720   0.59966   0.00000  Uiso   1.00
H1272  H     0.03782   0.76466   0.91408   0.00000  Uiso   1.00
H1273  H     0.32878   0.74444   0.96484   0.00000  Uiso   1.00
H1274  H     0.10040   0.99794   0.75555   0.00000  Uiso   1.00
H1275  H     0.00606   0.70123   0.91626   0.00000  Uiso   1.00
H1276  H     0.26301   0.97788   0.96116   0.00000  Uiso   1.00
H1277  H     0.23209   0.70413   0.95261   0.00000  Uiso   1.00
H1278  H     0.22742   0.68133   0.50861   0.00000  Uiso   1.00
H1279  H     0.32876   0.76790   0.54014   0.00000  Uiso   1.00
H1280  H     0.02335   0.76862   0.59516   0.00000  Uiso   1.00
H1281  H     0.31373   0.71483   0.57598   0.00000  Uiso   1.00
H1282  H     0.30646   0.77306   0.67980   0.00000  Uiso   1.00
H1283  H     0.01927   0.82877   0.67119   0.00000  Uiso   1.00
H1284  H     0.04190   0.77270   0.69905   0.00000  Uiso   1.00
H1285  H     0.19870   0.73922   0.64850   0.00000  Uiso   1.00
H1286  H     0.02577   0.89660   0.81809   0.00000  Uiso   1.00
H1287  H     0.29027   0.89377   0.79992   0.00000  Uiso   1.00
H1288  H     0.31511   0.83992   0.82938   0.00000  Uiso   1.00
H1289  H     0.19911   0.71136   0.59131   0.00000  Uiso   1.00
H1290  H     0.15801   0.68202   0.63835   0.00000  Uiso   1.00
H1291  H     0.09552   0.96236   0.91145   0.00000  Uiso   1.00
H1292  H     0.08326   0.90796   0.87417   0.00000  Uiso   1.00
H1293  H     0.11382   0.96637   0.85141   0.00000  Uiso   1.00
H1294  H     0.23169   0.95087   0.59485   0.00000  Uiso   1.00
N1295  N     0.31678   0.81932   0.73783   0.00000  Uiso   1.00
N1296  N     0.01656   0.84735   0.76217   0.00000  Uiso   1.00
O1297  O     0.12975   0.91286   0.75299   0.00000  Uiso   1.00
O1298  O     0.16945   0.92743   0.88526   0.00000  Uiso   1.00
O1299  O     0.14478   0.96864   0.55690   0.00000  Uiso   1.00
O1300  O     0.07522   0.71297   0.95346   0.00000  Uiso   1.00
O1301  O     0.17396   0.97722   0.96352   0.00000  Uiso   1.00
O1302  O     0.06236   0.71892   0.54572   0.00000  Uiso   1.00
O1303  O     0.20358   0.75381   0.74702   0.00000  Uiso   1.00
O1304  O     0.22613   0.90387   0.74519   0.00000  Uiso   1.00
O1305  O     0.10720   0.76279   0.75481   0.00000  Uiso   1.00
O1306  O     0.11847   0.83784   0.81997   0.00000  Uiso   1.00
O1307  O     0.21486   0.82883   0.68003   0.00000  Uiso   1.00
O1308  O     0.21485   0.82885   0.81218   0.00000  Uiso   1.00
O1309  O     0.11848   0.83781   0.68783   0.00000  Uiso   1.00
O1310  O     0.12346   0.74559   0.61670   0.00000  Uiso   1.00
Zn1311 Zn    0.10231   0.83933   0.75521   0.00000  Uiso   1.00
Zn1312 Zn    0.23102   0.82734   0.74479   0.00000  Uiso   1.00
C1313  C     0.51497   0.93144   0.74898   0.00000  Uiso   1.00
C1314  C     0.49990   0.88278   0.90870   0.00000  Uiso   1.00
C1315  C     0.49913   0.83187   0.61565   0.00000  Uiso   1.00
C1316  C     0.49894   0.83518   0.88464   0.00000  Uiso   1.00
C1317  C     0.51653   0.87665   0.59355   0.00000  Uiso   1.00
C1318  C     0.48519   0.78910   0.90615   0.00000  Uiso   1.00
C1319  C     0.50306   0.88001   0.54900   0.00000  Uiso   1.00
C1320  C     0.46987   0.79163   0.95302   0.00000  Uiso   1.00
C1321  C     0.48478   0.83594   0.52468   0.00000  Uiso   1.00
C1322  C     0.48394   0.83721   0.97782   0.00000  Uiso   1.00
C1323  C     0.46459   0.79184   0.54744   0.00000  Uiso   1.00
C1324  C     0.48503   0.73524   0.75113   0.00000  Uiso   1.00
C1325  C     0.49723   0.88389   0.95609   0.00000  Uiso   1.00
C1326  C     0.49796   0.92731   0.53012   0.00000  Uiso   1.00
C1327  C     0.43771   0.75214   0.97616   0.00000  Uiso   1.00
C1328  C     0.50565   0.71896   0.62360   0.00000  Uiso   1.00
C1329  C     0.44648   0.94123   0.88049   0.00000  Uiso   1.00
C1330  C     0.54980   0.91954   0.61743   0.00000  Uiso   1.00
C1331  C     0.48855   0.73869   0.87871   0.00000  Uiso   1.00
C1332  C     0.42200   0.95574   0.57593   0.00000  Uiso   1.00
C1333  C     0.36016   0.73230   0.93670   0.00000  Uiso   1.00
C1334  C     0.55987   0.66899   0.97224   0.00000  Uiso   1.00
C1335  C     0.50297   0.93000   0.98288   0.00000  Uiso   1.00
C1336  C     0.34702   0.74420   0.56484   0.00000  Uiso   1.00
C1337  C     0.34010   0.79780   0.69489   0.00000  Uiso   1.00
C1338  C     0.65959   0.86997   0.80451   0.00000  Uiso   1.00
C1339  C     0.43309   0.75367   0.52365   0.00000  Uiso   1.00
C1340  C     0.52284   0.98571   0.74825   0.00000  Uiso   1.00
C1341  C     0.47715   0.68097   0.75191   0.00000  Uiso   1.00
C1342  C     0.50025   0.83479   0.83641   0.00000  Uiso   1.00
C1343  C     0.49975   0.83236   0.66365   0.00000  Uiso   1.00
C1344  C     0.47348   0.78923   0.59340   0.00000  Uiso   1.00
H1345  H     0.56626   0.66874   0.74460   0.00000  Uiso   1.00
H1346  H     0.52316   0.93541   0.64708   0.00000  Uiso   1.00
H1347  H     0.58853   0.90428   0.62945   0.00000  Uiso   1.00
H1348  H     0.49233   0.70625   0.90040   0.00000  Uiso   1.00
H1349  H     0.45071   0.73215   0.85911   0.00000  Uiso   1.00
H1350  H     0.52762   0.73895   0.85479   0.00000  Uiso   1.00
H1351  H     0.41945   0.92154   0.59685   0.00000  Uiso   1.00
H1352  H     0.39211   0.94987   0.54895   0.00000  Uiso   1.00
H1353  H     0.40695   0.98720   0.59966   0.00000  Uiso   1.00
H1354  H     0.37116   0.76466   0.91408   0.00000  Uiso   1.00
H1355  H     0.66211   0.74444   0.96484   0.00000  Uiso   1.00
H1356  H     0.43373   0.99794   0.75555   0.00000  Uiso   1.00
H1357  H     0.33939   0.70123   0.91626   0.00000  Uiso   1.00
H1358  H     0.59634   0.97788   0.96116   0.00000  Uiso   1.00
H1359  H     0.56542   0.70413   0.95261   0.00000  Uiso   1.00
H1360  H     0.56075   0.68133   0.50861   0.00000  Uiso   1.00
H1361  H     0.66209   0.76790   0.54014   0.00000  Uiso   1.00
H1362  H     0.35668   0.76862   0.59516   0.00000  Uiso   1.00
H1363  H     0.64707   0.71483   0.57598   0.00000  Uiso   1.00
H1364  H     0.63979   0.77306   0.67980   0.00000  Uiso   1.00
H1365  H     0.35260   0.82877   0.67119   0.00000  Uiso   1.00
H1366  H     0.37524   0.77270   0.69905   0.00000  Uiso   1.00
H1367  H     0.53204   0.73922   0.64850   0.00000  Uiso   1.00
H1368  H     0.35910   0.89660   0.81809   0.00000  Uiso   1.00
H1369  H     0.62361   0.89377   0.79992   0.00000  Uiso   1.00
H1370  H     0.64845   0.83992   0.82938   0.00000  Uiso   1.00
H1371  H     0.53244   0.71136   0.59131   0.00000  Uiso   1.00
H1372  H     0.49134   0.68202   0.63835   0.00000  Uiso   1.00
H1373  H     0.42885   0.96236   0.91145   0.00000  Uiso   1.00
H1374  H     0.41659   0.90796   0.87417   0.00000  Uiso   1.00
H1375  H     0.44715   0.96637   0.85141   0.00000  Uiso   1.00
H1376  H     0.56502   0.95087   0.59485   0.00000  Uiso   1.00
N1377  N     0.65011   0.81932   0.73783   0.00000  Uiso   1.00
N1378  N     0.34989   0.84735   0.76217   0.00000  Uiso   1.00
O1379  O     0.46308   0.91286   0.75299   0.00000  Uiso   1.00
O1380  O     0.50278   0.92743   0.88526   0.00000  Uiso   1.00
O1381  O     0.47811   0.96864   0.55690   0.00000  Uiso   1.00
O1382  O     0.40855   0.71297   0.95346   0.00000  Uiso   1.00
O1383  O     0.50730   0.97722   0.96352   0.00000  Uiso   1.00
O1384  O     0.39570   0.71892   0.54572   0.00000  Uiso   1.00
O1385  O     0.53692   0.75381   0.74702   0.00000  Uiso   1.00
O1386  O     0.55946   0.90387   0.74519   0.00000  Uiso   1.00
O1387  O     0.44054   0.76279   0.75481   0.00000  Uiso   1.00
O1388  O     0.45181   0.83784   0.81997   0.00000  Uiso   1.00
O1389  O     0.54819   0.82883   0.68003   0.00000  Uiso   1.00
O1390  O     0.54819   0.82885   0.81218   0.00000  Uiso   1.00
O1391  O     0.45181   0.83781   0.68783   0.00000  Uiso   1.00
O1392  O     0.45679   0.74559   0.61670   0.00000  Uiso   1.00
Zn1393 Zn    0.43565   0.83933   0.75521   0.00000  Uiso   1.00
Zn1394 Zn    0.56435   0.82734   0.74479   0.00000  Uiso   1.00
C1395  C     0.84830   0.93144   0.74898   0.00000  Uiso   1.00
C1396  C     0.83324   0.88278   0.90870   0.00000  Uiso   1.00
C1397  C     0.83246   0.83187   0.61565   0.00000  Uiso   1.00
C1398  C     0.83228   0.83518   0.88464   0.00000  Uiso   1.00
C1399  C     0.84986   0.87665   0.59355   0.00000  Uiso   1.00
C1400  C     0.81852   0.78910   0.90615   0.00000  Uiso   1.00
C1401  C     0.83640   0.88001   0.54900   0.00000  Uiso   1.00
C1402  C     0.80321   0.79163   0.95302   0.00000  Uiso   1.00
C1403  C     0.81811   0.83594   0.52468   0.00000  Uiso   1.00
C1404  C     0.81728   0.83721   0.97782   0.00000  Uiso   1.00
C1405  C     0.79792   0.79184   0.54744   0.00000  Uiso   1.00
C1406  C     0.81836   0.73524   0.75113   0.00000  Uiso   1.00
C1407  C     0.83056   0.88389   0.95609   0.00000  Uiso   1.00
C1408  C     0.83129   0.92731   0.53012   0.00000  Uiso   1.00
C1409  C     0.77104   0.75214   0.97616   0.00000  Uiso   1.00
C1410  C     0.83898   0.71896   0.62360   0.00000  Uiso   1.00
C1411  C     0.77981   0.94123   0.88049   0.00000  Uiso   1.00
C1412  C     0.88314   0.91954   0.61743   0.00000  Uiso   1.00
C1413  C     0.82188   0.73869   0.87871   0.00000  Uiso   1.00
C1414  C     0.75533   0.95574   0.57593   0.00000  Uiso   1.00
C1415  C     0.69350   0.73230   0.93670   0.00000  Uiso   1.00
C1416  C     0.89321   0.66899   0.97224   0.00000  Uiso   1.00
C1417  C     0.83631   0.93000   0.98288   0.00000  Uiso   1.00
C1418  C     0.68035   0.74420   0.56484   0.00000  Uiso   1.00
C1419  C     0.67344   0.79780   0.69489   0.00000  Uiso   1.00
C1420  C     0.99292   0.86997   0.80451   0.00000  Uiso   1.00
C1421  C     0.76642   0.75367   0.52365   0.00000  Uiso   1.00
C1422  C     0.85617   0.98571   0.74825   0.00000  Uiso   1.00
C1423  C     0.81049   0.68097   0.75191   0.00000  Uiso   1.00
C1424  C     0.83358   0.83479   0.83641   0.00000  Uiso   1.00
C1425  C     0.83308   0.83236   0.66365   0.00000  Uiso   1.00
C1426  C     0.80681   0.78923   0.59340   0.00000  Uiso   1.00
H1427  H     0.89959   0.66874   0.74460   0.00000  Uiso   1.00
H1428  H     0.85650   0.93541   0.64708   0.00000  Uiso   1.00
H1429  H     0.92187   0.90428   0.62945   0.00000  Uiso   1.00
H1430  H     0.82566   0.70625   0.90040   0.00000  Uiso   1.00
H1431  H     0.78404   0.73215   0.85911   0.00000  Uiso   1.00
H1432  H     0.86096   0.73895   0.85479   0.00000  Uiso   1.00
H1433  H     0.75278   0.92154   0.59685   0.00000  Uiso   1.00
H1434  H     0.72544   0.94987   0.54895   0.00000  Uiso   1.00
H1435  H     0.74028   0.98720   0.59966   0.00000  Uiso   1.00
H1436  H     0.70449   0.76466   0.91408   0.00000  Uiso   1.00
H1437  H     0.99544   0.74444   0.96484   0.00000  Uiso   1.00
H1438  H     0.76707   0.99794   0.75555   0.00000  Uiso   1.00
H1439  H     0.67273   0.70123   0.91626   0.00000  Uiso   1.00
H1440  H     0.92968   0.97788   0.96116   0.00000  Uiso   1.00
H1441  H     0.89875   0.70413   0.95261   0.00000  Uiso   1.00
H1442  H     0.89409   0.68133   0.50861   0.00000  Uiso   1.00
H1443  H     0.99543   0.76790   0.54014   0.00000  Uiso   1.00
H1444  H     0.69001   0.76862   0.59516   0.00000  Uiso   1.00
H1445  H     0.98040   0.71483   0.57598   0.00000  Uiso   1.00
H1446  H     0.97313   0.77306   0.67980   0.00000  Uiso   1.00
H1447  H     0.68594   0.82877   0.67119   0.00000  Uiso   1.00
H1448  H     0.70857   0.77270   0.69905   0.00000  Uiso   1.00
H1449  H     0.86537   0.73922   0.64850   0.00000  Uiso   1.00
H1450  H     0.69243   0.89660   0.81809   0.00000  Uiso   1.00
H1451  H     0.95694   0.89377   0.79992   0.00000  Uiso   1.00
H1452  H     0.98178   0.83992   0.82938   0.00000  Uiso   1.00
H1453  H     0.86578   0.71136   0.59131   0.00000  Uiso   1.00
H1454  H     0.82468   0.68202   0.63835   0.00000  Uiso   1.00
H1455  H     0.76218   0.96236   0.91145   0.00000  Uiso   1.00
H1456  H     0.74993   0.90796   0.87417   0.00000  Uiso   1.00
H1457  H     0.78049   0.96637   0.85141   0.00000  Uiso   1.00
H1458  H     0.89835   0.95087   0.59485   0.00000  Uiso   1.00
N1459  N     0.98344   0.81932   0.73783   0.00000  Uiso   1.00
N1460  N     0.68322   0.84735   0.76217   0.00000  Uiso   1.00
O1461  O     0.79642   0.91286   0.75299   0.00000  Uiso   1.00
O1462  O     0.83612   0.92743   0.88526   0.00000  Uiso   1.00
O1463  O     0.81145   0.96864   0.55690   0.00000  Uiso   1.00
O1464  O     0.74189   0.71297   0.95346   0.00000  Uiso   1.00
O1465  O     0.84063   0.97722   0.96352   0.00000  Uiso   1.00
O1466  O     0.72903   0.71892   0.54572   0.00000  Uiso   1.00
O1467  O     0.87025   0.75381   0.74702   0.00000  Uiso   1.00
O1468  O     0.89280   0.90387   0.74519   0.00000  Uiso   1.00
O1469  O     0.77387   0.76279   0.75481   0.00000  Uiso   1.00
O1470  O     0.78514   0.83784   0.81997   0.00000  Uiso   1.00
O1471  O     0.88153   0.82883   0.68003   0.00000  Uiso   1.00
O1472  O     0.88152   0.82885   0.81218   0.00000  Uiso   1.00
O1473  O     0.78515   0.83781   0.68783   0.00000  Uiso   1.00
O1474  O     0.79012   0.74559   0.61670   0.00000  Uiso   1.00
Zn1475 Zn    0.76898   0.83933   0.75521   0.00000  Uiso   1.00
Zn1476 Zn    0.89769   0.82734   0.74479   0.00000  Uiso   1.00
loop_
_geom_bond_atom_site_label_1
_geom_bond_atom_site_label_2
_geom_bond_distance
_geom_bond_site_symmetry_2
_ccdc_geom_bond_type
C1     O74     1.297   .     A
C1     C28     1.423   .     S
C1     O67     1.290   .     A
C2     O68     1.384   .     S
C2     C13     1.399   .     A
C2     C4      1.403   .     A
C3     C31     1.423   .     S
C3     C5      1.396   .     A
C3     C32     1.404   .     A
C4     C6      1.401   .     A
C4     C30     1.426   .     S
C5     C7      1.394   .     A
C5     C18     1.517   .     S
C6     C19     1.515   .     S
C6     C8      1.402   .     A
C7     C14     1.399   .     A
C7     C9      1.398   .     A
C8     C15     1.417   .     A
C8     C10     1.409   .     A
C9     C11     1.405   .     A
C9     C748    1.393   1_554 S
C10    C13     1.416   .     A
C10    C747    1.393   .     S
C11    C27     1.411   .     A
C11    C32     1.403   .     A
C12    C29     1.423   .     S
C12    O73     1.290   .     A
C12    O75     1.297   .     A
C13    C23     1.417   .     A
C14    O69     1.384   .     S
C14    C761    1.399   1_554 S
C15    O70     1.384   .     S
C15    C765    1.401   .     S
C16    H60     1.105   .     S
C16    O80     1.413   .     S
C16    H59     1.113   .     S
C16    H55     1.106   .     S
C17    H61     1.106   .     S
C17    H62     1.110   .     S
C17    O68     1.415   .     S
C17    H63     1.109   .     S
C18    H34     1.108   .     S
C18    H35     1.110   .     S
C18    H64     1.109   .     S
C19    H36     1.102   .     S
C19    H37     1.110   .     S
C19    H38     1.110   .     S
C20    H41     1.106   .     S
C20    H40     1.113   .     S
C20    H39     1.110   .     S
C20    O69     1.421   .     S
C21    H45     1.109   .     S
C21    O70     1.412   .     S
C21    H42     1.112   .     S
C21    H207    1.109   1_455 S
C22    H47     1.108   .     S
C22    H538    1.114   1_545 S
C22    H786    1.111   .     S
C22    O563    1.411   1_545 S
C23    O71     1.383   .     S
C23    C752    1.399   .     S
C24    H50     1.109   .     S
C24    O72     1.414   .     S
C24    H213    1.112   1_455 S
C24    H215    1.109   1_455 S
C25    H53     1.110   .     S
C25    H54     1.103   .     S
C25    H216    1.109   1_455 S
C25    N229    1.439   1_455 S
C26    H58     1.110   .     S
C26    H57     1.100   .     S
C26    H138    1.104   .     S
C26    N148    1.438   .     S
C27    O72     1.379   .     S
C27    C753    1.401   1_554 S
C28    C275    1.337   .     S
C28    H279    1.087   .     S
C29    C520    1.337   1_545 S
C29    H536    1.087   1_545 S
C30    O76     1.290   .     A
C30    O78     1.295   .     A
C31    O77     1.291   .     A
C31    O79     1.293   .     A
C32    O80     1.385   .     S
H33    C520    1.087   1_545 S
H43    C103    1.109   .     S
H44    C275    1.087   .     S
H46    C268    1.114   .     S
H48    C760    1.111   1_554 S
H49    C106    1.112   .     S
H51    C106    1.109   .     S
H52    C107    1.109   .     S
H56    C190    1.104   1_455 S
N65    Zn82    2.035   .     S
N65    C107    1.439   .     S
N65    N148    1.287   .     S
N66    Zn81    2.035   .     S
N66    N229    1.287   1_455 S
N66    C190    1.438   1_455 S
O67    Zn81    1.999   .     S
O71    C268    1.411   .     S
O73    Zn82    1.999   .     S
O74    Zn82    2.010   .     S
O75    Zn81    2.010   .     S
O76    Zn81    1.993   .     S
O77    Zn82    1.993   .     S
O78    Zn82    1.997   .     S
O79    Zn81    1.997   .     S
C83    O156    1.297   .     A
C83    C110    1.423   .     S
C83    O149    1.290   .     A
C84    O150    1.384   .     S
C84    C95     1.399   .     A
C84    C86     1.403   .     A
C85    C113    1.423   .     S
C85    C87     1.396   .     A
C85    C114    1.404   .     A
C86    C88     1.401   .     A
C86    C112    1.426   .     S
C87    C89     1.394   .     A
C87    C100    1.517   .     S
C88    C101    1.515   .     S
C88    C90     1.402   .     A
C89    C96     1.399   .     A
C89    C91     1.398   .     A
C90    C97     1.417   .     A
C90    C92     1.409   .     A
C91    C93     1.405   .     A
C91    C830    1.393   1_554 S
C92    C95     1.416   .     A
C92    C829    1.393   .     S
C93    C109    1.411   .     A
C93    C114    1.403   .     A
C94    C111    1.423   .     S
C94    O155    1.290   .     A
C94    O157    1.297   .     A
C95    C105    1.417   .     A
C96    O151    1.384   .     S
C96    C843    1.399   1_554 S
C97    O152    1.384   .     S
C97    C847    1.401   .     S
C98    H142    1.105   .     S
C98    O162    1.413   .     S
C98    H141    1.113   .     S
C98    H137    1.106   .     S
C99    H143    1.106   .     S
C99    H144    1.110   .     S
C99    O150    1.415   .     S
C99    H145    1.109   .     S
C100   H116    1.108   .     S
C100   H117    1.110   .     S
C100   H146    1.109   .     S
C101   H118    1.102   .     S
C101   H119    1.110   .     S
C101   H120    1.110   .     S
C102   H123    1.106   .     S
C102   H122    1.113   .     S
C102   H121    1.110   .     S
C102   O151    1.421   .     S
C103   H127    1.109   .     S
C103   O152    1.412   .     S
C103   H124    1.112   .     S
C104   H129    1.108   .     S
C104   H620    1.114   1_545 S
C104   H868    1.111   .     S
C104   O645    1.411   1_545 S
C105   O153    1.383   .     S
C105   C834    1.399   .     S
C106   H132    1.109   .     S
C106   O154    1.414   .     S
C107   H135    1.110   .     S
C107   H136    1.103   .     S
C108   H140    1.110   .     S
C108   H139    1.100   .     S
C108   H220    1.104   .     S
C108   N230    1.438   .     S
C109   O154    1.379   .     S
C109   C835    1.401   1_554 S
C110   C357    1.337   .     S
C110   H361    1.087   .     S
C111   C602    1.337   1_545 S
C111   H618    1.087   1_545 S
C112   O158    1.290   .     A
C112   O160    1.295   .     A
C113   O159    1.291   .     A
C113   O161    1.293   .     A
C114   O162    1.385   .     S
H115   C602    1.087   1_545 S
H125   C185    1.109   .     S
H126   C357    1.087   .     S
H128   C350    1.114   .     S
H130   C842    1.111   1_554 S
H131   C188    1.112   .     S
H133   C188    1.109   .     S
H134   C189    1.109   .     S
N147   Zn164   2.035   .     S
N147   C189    1.439   .     S
N147   N230    1.287   .     S
N148   Zn163   2.035   .     S
O149   Zn163   1.999   .     S
O153   C350    1.411   .     S
O155   Zn164   1.999   .     S
O156   Zn164   2.010   .     S
O157   Zn163   2.010   .     S
O158   Zn163   1.993   .     S
O159   Zn164   1.993   .     S
O160   Zn164   1.997   .     S
O161   Zn163   1.997   .     S
C165   O238    1.297   .     A
C165   C192    1.423   .     S
C165   O231    1.290   .     A
C166   O232    1.384   .     S
C166   C177    1.399   .     A
C166   C168    1.403   .     A
C167   C195    1.423   .     S
C167   C169    1.396   .     A
C167   C196    1.404   .     A
C168   C170    1.401   .     A
C168   C194    1.426   .     S
C169   C171    1.394   .     A
C169   C182    1.517   .     S
C170   C183    1.515   .     S
C170   C172    1.402   .     A
C171   C178    1.399   .     A
C171   C173    1.398   .     A
C172   C179    1.417   .     A
C172   C174    1.409   .     A
C173   C175    1.405   .     A
C173   C912    1.393   1_554 S
C174   C177    1.416   .     A
C174   C911    1.393   .     S
C175   C191    1.411   .     A
C175   C196    1.403   .     A
C176   C193    1.423   .     S
C176   O237    1.290   .     A
C176   O239    1.297   .     A
C177   C187    1.417   .     A
C178   O233    1.384   .     S
C178   C925    1.399   1_554 S
C179   O234    1.384   .     S
C179   C929    1.401   .     S
C180   H224    1.105   .     S
C180   O244    1.413   .     S
C180   H223    1.113   .     S
C180   H219    1.106   .     S
C181   H225    1.106   .     S
C181   H226    1.110   .     S
C181   O232    1.415   .     S
C181   H227    1.109   .     S
C182   H198    1.108   .     S
C182   H199    1.110   .     S
C182   H228    1.109   .     S
C183   H200    1.102   .     S
C183   H201    1.110   .     S
C183   H202    1.110   .     S
C184   H205    1.106   .     S
C184   H204    1.113   .     S
C184   H203    1.110   .     S
C184   O233    1.421   .     S
C185   H209    1.109   .     S
C185   O234    1.412   .     S
C185   H206    1.112   .     S
C186   H211    1.108   .     S
C186   H702    1.114   1_545 S
C186   H950    1.111   .     S
C186   O727    1.411   1_545 S
C187   O235    1.383   .     S
C187   C916    1.399   .     S
C188   H214    1.109   .     S
C188   O236    1.414   .     S
C189   H217    1.110   .     S
C189   H218    1.103   .     S
C190   H222    1.110   .     S
C190   H221    1.100   .     S
C190   H56     1.104   1_655 S
C190   N66     1.438   1_655 S
C191   O236    1.379   .     S
C191   C917    1.401   1_554 S
C192   C439    1.337   .     S
C192   H443    1.087   .     S
C193   C684    1.337   1_545 S
C193   H700    1.087   1_545 S
C194   O240    1.290   .     A
C194   O242    1.295   .     A
C195   O241    1.291   .     A
C195   O243    1.293   .     A
C196   O244    1.385   .     S
H197   C684    1.087   1_545 S
H207   C21     1.109   1_655 S
H208   C439    1.087   .     S
H210   C432    1.114   .     S
H212   C924    1.111   1_554 S
H213   C24     1.112   1_655 S
H215   C24     1.109   1_655 S
H216   C25     1.109   1_655 S
N229   Zn246   2.035   .     S
N229   C25     1.439   1_655 S
N229   N66     1.287   1_655 S
N230   Zn245   2.035   .     S
O231   Zn245   1.999   .     S
O235   C432    1.411   .     S
O237   Zn246   1.999   .     S
O238   Zn246   2.010   .     S
O239   Zn245   2.010   .     S
O240   Zn245   1.993   .     S
O241   Zn246   1.993   .     S
O242   Zn246   1.997   .     S
O243   Zn245   1.997   .     S
C247   O320    1.297   .     A
C247   C274    1.423   .     S
C247   O313    1.290   .     A
C248   O314    1.384   .     S
C248   C259    1.399   .     A
C248   C250    1.403   .     A
C249   C277    1.423   .     S
C249   C251    1.396   .     A
C249   C278    1.404   .     A
C250   C252    1.401   .     A
C250   C276    1.426   .     S
C251   C253    1.394   .     A
C251   C264    1.517   .     S
C252   C265    1.515   .     S
C252   C254    1.402   .     A
C253   C260    1.399   .     A
C253   C255    1.398   .     A
C254   C261    1.417   .     A
C254   C256    1.409   .     A
C255   C257    1.405   .     A
C255   C994    1.393   1_554 S
C256   C259    1.416   .     A
C256   C993    1.393   .     S
C257   C273    1.411   .     A
C257   C278    1.403   .     A
C258   C275    1.423   .     S
C258   O319    1.290   .     A
C258   O321    1.297   .     A
C259   C269    1.417   .     A
C260   O315    1.384   .     S
C260   C1007   1.399   1_554 S
C261   O316    1.384   .     S
C261   C1011   1.401   .     S
C262   H306    1.105   .     S
C262   O326    1.413   .     S
C262   H305    1.113   .     S
C262   H301    1.106   .     S
C263   H307    1.106   .     S
C263   H308    1.110   .     S
C263   O314    1.415   .     S
C263   H309    1.109   .     S
C264   H280    1.108   .     S
C264   H281    1.110   .     S
C264   H310    1.109   .     S
C265   H282    1.102   .     S
C265   H283    1.110   .     S
C265   H284    1.110   .     S
C266   H287    1.106   .     S
C266   H286    1.113   .     S
C266   H285    1.110   .     S
C266   O315    1.421   .     S
C267   H291    1.109   .     S
C267   O316    1.412   .     S
C267   H288    1.112   .     S
C267   H453    1.109   1_455 S
C268   H293    1.108   .     S
C268   H1032   1.111   .     S
C269   O317    1.383   .     S
C269   C998    1.399   .     S
C270   H296    1.109   .     S
C270   O318    1.414   .     S
C270   H459    1.112   1_455 S
C270   H461    1.109   1_455 S
C271   H299    1.110   .     S
C271   H300    1.103   .     S
C271   H462    1.109   1_455 S
C271   N475    1.439   1_455 S
C272   H304    1.110   .     S
C272   H303    1.100   .     S
C272   H384    1.104   .     S
C272   N394    1.438   .     S
C273   O318    1.379   .     S
C273   C999    1.401   1_554 S
C274   C521    1.337   .     S
C274   H525    1.087   .     S
C276   O322    1.290   .     A
C276   O324    1.295   .     A
C277   O323    1.291   .     A
C277   O325    1.293   .     A
C278   O326    1.385   .     S
H289   C349    1.109   .     S
H290   C521    1.087   .     S
H292   C514    1.114   .     S
H294   C1006   1.111   1_554 S
H295   C352    1.112   .     S
H297   C352    1.109   .     S
H298   C353    1.109   .     S
H302   C436    1.104   1_455 S
N311   Zn328   2.035   .     S
N311   C353    1.439   .     S
N311   N394    1.287   .     S
N312   Zn327   2.035   .     S
N312   N475    1.287   1_455 S
N312   C436    1.438   1_455 S
O313   Zn327   1.999   .     S
O317   C514    1.411   .     S
O319   Zn328   1.999   .     S
O320   Zn328   2.010   .     S
O321   Zn327   2.010   .     S
O322   Zn327   1.993   .     S
O323   Zn328   1.993   .     S
O324   Zn328   1.997   .     S
O325   Zn327   1.997   .     S
C329   O402    1.297   .     A
C329   C356    1.423   .     S
C329   O395    1.290   .     A
C330   O396    1.384   .     S
C330   C341    1.399   .     A
C330   C332    1.403   .     A
C331   C359    1.423   .     S
C331   C333    1.396   .     A
C331   C360    1.404   .     A
C332   C334    1.401   .     A
C332   C358    1.426   .     S
C333   C335    1.394   .     A
C333   C346    1.517   .     S
C334   C347    1.515   .     S
C334   C336    1.402   .     A
C335   C342    1.399   .     A
C335   C337    1.398   .     A
C336   C343    1.417   .     A
C336   C338    1.409   .     A
C337   C339    1.405   .     A
C337   C1076   1.393   1_554 S
C338   C341    1.416   .     A
C338   C1075   1.393   .     S
C339   C355    1.411   .     A
C339   C360    1.403   .     A
C340   C357    1.423   .     S
C340   O401    1.290   .     A
C340   O403    1.297   .     A
C341   C351    1.417   .     A
C342   O397    1.384   .     S
C342   C1089   1.399   1_554 S
C343   O398    1.384   .     S
C343   C1093   1.401   .     S
C344   H388    1.105   .     S
C344   O408    1.413   .     S
C344   H387    1.113   .     S
C344   H383    1.106   .     S
C345   H389    1.106   .     S
C345   H390    1.110   .     S
C345   O396    1.415   .     S
C345   H391    1.109   .     S
C346   H362    1.108   .     S
C346   H363    1.110   .     S
C346   H392    1.109   .     S
C347   H364    1.102   .     S
C347   H365    1.110   .     S
C347   H366    1.110   .     S
C348   H369    1.106   .     S
C348   H368    1.113   .     S
C348   H367    1.110   .     S
C348   O397    1.421   .     S
C349   H373    1.109   .     S
C349   O398    1.412   .     S
C349   H370    1.112   .     S
C350   H375    1.108   .     S
C350   H1114   1.111   .     S
C351   O399    1.383   .     S
C351   C1080   1.399   .     S
C352   H378    1.109   .     S
C352   O400    1.414   .     S
C353   H381    1.110   .     S
C353   H382    1.103   .     S
C354   H386    1.110   .     S
C354   H385    1.100   .     S
C354   H466    1.104   .     S
C354   N476    1.438   .     S
C355   O400    1.379   .     S
C355   C1081   1.401   1_554 S
C356   C603    1.337   .     S
C356   H607    1.087   .     S
C358   O404    1.290   .     A
C358   O406    1.295   .     A
C359   O405    1.291   .     A
C359   O407    1.293   .     A
C360   O408    1.385   .     S
H371   C431    1.109   .     S
H372   C603    1.087   .     S
H374   C596    1.114   .     S
H376   C1088   1.111   1_554 S
H377   C434    1.112   .     S
H379   C434    1.109   .     S
H380   C435    1.109   .     S
N393   Zn410   2.035   .     S
N393   C435    1.439   .     S
N393   N476    1.287   .     S
N394   Zn409   2.035   .     S
O395   Zn409   1.999   .     S
O399   C596    1.411   .     S
O401   Zn410   1.999   .     S
O402   Zn410   2.010   .     S
O403   Zn409   2.010   .     S
O404   Zn409   1.993   .     S
O405   Zn410   1.993   .     S
O406   Zn410   1.997   .     S
O407   Zn409   1.997   .     S
C411   O484    1.297   .     A
C411   C438    1.423   .     S
C411   O477    1.290   .     A
C412   O478    1.384   .     S
C412   C423    1.399   .     A
C412   C414    1.403   .     A
C413   C441    1.423   .     S
C413   C415    1.396   .     A
C413   C442    1.404   .     A
C414   C416    1.401   .     A
C414   C440    1.426   .     S
C415   C417    1.394   .     A
C415   C428    1.517   .     S
C416   C429    1.515   .     S
C416   C418    1.402   .     A
C417   C424    1.399   .     A
C417   C419    1.398   .     A
C418   C425    1.417   .     A
C418   C420    1.409   .     A
C419   C421    1.405   .     A
C419   C1158   1.393   1_554 S
C420   C423    1.416   .     A
C420   C1157   1.393   .     S
C421   C437    1.411   .     A
C421   C442    1.403   .     A
C422   C439    1.423   .     S
C422   O483    1.290   .     A
C422   O485    1.297   .     A
C423   C433    1.417   .     A
C424   O479    1.384   .     S
C424   C1171   1.399   1_554 S
C425   O480    1.384   .     S
C425   C1175   1.401   .     S
C426   H470    1.105   .     S
C426   O490    1.413   .     S
C426   H469    1.113   .     S
C426   H465    1.106   .     S
C427   H471    1.106   .     S
C427   H472    1.110   .     S
C427   O478    1.415   .     S
C427   H473    1.109   .     S
C428   H444    1.108   .     S
C428   H445    1.110   .     S
C428   H474    1.109   .     S
C429   H446    1.102   .     S
C429   H447    1.110   .     S
C429   H448    1.110   .     S
C430   H451    1.106   .     S
C430   H450    1.113   .     S
C430   H449    1.110   .     S
C430   O479    1.421   .     S
C431   H455    1.109   .     S
C431   O480    1.412   .     S
C431   H452    1.112   .     S
C432   H457    1.108   .     S
C432   H1196   1.111   .     S
C433   O481    1.383   .     S
C433   C1162   1.399   .     S
C434   H460    1.109   .     S
C434   O482    1.414   .     S
C435   H463    1.110   .     S
C435   H464    1.103   .     S
C436   H468    1.110   .     S
C436   H467    1.100   .     S
C436   H302    1.104   1_655 S
C436   N312    1.438   1_655 S
C437   O482    1.379   .     S
C437   C1163   1.401   1_554 S
C438   C685    1.337   .     S
C438   H689    1.087   .     S
C440   O486    1.290   .     A
C440   O488    1.295   .     A
C441   O487    1.291   .     A
C441   O489    1.293   .     A
C442   O490    1.385   .     S
H453   C267    1.109   1_655 S
H454   C685    1.087   .     S
H456   C678    1.114   .     S
H458   C1170   1.111   1_554 S
H459   C270    1.112   1_655 S
H461   C270    1.109   1_655 S
H462   C271    1.109   1_655 S
N475   Zn492   2.035   .     S
N475   C271    1.439   1_655 S
N475   N312    1.287   1_655 S
N476   Zn491   2.035   .     S
O477   Zn491   1.999   .     S
O481   C678    1.411   .     S
O483   Zn492   1.999   .     S
O484   Zn492   2.010   .     S
O485   Zn491   2.010   .     S
O486   Zn491   1.993   .     S
O487   Zn492   1.993   .     S
O488   Zn492   1.997   .     S
O489   Zn491   1.997   .     S
C493   O566    1.297   .     A
C493   C520    1.423   .     S
C493   O559    1.290   .     A
C494   O560    1.384   .     S
C494   C505    1.399   .     A
C494   C496    1.403   .     A
C495   C523    1.423   .     S
C495   C497    1.396   .     A
C495   C524    1.404   .     A
C496   C498    1.401   .     A
C496   C522    1.426   .     S
C497   C499    1.394   .     A
C497   C510    1.517   .     S
C498   C511    1.515   .     S
C498   C500    1.402   .     A
C499   C506    1.399   .     A
C499   C501    1.398   .     A
C500   C507    1.417   .     A
C500   C502    1.409   .     A
C501   C503    1.405   .     A
C501   C1240   1.393   1_554 S
C502   C505    1.416   .     A
C502   C1239   1.393   .     S
C503   C519    1.411   .     A
C503   C524    1.403   .     A
C504   C521    1.423   .     S
C504   O565    1.290   .     A
C504   O567    1.297   .     A
C505   C515    1.417   .     A
C506   O561    1.384   .     S
C506   C1253   1.399   1_554 S
C507   O562    1.384   .     S
C507   C1257   1.401   .     S
C508   H552    1.105   .     S
C508   O572    1.413   .     S
C508   H551    1.113   .     S
C508   H547    1.106   .     S
C509   H553    1.106   .     S
C509   H554    1.110   .     S
C509   O560    1.415   .     S
C509   H555    1.109   .     S
C510   H526    1.108   .     S
C510   H527    1.110   .     S
C510   H556    1.109   .     S
C511   H528    1.102   .     S
C511   H529    1.110   .     S
C511   H530    1.110   .     S
C512   H533    1.106   .     S
C512   H532    1.113   .     S
C512   H531    1.110   .     S
C512   O561    1.421   .     S
C513   H537    1.109   .     S
C513   O562    1.412   .     S
C513   H534    1.112   .     S
C513   H699    1.109   1_455 S
C514   H539    1.108   .     S
C514   H1278   1.111   .     S
C515   O563    1.383   .     S
C515   C1244   1.399   .     S
C516   H542    1.109   .     S
C516   O564    1.414   .     S
C516   H705    1.112   1_455 S
C516   H707    1.109   1_455 S
C517   H545    1.110   .     S
C517   H546    1.103   .     S
C517   H708    1.109   1_455 S
C517   N721    1.439   1_455 S
C518   H550    1.110   .     S
C518   H549    1.100   .     S
C518   H630    1.104   .     S
C518   N640    1.438   .     S
C519   O564    1.379   .     S
C519   C1245   1.401   1_554 S
C520   C29     1.337   1_565 S
C520   H33     1.087   1_565 S
C522   O568    1.290   .     A
C522   O570    1.295   .     A
C523   O569    1.291   .     A
C523   O571    1.293   .     A
C524   O572    1.385   .     S
H535   C595    1.109   .     S
H536   C29     1.087   1_565 S
H538   C22     1.114   1_565 S
H540   C1252   1.111   1_554 S
H541   C598    1.112   .     S
H543   C598    1.109   .     S
H544   C599    1.109   .     S
H548   C682    1.104   1_455 S
N557   Zn574   2.035   .     S
N557   C599    1.439   .     S
N557   N640    1.287   .     S
N558   Zn573   2.035   .     S
N558   N721    1.287   1_455 S
N558   C682    1.438   1_455 S
O559   Zn573   1.999   .     S
O563   C22     1.411   1_565 S
O565   Zn574   1.999   .     S
O566   Zn574   2.010   .     S
O567   Zn573   2.010   .     S
O568   Zn573   1.993   .     S
O569   Zn574   1.993   .     S
O570   Zn574   1.997   .     S
O571   Zn573   1.997   .     S
C575   O648    1.297   .     A
C575   C602    1.423   .     S
C575   O641    1.290   .     A
C576   O642    1.384   .     S
C576   C587    1.399   .     A
C576   C578    1.403   .     A
C577   C605    1.423   .     S
C577   C579    1.396   .     A
C577   C606    1.404   .     A
C578   C580    1.401   .     A
C578   C604    1.426   .     S
C579   C581    1.394   .     A
C579   C592    1.517   .     S
C580   C593    1.515   .     S
C580   C582    1.402   .     A
C581   C588    1.399   .     A
C581   C583    1.398   .     A
C582   C589    1.417   .     A
C582   C584    1.409   .     A
C583   C585    1.405   .     A
C583   C1322   1.393   1_554 S
C584   C587    1.416   .     A
C584   C1321   1.393   .     S
C585   C601    1.411   .     A
C585   C606    1.403   .     A
C586   C603    1.423   .     S
C586   O647    1.290   .     A
C586   O649    1.297   .     A
C587   C597    1.417   .     A
C588   O643    1.384   .     S
C588   C1335   1.399   1_554 S
C589   O644    1.384   .     S
C589   C1339   1.401   .     S
C590   H634    1.105   .     S
C590   O654    1.413   .     S
C590   H633    1.113   .     S
C590   H629    1.106   .     S
C591   H635    1.106   .     S
C591   H636    1.110   .     S
C591   O642    1.415   .     S
C591   H637    1.109   .     S
C592   H608    1.108   .     S
C592   H609    1.110   .     S
C592   H638    1.109   .     S
C593   H610    1.102   .     S
C593   H611    1.110   .     S
C593   H612    1.110   .     S
C594   H615    1.106   .     S
C594   H614    1.113   .     S
C594   H613    1.110   .     S
C594   O643    1.421   .     S
C595   H619    1.109   .     S
C595   O644    1.412   .     S
C595   H616    1.112   .     S
C596   H621    1.108   .     S
C596   H1360   1.111   .     S
C597   O645    1.383   .     S
C597   C1326   1.399   .     S
C598   H624    1.109   .     S
C598   O646    1.414   .     S
C599   H627    1.110   .     S
C599   H628    1.103   .     S
C600   H632    1.110   .     S
C600   H631    1.100   .     S
C600   H712    1.104   .     S
C600   N722    1.438   .     S
C601   O646    1.379   .     S
C601   C1327   1.401   1_554 S
C602   C111    1.337   1_565 S
C602   H115    1.087   1_565 S
C604   O650    1.290   .     A
C604   O652    1.295   .     A
C605   O651    1.291   .     A
C605   O653    1.293   .     A
C606   O654    1.385   .     S
H617   C677    1.109   .     S
H618   C111    1.087   1_565 S
H620   C104    1.114   1_565 S
H622   C1334   1.111   1_554 S
H623   C680    1.112   .     S
H625   C680    1.109   .     S
H626   C681    1.109   .     S
N639   Zn656   2.035   .     S
N639   C681    1.439   .     S
N639   N722    1.287   .     S
N640   Zn655   2.035   .     S
O641   Zn655   1.999   .     S
O645   C104    1.411   1_565 S
O647   Zn656   1.999   .     S
O648   Zn656   2.010   .     S
O649   Zn655   2.010   .     S
O650   Zn655   1.993   .     S
O651   Zn656   1.993   .     S
O652   Zn656   1.997   .     S
O653   Zn655   1.997   .     S
C657   O730    1.297   .     A
C657   C684    1.423   .     S
C657   O723    1.290   .     A
C658   O724    1.384   .     S
C658   C669    1.399   .     A
C658   C660    1.403   .     A
C659   C687    1.423   .     S
C659   C661    1.396   .     A
C659   C688    1.404   .     A
C660   C662    1.401   .     A
C660   C686    1.426   .     S
C661   C663    1.394   .     A
C661   C674    1.517   .     S
C662   C675    1.515   .     S
C662   C664    1.402   .     A
C663   C670    1.399   .     A
C663   C665    1.398   .     A
C664   C671    1.417   .     A
C664   C666    1.409   .     A
C665   C667    1.405   .     A
C665   C1404   1.393   1_554 S
C666   C669    1.416   .     A
C666   C1403   1.393   .     S
C667   C683    1.411   .     A
C667   C688    1.403   .     A
C668   C685    1.423   .     S
C668   O729    1.290   .     A
C668   O731    1.297   .     A
C669   C679    1.417   .     A
C670   O725    1.384   .     S
C670   C1417   1.399   1_554 S
C671   O726    1.384   .     S
C671   C1421   1.401   .     S
C672   H716    1.105   .     S
C672   O736    1.413   .     S
C672   H715    1.113   .     S
C672   H711    1.106   .     S
C673   H717    1.106   .     S
C673   H718    1.110   .     S
C673   O724    1.415   .     S
C673   H719    1.109   .     S
C674   H690    1.108   .     S
C674   H691    1.110   .     S
C674   H720    1.109   .     S
C675   H692    1.102   .     S
C675   H693    1.110   .     S
C675   H694    1.110   .     S
C676   H697    1.106   .     S
C676   H696    1.113   .     S
C676   H695    1.110   .     S
C676   O725    1.421   .     S
C677   H701    1.109   .     S
C677   O726    1.412   .     S
C677   H698    1.112   .     S
C678   H703    1.108   .     S
C678   H1442   1.111   .     S
C679   O727    1.383   .     S
C679   C1408   1.399   .     S
C680   H706    1.109   .     S
C680   O728    1.414   .     S
C681   H709    1.110   .     S
C681   H710    1.103   .     S
C682   H714    1.110   .     S
C682   H713    1.100   .     S
C682   H548    1.104   1_655 S
C682   N558    1.438   1_655 S
C683   O728    1.379   .     S
C683   C1409   1.401   1_554 S
C684   C193    1.337   1_565 S
C684   H197    1.087   1_565 S
C686   O732    1.290   .     A
C686   O734    1.295   .     A
C687   O733    1.291   .     A
C687   O735    1.293   .     A
C688   O736    1.385   .     S
H699   C513    1.109   1_655 S
H700   C193    1.087   1_565 S
H702   C186    1.114   1_565 S
H704   C1416   1.111   1_554 S
H705   C516    1.112   1_655 S
H707   C516    1.109   1_655 S
H708   C517    1.109   1_655 S
N721   Zn738   2.035   .     S
N721   C517    1.439   1_655 S
N721   N558    1.287   1_655 S
N722   Zn737   2.035   .     S
O723   Zn737   1.999   .     S
O727   C186    1.411   1_565 S
O729   Zn738   1.999   .     S
O730   Zn738   2.010   .     S
O731   Zn737   2.010   .     S
O732   Zn737   1.993   .     S
O733   Zn738   1.993   .     S
O734   Zn738   1.997   .     S
O735   Zn737   1.997   .     S
C739   O812    1.297   .     A
C739   C766    1.423   .     S
C739   O805    1.290   .     A
C740   O806    1.384   .     S
C740   C751    1.399   .     A
C740   C742    1.403   .     A
C741   C769    1.423   .     S
C741   C743    1.396   .     A
C741   C770    1.404   .     A
C742   C744    1.401   .     A
C742   C768    1.426   .     S
C743   C745    1.394   .     A
C743   C756    1.517   .     S
C744   C757    1.515   .     S
C744   C746    1.402   .     A
C745   C752    1.399   .     A
C745   C747    1.398   .     A
C746   C753    1.417   .     A
C746   C748    1.409   .     A
C747   C749    1.405   .     A
C748   C751    1.416   .     A
C748   C9      1.393   1_556 S
C749   C765    1.411   .     A
C749   C770    1.403   .     A
C750   C767    1.423   .     S
C750   O811    1.290   .     A
C750   O813    1.297   .     A
C751   C761    1.417   .     A
C752   O807    1.384   .     S
C753   O808    1.384   .     S
C753   C27     1.401   1_556 S
C754   H798    1.105   .     S
C754   O818    1.413   .     S
C754   H797    1.113   .     S
C754   H793    1.106   .     S
C755   H799    1.106   .     S
C755   H800    1.110   .     S
C755   O806    1.415   .     S
C755   H801    1.109   .     S
C756   H772    1.108   .     S
C756   H773    1.110   .     S
C756   H802    1.109   .     S
C757   H774    1.102   .     S
C757   H775    1.110   .     S
C757   H776    1.110   .     S
C758   H779    1.106   .     S
C758   H778    1.113   .     S
C758   H777    1.110   .     S
C758   O807    1.421   .     S
C759   H783    1.109   .     S
C759   O808    1.412   .     S
C759   H780    1.112   .     S
C759   H945    1.109   1_455 S
C760   H785    1.108   .     S
C760   H1276   1.114   1_545 S
C760   H48     1.111   1_556 S
C760   O1301   1.411   1_545 S
C761   O809    1.383   .     S
C761   C14     1.399   1_556 S
C762   H788    1.109   .     S
C762   O810    1.414   .     S
C762   H951    1.112   1_455 S
C762   H953    1.109   1_455 S
C763   H791    1.110   .     S
C763   H792    1.103   .     S
C763   H954    1.109   1_455 S
C763   N967    1.439   1_455 S
C764   H796    1.110   .     S
C764   H795    1.100   .     S
C764   H876    1.104   .     S
C764   N886    1.438   .     S
C765   O810    1.379   .     S
C766   C1013   1.337   .     S
C766   H1017   1.087   .     S
C767   C1258   1.337   1_545 S
C767   H1274   1.087   1_545 S
C768   O814    1.290   .     A
C768   O816    1.295   .     A
C769   O815    1.291   .     A
C769   O817    1.293   .     A
C770   O818    1.385   .     S
H771   C1258   1.087   1_545 S
H781   C841    1.109   .     S
H782   C1013   1.087   .     S
H784   C1006   1.114   .     S
H787   C844    1.112   .     S
H789   C844    1.109   .     S
H790   C845    1.109   .     S
H794   C928    1.104   1_455 S
N803   Zn820   2.035   .     S
N803   C845    1.439   .     S
N803   N886    1.287   .     S
N804   Zn819   2.035   .     S
N804   N967    1.287   1_455 S
N804   C928    1.438   1_455 S
O805   Zn819   1.999   .     S
O809   C1006   1.411   .     S
O811   Zn820   1.999   .     S
O812   Zn820   2.010   .     S
O813   Zn819   2.010   .     S
O814   Zn819   1.993   .     S
O815   Zn820   1.993   .     S
O816   Zn820   1.997   .     S
O817   Zn819   1.997   .     S
C821   O894    1.297   .     A
C821   C848    1.423   .     S
C821   O887    1.290   .     A
C822   O888    1.384   .     S
C822   C833    1.399   .     A
C822   C824    1.403   .     A
C823   C851    1.423   .     S
C823   C825    1.396   .     A
C823   C852    1.404   .     A
C824   C826    1.401   .     A
C824   C850    1.426   .     S
C825   C827    1.394   .     A
C825   C838    1.517   .     S
C826   C839    1.515   .     S
C826   C828    1.402   .     A
C827   C834    1.399   .     A
C827   C829    1.398   .     A
C828   C835    1.417   .     A
C828   C830    1.409   .     A
C829   C831    1.405   .     A
C830   C833    1.416   .     A
C830   C91     1.393   1_556 S
C831   C847    1.411   .     A
C831   C852    1.403   .     A
C832   C849    1.423   .     S
C832   O893    1.290   .     A
C832   O895    1.297   .     A
C833   C843    1.417   .     A
C834   O889    1.384   .     S
C835   O890    1.384   .     S
C835   C109    1.401   1_556 S
C836   H880    1.105   .     S
C836   O900    1.413   .     S
C836   H879    1.113   .     S
C836   H875    1.106   .     S
C837   H881    1.106   .     S
C837   H882    1.110   .     S
C837   O888    1.415   .     S
C837   H883    1.109   .     S
C838   H854    1.108   .     S
C838   H855    1.110   .     S
C838   H884    1.109   .     S
C839   H856    1.102   .     S
C839   H857    1.110   .     S
C839   H858    1.110   .     S
C840   H861    1.106   .     S
C840   H860    1.113   .     S
C840   H859    1.110   .     S
C840   O889    1.421   .     S
C841   H865    1.109   .     S
C841   O890    1.412   .     S
C841   H862    1.112   .     S
C842   H867    1.108   .     S
C842   H1358   1.114   1_545 S
C842   H130    1.111   1_556 S
C842   O1383   1.411   1_545 S
C843   O891    1.383   .     S
C843   C96     1.399   1_556 S
C844   H870    1.109   .     S
C844   O892    1.414   .     S
C845   H873    1.110   .     S
C845   H874    1.103   .     S
C846   H878    1.110   .     S
C846   H877    1.100   .     S
C846   H958    1.104   .     S
C846   N968    1.438   .     S
C847   O892    1.379   .     S
C848   C1095   1.337   .     S
C848   H1099   1.087   .     S
C849   C1340   1.337   1_545 S
C849   H1356   1.087   1_545 S
C850   O896    1.290   .     A
C850   O898    1.295   .     A
C851   O897    1.291   .     A
C851   O899    1.293   .     A
C852   O900    1.385   .     S
H853   C1340   1.087   1_545 S
H863   C923    1.109   .     S
H864   C1095   1.087   .     S
H866   C1088   1.114   .     S
H869   C926    1.112   .     S
H871   C926    1.109   .     S
H872   C927    1.109   .     S
N885   Zn902   2.035   .     S
N885   C927    1.439   .     S
N885   N968    1.287   .     S
N886   Zn901   2.035   .     S
O887   Zn901   1.999   .     S
O891   C1088   1.411   .     S
O893   Zn902   1.999   .     S
O894   Zn902   2.010   .     S
O895   Zn901   2.010   .     S
O896   Zn901   1.993   .     S
O897   Zn902   1.993   .     S
O898   Zn902   1.997   .     S
O899   Zn901   1.997   .     S
C903   O976    1.297   .     A
C903   C930    1.423   .     S
C903   O969    1.290   .     A
C904   O970    1.384   .     S
C904   C915    1.399   .     A
C904   C906    1.403   .     A
C905   C933    1.423   .     S
C905   C907    1.396   .     A
C905   C934    1.404   .     A
C906   C908    1.401   .     A
C906   C932    1.426   .     S
C907   C909    1.394   .     A
C907   C920    1.517   .     S
C908   C921    1.515   .     S
C908   C910    1.402   .     A
C909   C916    1.399   .     A
C909   C911    1.398   .     A
C910   C917    1.417   .     A
C910   C912    1.409   .     A
C911   C913    1.405   .     A
C912   C915    1.416   .     A
C912   C173    1.393   1_556 S
C913   C929    1.411   .     A
C913   C934    1.403   .     A
C914   C931    1.423   .     S
C914   O975    1.290   .     A
C914   O977    1.297   .     A
C915   C925    1.417   .     A
C916   O971    1.384   .     S
C917   O972    1.384   .     S
C917   C191    1.401   1_556 S
C918   H962    1.105   .     S
C918   O982    1.413   .     S
C918   H961    1.113   .     S
C918   H957    1.106   .     S
C919   H963    1.106   .     S
C919   H964    1.110   .     S
C919   O970    1.415   .     S
C919   H965    1.109   .     S
C920   H936    1.108   .     S
C920   H937    1.110   .     S
C920   H966    1.109   .     S
C921   H938    1.102   .     S
C921   H939    1.110   .     S
C921   H940    1.110   .     S
C922   H943    1.106   .     S
C922   H942    1.113   .     S
C922   H941    1.110   .     S
C922   O971    1.421   .     S
C923   H947    1.109   .     S
C923   O972    1.412   .     S
C923   H944    1.112   .     S
C924   H949    1.108   .     S
C924   H1440   1.114   1_545 S
C924   H212    1.111   1_556 S
C924   O1465   1.411   1_545 S
C925   O973    1.383   .     S
C925   C178    1.399   1_556 S
C926   H952    1.109   .     S
C926   O974    1.414   .     S
C927   H955    1.110   .     S
C927   H956    1.103   .     S
C928   H960    1.110   .     S
C928   H959    1.100   .     S
C928   H794    1.104   1_655 S
C928   N804    1.438   1_655 S
C929   O974    1.379   .     S
C930   C1177   1.337   .     S
C930   H1181   1.087   .     S
C931   C1422   1.337   1_545 S
C931   H1438   1.087   1_545 S
C932   O978    1.290   .     A
C932   O980    1.295   .     A
C933   O979    1.291   .     A
C933   O981    1.293   .     A
C934   O982    1.385   .     S
H935   C1422   1.087   1_545 S
H945   C759    1.109   1_655 S
H946   C1177   1.087   .     S
H948   C1170   1.114   .     S
H951   C762    1.112   1_655 S
H953   C762    1.109   1_655 S
H954   C763    1.109   1_655 S
N967   Zn984   2.035   .     S
N967   C763    1.439   1_655 S
N967   N804    1.287   1_655 S
N968   Zn983   2.035   .     S
O969   Zn983   1.999   .     S
O973   C1170   1.411   .     S
O975   Zn984   1.999   .     S
O976   Zn984   2.010   .     S
O977   Zn983   2.010   .     S
O978   Zn983   1.993   .     S
O979   Zn984   1.993   .     S
O980   Zn984   1.997   .     S
O981   Zn983   1.997   .     S
C985   O1058   1.297   .     A
C985   C1012   1.423   .     S
C985   O1051   1.290   .     A
C986   O1052   1.384   .     S
C986   C997    1.399   .     A
C986   C988    1.403   .     A
C987   C1015   1.423   .     S
C987   C989    1.396   .     A
C987   C1016   1.404   .     A
C988   C990    1.401   .     A
C988   C1014   1.426   .     S
C989   C991    1.394   .     A
C989   C1002   1.517   .     S
C990   C1003   1.515   .     S
C990   C992    1.402   .     A
C991   C998    1.399   .     A
C991   C993    1.398   .     A
C992   C999    1.417   .     A
C992   C994    1.409   .     A
C993   C995    1.405   .     A
C994   C997    1.416   .     A
C994   C255    1.393   1_556 S
C995   C1011   1.411   .     A
C995   C1016   1.403   .     A
C996   C1013   1.423   .     S
C996   O1057   1.290   .     A
C996   O1059   1.297   .     A
C997   C1007   1.417   .     A
C998   O1053   1.384   .     S
C999   O1054   1.384   .     S
C999   C273    1.401   1_556 S
C1000  H1044   1.105   .     S
C1000  O1064   1.413   .     S
C1000  H1043   1.113   .     S
C1000  H1039   1.106   .     S
C1001  H1045   1.106   .     S
C1001  H1046   1.110   .     S
C1001  O1052   1.415   .     S
C1001  H1047   1.109   .     S
C1002  H1018   1.108   .     S
C1002  H1019   1.110   .     S
C1002  H1048   1.109   .     S
C1003  H1020   1.102   .     S
C1003  H1021   1.110   .     S
C1003  H1022   1.110   .     S
C1004  H1025   1.106   .     S
C1004  H1024   1.113   .     S
C1004  H1023   1.110   .     S
C1004  O1053   1.421   .     S
C1005  H1029   1.109   .     S
C1005  O1054   1.412   .     S
C1005  H1026   1.112   .     S
C1005  H1191   1.109   1_455 S
C1006  H1031   1.108   .     S
C1006  H294    1.111   1_556 S
C1007  O1055   1.383   .     S
C1007  C260    1.399   1_556 S
C1008  H1034   1.109   .     S
C1008  O1056   1.414   .     S
C1008  H1197   1.112   1_455 S
C1008  H1199   1.109   1_455 S
C1009  H1037   1.110   .     S
C1009  H1038   1.103   .     S
C1009  H1200   1.109   1_455 S
C1009  N1213   1.439   1_455 S
C1010  H1042   1.110   .     S
C1010  H1041   1.100   .     S
C1010  H1122   1.104   .     S
C1010  N1132   1.438   .     S
C1011  O1056   1.379   .     S
C1012  C1259   1.337   .     S
C1012  H1263   1.087   .     S
C1014  O1060   1.290   .     A
C1014  O1062   1.295   .     A
C1015  O1061   1.291   .     A
C1015  O1063   1.293   .     A
C1016  O1064   1.385   .     S
H1027  C1087   1.109   .     S
H1028  C1259   1.087   .     S
H1030  C1252   1.114   .     S
H1033  C1090   1.112   .     S
H1035  C1090   1.109   .     S
H1036  C1091   1.109   .     S
H1040  C1174   1.104   1_455 S
N1049  Zn1066  2.035   .     S
N1049  C1091   1.439   .     S
N1049  N1132   1.287   .     S
N1050  Zn1065  2.035   .     S
N1050  N1213   1.287   1_455 S
N1050  C1174   1.438   1_455 S
O1051  Zn1065  1.999   .     S
O1055  C1252   1.411   .     S
O1057  Zn1066  1.999   .     S
O1058  Zn1066  2.010   .     S
O1059  Zn1065  2.010   .     S
O1060  Zn1065  1.993   .     S
O1061  Zn1066  1.993   .     S
O1062  Zn1066  1.997   .     S
O1063  Zn1065  1.997   .     S
C1067  O1140   1.297   .     A
C1067  C1094   1.423   .     S
C1067  O1133   1.290   .     A
C1068  O1134   1.384   .     S
C1068  C1079   1.399   .     A
C1068  C1070   1.403   .     A
C1069  C1097   1.423   .     S
C1069  C1071   1.396   .     A
C1069  C1098   1.404   .     A
C1070  C1072   1.401   .     A
C1070  C1096   1.426   .     S
C1071  C1073   1.394   .     A
C1071  C1084   1.517   .     S
C1072  C1085   1.515   .     S
C1072  C1074   1.402   .     A
C1073  C1080   1.399   .     A
C1073  C1075   1.398   .     A
C1074  C1081   1.417   .     A
C1074  C1076   1.409   .     A
C1075  C1077   1.405   .     A
C1076  C1079   1.416   .     A
C1076  C337    1.393   1_556 S
C1077  C1093   1.411   .     A
C1077  C1098   1.403   .     A
C1078  C1095   1.423   .     S
C1078  O1139   1.290   .     A
C1078  O1141   1.297   .     A
C1079  C1089   1.417   .     A
C1080  O1135   1.384   .     S
C1081  O1136   1.384   .     S
C1081  C355    1.401   1_556 S
C1082  H1126   1.105   .     S
C1082  O1146   1.413   .     S
C1082  H1125   1.113   .     S
C1082  H1121   1.106   .     S
C1083  H1127   1.106   .     S
C1083  H1128   1.110   .     S
C1083  O1134   1.415   .     S
C1083  H1129   1.109   .     S
C1084  H1100   1.108   .     S
C1084  H1101   1.110   .     S
C1084  H1130   1.109   .     S
C1085  H1102   1.102   .     S
C1085  H1103   1.110   .     S
C1085  H1104   1.110   .     S
C1086  H1107   1.106   .     S
C1086  H1106   1.113   .     S
C1086  H1105   1.110   .     S
C1086  O1135   1.421   .     S
C1087  H1111   1.109   .     S
C1087  O1136   1.412   .     S
C1087  H1108   1.112   .     S
C1088  H1113   1.108   .     S
C1088  H376    1.111   1_556 S
C1089  O1137   1.383   .     S
C1089  C342    1.399   1_556 S
C1090  H1116   1.109   .     S
C1090  O1138   1.414   .     S
C1091  H1119   1.110   .     S
C1091  H1120   1.103   .     S
C1092  H1124   1.110   .     S
C1092  H1123   1.100   .     S
C1092  H1204   1.104   .     S
C1092  N1214   1.438   .     S
C1093  O1138   1.379   .     S
C1094  C1341   1.337   .     S
C1094  H1345   1.087   .     S
C1096  O1142   1.290   .     A
C1096  O1144   1.295   .     A
C1097  O1143   1.291   .     A
C1097  O1145   1.293   .     A
C1098  O1146   1.385   .     S
H1109  C1169   1.109   .     S
H1110  C1341   1.087   .     S
H1112  C1334   1.114   .     S
H1115  C1172   1.112   .     S
H1117  C1172   1.109   .     S
H1118  C1173   1.109   .     S
N1131  Zn1148  2.035   .     S
N1131  C1173   1.439   .     S
N1131  N1214   1.287   .     S
N1132  Zn1147  2.035   .     S
O1133  Zn1147  1.999   .     S
O1137  C1334   1.411   .     S
O1139  Zn1148  1.999   .     S
O1140  Zn1148  2.010   .     S
O1141  Zn1147  2.010   .     S
O1142  Zn1147  1.993   .     S
O1143  Zn1148  1.993   .     S
O1144  Zn1148  1.997   .     S
O1145  Zn1147  1.997   .     S
C1149  O1222   1.297   .     A
C1149  C1176   1.423   .     S
C1149  O1215   1.290   .     A
C1150  O1216   1.384   .     S
C1150  C1161   1.399   .     A
C1150  C1152   1.403   .     A
C1151  C1179   1.423   .     S
C1151  C1153   1.396   .     A
C1151  C1180   1.404   .     A
C1152  C1154   1.401   .     A
C1152  C1178   1.426   .     S
C1153  C1155   1.394   .     A
C1153  C1166   1.517   .     S
C1154  C1167   1.515   .     S
C1154  C1156   1.402   .     A
C1155  C1162   1.399   .     A
C1155  C1157   1.398   .     A
C1156  C1163   1.417   .     A
C1156  C1158   1.409   .     A
C1157  C1159   1.405   .     A
C1158  C1161   1.416   .     A
C1158  C419    1.393   1_556 S
C1159  C1175   1.411   .     A
C1159  C1180   1.403   .     A
C1160  C1177   1.423   .     S
C1160  O1221   1.290   .     A
C1160  O1223   1.297   .     A
C1161  C1171   1.417   .     A
C1162  O1217   1.384   .     S
C1163  O1218   1.384   .     S
C1163  C437    1.401   1_556 S
C1164  H1208   1.105   .     S
C1164  O1228   1.413   .     S
C1164  H1207   1.113   .     S
C1164  H1203   1.106   .     S
C1165  H1209   1.106   .     S
C1165  H1210   1.110   .     S
C1165  O1216   1.415   .     S
C1165  H1211   1.109   .     S
C1166  H1182   1.108   .     S
C1166  H1183   1.110   .     S
C1166  H1212   1.109   .     S
C1167  H1184   1.102   .     S
C1167  H1185   1.110   .     S
C1167  H1186   1.110   .     S
C1168  H1189   1.106   .     S
C1168  H1188   1.113   .     S
C1168  H1187   1.110   .     S
C1168  O1217   1.421   .     S
C1169  H1193   1.109   .     S
C1169  O1218   1.412   .     S
C1169  H1190   1.112   .     S
C1170  H1195   1.108   .     S
C1170  H458    1.111   1_556 S
C1171  O1219   1.383   .     S
C1171  C424    1.399   1_556 S
C1172  H1198   1.109   .     S
C1172  O1220   1.414   .     S
C1173  H1201   1.110   .     S
C1173  H1202   1.103   .     S
C1174  H1206   1.110   .     S
C1174  H1205   1.100   .     S
C1174  H1040   1.104   1_655 S
C1174  N1050   1.438   1_655 S
C1175  O1220   1.379   .     S
C1176  C1423   1.337   .     S
C1176  H1427   1.087   .     S
C1178  O1224   1.290   .     A
C1178  O1226   1.295   .     A
C1179  O1225   1.291   .     A
C1179  O1227   1.293   .     A
C1180  O1228   1.385   .     S
H1191  C1005   1.109   1_655 S
H1192  C1423   1.087   .     S
H1194  C1416   1.114   .     S
H1197  C1008   1.112   1_655 S
H1199  C1008   1.109   1_655 S
H1200  C1009   1.109   1_655 S
N1213  Zn1230  2.035   .     S
N1213  C1009   1.439   1_655 S
N1213  N1050   1.287   1_655 S
N1214  Zn1229  2.035   .     S
O1215  Zn1229  1.999   .     S
O1219  C1416   1.411   .     S
O1221  Zn1230  1.999   .     S
O1222  Zn1230  2.010   .     S
O1223  Zn1229  2.010   .     S
O1224  Zn1229  1.993   .     S
O1225  Zn1230  1.993   .     S
O1226  Zn1230  1.997   .     S
O1227  Zn1229  1.997   .     S
C1231  O1304   1.297   .     A
C1231  C1258   1.423   .     S
C1231  O1297   1.290   .     A
C1232  O1298   1.384   .     S
C1232  C1243   1.399   .     A
C1232  C1234   1.403   .     A
C1233  C1261   1.423   .     S
C1233  C1235   1.396   .     A
C1233  C1262   1.404   .     A
C1234  C1236   1.401   .     A
C1234  C1260   1.426   .     S
C1235  C1237   1.394   .     A
C1235  C1248   1.517   .     S
C1236  C1249   1.515   .     S
C1236  C1238   1.402   .     A
C1237  C1244   1.399   .     A
C1237  C1239   1.398   .     A
C1238  C1245   1.417   .     A
C1238  C1240   1.409   .     A
C1239  C1241   1.405   .     A
C1240  C1243   1.416   .     A
C1240  C501    1.393   1_556 S
C1241  C1257   1.411   .     A
C1241  C1262   1.403   .     A
C1242  C1259   1.423   .     S
C1242  O1303   1.290   .     A
C1242  O1305   1.297   .     A
C1243  C1253   1.417   .     A
C1244  O1299   1.384   .     S
C1245  O1300   1.384   .     S
C1245  C519    1.401   1_556 S
C1246  H1290   1.105   .     S
C1246  O1310   1.413   .     S
C1246  H1289   1.113   .     S
C1246  H1285   1.106   .     S
C1247  H1291   1.106   .     S
C1247  H1292   1.110   .     S
C1247  O1298   1.415   .     S
C1247  H1293   1.109   .     S
C1248  H1264   1.108   .     S
C1248  H1265   1.110   .     S
C1248  H1294   1.109   .     S
C1249  H1266   1.102   .     S
C1249  H1267   1.110   .     S
C1249  H1268   1.110   .     S
C1250  H1271   1.106   .     S
C1250  H1270   1.113   .     S
C1250  H1269   1.110   .     S
C1250  O1299   1.421   .     S
C1251  H1275   1.109   .     S
C1251  O1300   1.412   .     S
C1251  H1272   1.112   .     S
C1251  H1437   1.109   1_455 S
C1252  H1277   1.108   .     S
C1252  H540    1.111   1_556 S
C1253  O1301   1.383   .     S
C1253  C506    1.399   1_556 S
C1254  H1280   1.109   .     S
C1254  O1302   1.414   .     S
C1254  H1443   1.112   1_455 S
C1254  H1445   1.109   1_455 S
C1255  H1283   1.110   .     S
C1255  H1284   1.103   .     S
C1255  H1446   1.109   1_455 S
C1255  N1459   1.439   1_455 S
C1256  H1288   1.110   .     S
C1256  H1287   1.100   .     S
C1256  H1368   1.104   .     S
C1256  N1378   1.438   .     S
C1257  O1302   1.379   .     S
C1258  C767    1.337   1_565 S
C1258  H771    1.087   1_565 S
C1260  O1306   1.290   .     A
C1260  O1308   1.295   .     A
C1261  O1307   1.291   .     A
C1261  O1309   1.293   .     A
C1262  O1310   1.385   .     S
H1273  C1333   1.109   .     S
H1274  C767    1.087   1_565 S
H1276  C760    1.114   1_565 S
H1279  C1336   1.112   .     S
H1281  C1336   1.109   .     S
H1282  C1337   1.109   .     S
H1286  C1420   1.104   1_455 S
N1295  Zn1312  2.035   .     S
N1295  C1337   1.439   .     S
N1295  N1378   1.287   .     S
N1296  Zn1311  2.035   .     S
N1296  N1459   1.287   1_455 S
N1296  C1420   1.438   1_455 S
O1297  Zn1311  1.999   .     S
O1301  C760    1.411   1_565 S
O1303  Zn1312  1.999   .     S
O1304  Zn1312  2.010   .     S
O1305  Zn1311  2.010   .     S
O1306  Zn1311  1.993   .     S
O1307  Zn1312  1.993   .     S
O1308  Zn1312  1.997   .     S
O1309  Zn1311  1.997   .     S
C1313  O1386   1.297   .     A
C1313  C1340   1.423   .     S
C1313  O1379   1.290   .     A
C1314  O1380   1.384   .     S
C1314  C1325   1.399   .     A
C1314  C1316   1.403   .     A
C1315  C1343   1.423   .     S
C1315  C1317   1.396   .     A
C1315  C1344   1.404   .     A
C1316  C1318   1.401   .     A
C1316  C1342   1.426   .     S
C1317  C1319   1.394   .     A
C1317  C1330   1.517   .     S
C1318  C1331   1.515   .     S
C1318  C1320   1.402   .     A
C1319  C1326   1.399   .     A
C1319  C1321   1.398   .     A
C1320  C1327   1.417   .     A
C1320  C1322   1.409   .     A
C1321  C1323   1.405   .     A
C1322  C1325   1.416   .     A
C1322  C583    1.393   1_556 S
C1323  C1339   1.411   .     A
C1323  C1344   1.403   .     A
C1324  C1341   1.423   .     S
C1324  O1385   1.290   .     A
C1324  O1387   1.297   .     A
C1325  C1335   1.417   .     A
C1326  O1381   1.384   .     S
C1327  O1382   1.384   .     S
C1327  C601    1.401   1_556 S
C1328  H1372   1.105   .     S
C1328  O1392   1.413   .     S
C1328  H1371   1.113   .     S
C1328  H1367   1.106   .     S
C1329  H1373   1.106   .     S
C1329  H1374   1.110   .     S
C1329  O1380   1.415   .     S
C1329  H1375   1.109   .     S
C1330  H1346   1.108   .     S
C1330  H1347   1.110   .     S
C1330  H1376   1.109   .     S
C1331  H1348   1.102   .     S
C1331  H1349   1.110   .     S
C1331  H1350   1.110   .     S
C1332  H1353   1.106   .     S
C1332  H1352   1.113   .     S
C1332  H1351   1.110   .     S
C1332  O1381   1.421   .     S
C1333  H1357   1.109   .     S
C1333  O1382   1.412   .     S
C1333  H1354   1.112   .     S
C1334  H1359   1.108   .     S
C1334  H622    1.111   1_556 S
C1335  O1383   1.383   .     S
C1335  C588    1.399   1_556 S
C1336  H1362   1.109   .     S
C1336  O1384   1.414   .     S
C1337  H1365   1.110   .     S
C1337  H1366   1.103   .     S
C1338  H1370   1.110   .     S
C1338  H1369   1.100   .     S
C1338  H1450   1.104   .     S
C1338  N1460   1.438   .     S
C1339  O1384   1.379   .     S
C1340  C849    1.337   1_565 S
C1340  H853    1.087   1_565 S
C1342  O1388   1.290   .     A
C1342  O1390   1.295   .     A
C1343  O1389   1.291   .     A
C1343  O1391   1.293   .     A
C1344  O1392   1.385   .     S
H1355  C1415   1.109   .     S
H1356  C849    1.087   1_565 S
H1358  C842    1.114   1_565 S
H1361  C1418   1.112   .     S
H1363  C1418   1.109   .     S
H1364  C1419   1.109   .     S
N1377  Zn1394  2.035   .     S
N1377  C1419   1.439   .     S
N1377  N1460   1.287   .     S
N1378  Zn1393  2.035   .     S
O1379  Zn1393  1.999   .     S
O1383  C842    1.411   1_565 S
O1385  Zn1394  1.999   .     S
O1386  Zn1394  2.010   .     S
O1387  Zn1393  2.010   .     S
O1388  Zn1393  1.993   .     S
O1389  Zn1394  1.993   .     S
O1390  Zn1394  1.997   .     S
O1391  Zn1393  1.997   .     S
C1395  O1468   1.297   .     A
C1395  C1422   1.423   .     S
C1395  O1461   1.290   .     A
C1396  O1462   1.384   .     S
C1396  C1407   1.399   .     A
C1396  C1398   1.403   .     A
C1397  C1425   1.423   .     S
C1397  C1399   1.396   .     A
C1397  C1426   1.404   .     A
C1398  C1400   1.401   .     A
C1398  C1424   1.426   .     S
C1399  C1401   1.394   .     A
C1399  C1412   1.517   .     S
C1400  C1413   1.515   .     S
C1400  C1402   1.402   .     A
C1401  C1408   1.399   .     A
C1401  C1403   1.398   .     A
C1402  C1409   1.417   .     A
C1402  C1404   1.409   .     A
C1403  C1405   1.405   .     A
C1404  C1407   1.416   .     A
C1404  C665    1.393   1_556 S
C1405  C1421   1.411   .     A
C1405  C1426   1.403   .     A
C1406  C1423   1.423   .     S
C1406  O1467   1.290   .     A
C1406  O1469   1.297   .     A
C1407  C1417   1.417   .     A
C1408  O1463   1.384   .     S
C1409  O1464   1.384   .     S
C1409  C683    1.401   1_556 S
C1410  H1454   1.105   .     S
C1410  O1474   1.413   .     S
C1410  H1453   1.113   .     S
C1410  H1449   1.106   .     S
C1411  H1455   1.106   .     S
C1411  H1456   1.110   .     S
C1411  O1462   1.415   .     S
C1411  H1457   1.109   .     S
C1412  H1428   1.108   .     S
C1412  H1429   1.110   .     S
C1412  H1458   1.109   .     S
C1413  H1430   1.102   .     S
C1413  H1431   1.110   .     S
C1413  H1432   1.110   .     S
C1414  H1435   1.106   .     S
C1414  H1434   1.113   .     S
C1414  H1433   1.110   .     S
C1414  O1463   1.421   .     S
C1415  H1439   1.109   .     S
C1415  O1464   1.412   .     S
C1415  H1436   1.112   .     S
C1416  H1441   1.108   .     S
C1416  H704    1.111   1_556 S
C1417  O1465   1.383   .     S
C1417  C670    1.399   1_556 S
C1418  H1444   1.109   .     S
C1418  O1466   1.414   .     S
C1419  H1447   1.110   .     S
C1419  H1448   1.103   .     S
C1420  H1452   1.110   .     S
C1420  H1451   1.100   .     S
C1420  H1286   1.104   1_655 S
C1420  N1296   1.438   1_655 S
C1421  O1466   1.379   .     S
C1422  C931    1.337   1_565 S
C1422  H935    1.087   1_565 S
C1424  O1470   1.290   .     A
C1424  O1472   1.295   .     A
C1425  O1471   1.291   .     A
C1425  O1473   1.293   .     A
C1426  O1474   1.385   .     S
H1437  C1251   1.109   1_655 S
H1438  C931    1.087   1_565 S
H1440  C924    1.114   1_565 S
H1443  C1254   1.112   1_655 S
H1445  C1254   1.109   1_655 S
H1446  C1255   1.109   1_655 S
N1459  Zn1476  2.035   .     S
N1459  C1255   1.439   1_655 S
N1459  N1296   1.287   1_655 S
N1460  Zn1475  2.035   .     S
O1461  Zn1475  1.999   .     S
O1465  C924    1.411   1_565 S
O1467  Zn1476  1.999   .     S
O1468  Zn1476  2.010   .     S
O1469  Zn1475  2.010   .     S
O1470  Zn1475  1.993   .     S
O1471  Zn1476  1.993   .     S
O1472  Zn1476  1.997   .     S
O1473  Zn1475  1.997   .     S
