data_str_m2_o1_o18_pcu_sym.99
_audit_creation_date              2020-01-03
_audit_creation_method            'Materials Studio'
_symmetry_space_group_name_H-M    'P1'
_symmetry_Int_Tables_number       1
_symmetry_cell_setting            triclinic
loop_
_symmetry_equiv_pos_as_xyz
  x,y,z
_cell_length_a                    28.5787
_cell_length_b                    32.3734
_cell_length_c                    30.8550
_cell_angle_alpha                 89.8976
_cell_angle_beta                  74.4550
_cell_angle_gamma                 90.1735
loop_
_atom_site_label
_atom_site_type_symbol
_atom_site_fract_x
_atom_site_fract_y
_atom_site_fract_z
_atom_site_U_iso_or_equiv
_atom_site_adp_type
_atom_site_occupancy
O1     O     0.03958   0.10655   0.25000   0.00000  Uiso   1.00
O2     O     0.29375   0.22678   0.25000   0.00000  Uiso   1.00
O3     O     0.29372   0.10654   0.25000   0.00000  Uiso   1.00
O4     O     0.03961   0.22679   0.25000   0.00000  Uiso   1.00
C5     C     0.33283   0.08746   0.25142   0.00000  Uiso   1.00
C6     C     0.00050   0.24588   0.24856   0.00000  Uiso   1.00
O7     O     0.01852   0.16668   0.31492   0.00000  Uiso   1.00
O8     O     0.31481   0.16666   0.18508   0.00000  Uiso   1.00
O9     O     0.27267   0.16667   0.31492   0.00000  Uiso   1.00
O10    O     0.06067   0.16667   0.18508   0.00000  Uiso   1.00
C11    C     0.30610   0.16707   0.33616   0.00000  Uiso   1.00
C12    C     0.02723   0.16564   0.16390   0.00000  Uiso   1.00
Cu13   Cu    0.04689   0.16667   0.25000   0.00000  Uiso   1.00
Cu14   Cu    0.28645   0.16666   0.25000   0.00000  Uiso   1.00
C15    C     0.29123   0.16933   0.38545   0.00000  Uiso   1.00
C16    C     0.04234   0.15876   0.11522   0.00000  Uiso   1.00
C17    C     0.30620   0.19189   0.45554   0.00000  Uiso   1.00
C18    C     0.03091   0.12344   0.04938   0.00000  Uiso   1.00
C19    C     0.32262   0.18493   0.40920   0.00000  Uiso   1.00
C20    C     0.01271   0.13695   0.09380   0.00000  Uiso   1.00
C21    C     0.24371   0.15873   0.40827   0.00000  Uiso   1.00
C22    C     0.08988   0.16851   0.09185   0.00000  Uiso   1.00
C23    C     0.22610   0.16341   0.45509   0.00000  Uiso   1.00
C24    C     0.11018   0.15456   0.04778   0.00000  Uiso   1.00
C25    C     0.25792   0.18057   0.47887   0.00000  Uiso   1.00
C26    C     0.07958   0.13322   0.02572   0.00000  Uiso   1.00
C27    C     0.17734   0.15258   0.47857   0.00000  Uiso   1.00
C28    C     0.16003   0.16168   0.02514   0.00000  Uiso   1.00
C29    C     0.19346   0.17619   0.04808   0.00000  Uiso   1.00
C30    C     0.14539   0.13268   0.45723   0.00000  Uiso   1.00
C31    C     0.24122   0.18511   0.02551   0.00000  Uiso   1.00
C32    C     0.09796   0.12298   0.48036   0.00000  Uiso   1.00
H33    H     0.26511   0.19492   0.04544   0.00000  Uiso   1.00
H34    H     0.07540   0.10857   0.46157   0.00000  Uiso   1.00
H35    H     0.11030   0.18734   0.10911   0.00000  Uiso   1.00
H36    H     0.22085   0.14783   0.38813   0.00000  Uiso   1.00
H37    H     0.30964   0.12811   0.11258   0.00000  Uiso   1.00
H38    H     0.02579   0.19421   0.39120   0.00000  Uiso   1.00
H39    H     0.18437   0.17952   0.08412   0.00000  Uiso   1.00
H40    H     0.15590   0.12304   0.42263   0.00000  Uiso   1.00
C41    C     0.31002   0.02249   0.22329   0.00000  Uiso   1.00
C42    C     0.02335   0.31085   0.27666   0.00000  Uiso   1.00
H43    H     0.29343   0.04039   0.20163   0.00000  Uiso   1.00
H44    H     0.03995   0.29296   0.29832   0.00000  Uiso   1.00
C45    C     0.31146   0.31301   0.21971   0.00000  Uiso   1.00
C46    C     0.02190   0.02033   0.28025   0.00000  Uiso   1.00
C47    C     0.00117   0.29053   0.24738   0.00000  Uiso   1.00
C48    C     0.33218   0.04281   0.25258   0.00000  Uiso   1.00
C49    C     0.18263   0.14309   0.28010   0.00000  Uiso   1.00
C50    C     0.15070   0.19023   0.21989   0.00000  Uiso   1.00
H51    H     0.19421   0.12412   0.30418   0.00000  Uiso   1.00
H52    H     0.13913   0.20919   0.19580   0.00000  Uiso   1.00
C53    C     0.13305   0.14314   0.28012   0.00000  Uiso   1.00
C54    C     0.20029   0.19018   0.21987   0.00000  Uiso   1.00
H55    H     0.10733   0.12428   0.30424   0.00000  Uiso   1.00
H56    H     0.22600   0.20904   0.19575   0.00000  Uiso   1.00
N57    N     0.11736   0.16668   0.24999   0.00000  Uiso   1.00
N58    N     0.21597   0.16666   0.25001   0.00000  Uiso   1.00
N59    N     0.00468   0.21277   0.47751   0.00000  Uiso   1.00
O60    O     0.05121   0.20600   0.46453   0.00000  Uiso   1.00
O61    O     0.32251   0.24476   0.00271   0.00000  Uiso   1.00
N62    N     0.00073   0.09738   0.03031   0.00000  Uiso   1.00
O63    O     0.01787   0.06288   0.01093   0.00000  Uiso   1.00
O64    O     0.28735   0.10318   0.04090   0.00000  Uiso   1.00
C65    C     0.29098   0.29343   0.18522   0.00000  Uiso   1.00
O66    O     0.30932   0.26222   0.16567   0.00000  Uiso   1.00
O67    O     0.25154   0.31169   0.17389   0.00000  Uiso   1.00
H68    H     0.24103   0.29576   0.14982   0.00000  Uiso   1.00
C69    C     0.04237   0.03993   0.31475   0.00000  Uiso   1.00
O70    O     0.02396   0.07109   0.33436   0.00000  Uiso   1.00
O71    O     0.08188   0.02173   0.32600   0.00000  Uiso   1.00
H72    H     0.09238   0.03766   0.35008   0.00000  Uiso   1.00
O73    O     0.37291   0.10655   0.25000   0.00000  Uiso   1.00
O74    O     0.62709   0.22678   0.25000   0.00000  Uiso   1.00
O75    O     0.62706   0.10654   0.25000   0.00000  Uiso   1.00
O76    O     0.37294   0.22679   0.25000   0.00000  Uiso   1.00
C77    C     0.66617   0.08746   0.25142   0.00000  Uiso   1.00
C78    C     0.33384   0.24588   0.24856   0.00000  Uiso   1.00
O79    O     0.35186   0.16668   0.31492   0.00000  Uiso   1.00
O80    O     0.64814   0.16666   0.18508   0.00000  Uiso   1.00
O81    O     0.60600   0.16667   0.31492   0.00000  Uiso   1.00
O82    O     0.39400   0.16667   0.18508   0.00000  Uiso   1.00
C83    C     0.63944   0.16707   0.33616   0.00000  Uiso   1.00
C84    C     0.36056   0.16564   0.16390   0.00000  Uiso   1.00
Cu85   Cu    0.38022   0.16667   0.25000   0.00000  Uiso   1.00
Cu86   Cu    0.61978   0.16666   0.25000   0.00000  Uiso   1.00
C87    C     0.62457   0.16933   0.38545   0.00000  Uiso   1.00
C88    C     0.37568   0.15876   0.11522   0.00000  Uiso   1.00
C89    C     0.63953   0.19189   0.45554   0.00000  Uiso   1.00
C90    C     0.36424   0.12344   0.04938   0.00000  Uiso   1.00
C91    C     0.65595   0.18493   0.40920   0.00000  Uiso   1.00
C92    C     0.34604   0.13695   0.09380   0.00000  Uiso   1.00
C93    C     0.57704   0.15873   0.40827   0.00000  Uiso   1.00
C94    C     0.42322   0.16851   0.09185   0.00000  Uiso   1.00
C95    C     0.55943   0.16341   0.45509   0.00000  Uiso   1.00
C96    C     0.44352   0.15456   0.04778   0.00000  Uiso   1.00
C97    C     0.59126   0.18057   0.47887   0.00000  Uiso   1.00
C98    C     0.41291   0.13322   0.02572   0.00000  Uiso   1.00
C99    C     0.51068   0.15258   0.47857   0.00000  Uiso   1.00
C100   C     0.49336   0.16168   0.02514   0.00000  Uiso   1.00
C101   C     0.52680   0.17619   0.04808   0.00000  Uiso   1.00
C102   C     0.47872   0.13268   0.45723   0.00000  Uiso   1.00
C103   C     0.57455   0.18511   0.02551   0.00000  Uiso   1.00
C104   C     0.43129   0.12298   0.48036   0.00000  Uiso   1.00
H105   H     0.59844   0.19492   0.04544   0.00000  Uiso   1.00
H106   H     0.40873   0.10857   0.46157   0.00000  Uiso   1.00
H107   H     0.44363   0.18734   0.10911   0.00000  Uiso   1.00
H108   H     0.55419   0.14783   0.38813   0.00000  Uiso   1.00
H109   H     0.64297   0.12811   0.11258   0.00000  Uiso   1.00
H110   H     0.35912   0.19421   0.39120   0.00000  Uiso   1.00
H111   H     0.51770   0.17952   0.08412   0.00000  Uiso   1.00
H112   H     0.48923   0.12304   0.42263   0.00000  Uiso   1.00
C113   C     0.64335   0.02249   0.22329   0.00000  Uiso   1.00
C114   C     0.35668   0.31085   0.27666   0.00000  Uiso   1.00
H115   H     0.62677   0.04039   0.20163   0.00000  Uiso   1.00
H116   H     0.37329   0.29296   0.29832   0.00000  Uiso   1.00
C117   C     0.64479   0.31301   0.21971   0.00000  Uiso   1.00
C118   C     0.35523   0.02033   0.28025   0.00000  Uiso   1.00
C119   C     0.33450   0.29053   0.24738   0.00000  Uiso   1.00
C120   C     0.66551   0.04281   0.25258   0.00000  Uiso   1.00
C121   C     0.51597   0.14309   0.28010   0.00000  Uiso   1.00
C122   C     0.48404   0.19023   0.21989   0.00000  Uiso   1.00
H123   H     0.52755   0.12412   0.30418   0.00000  Uiso   1.00
H124   H     0.47246   0.20919   0.19580   0.00000  Uiso   1.00
C125   C     0.46638   0.14314   0.28012   0.00000  Uiso   1.00
C126   C     0.53362   0.19018   0.21987   0.00000  Uiso   1.00
H127   H     0.44066   0.12428   0.30424   0.00000  Uiso   1.00
H128   H     0.55934   0.20904   0.19575   0.00000  Uiso   1.00
N129   N     0.45069   0.16668   0.24999   0.00000  Uiso   1.00
N130   N     0.54931   0.16666   0.25001   0.00000  Uiso   1.00
N131   N     0.33801   0.21277   0.47751   0.00000  Uiso   1.00
O132   O     0.38454   0.20600   0.46453   0.00000  Uiso   1.00
O133   O     0.65584   0.24476   0.00271   0.00000  Uiso   1.00
N134   N     0.33407   0.09738   0.03031   0.00000  Uiso   1.00
O135   O     0.35120   0.06288   0.01093   0.00000  Uiso   1.00
O136   O     0.62068   0.10318   0.04090   0.00000  Uiso   1.00
C137   C     0.62431   0.29343   0.18522   0.00000  Uiso   1.00
O138   O     0.64265   0.26222   0.16567   0.00000  Uiso   1.00
O139   O     0.58488   0.31169   0.17389   0.00000  Uiso   1.00
H140   H     0.57437   0.29576   0.14982   0.00000  Uiso   1.00
C141   C     0.37570   0.03993   0.31475   0.00000  Uiso   1.00
O142   O     0.35729   0.07109   0.33436   0.00000  Uiso   1.00
O143   O     0.41521   0.02173   0.32600   0.00000  Uiso   1.00
H144   H     0.42571   0.03766   0.35008   0.00000  Uiso   1.00
O145   O     0.70625   0.10655   0.25000   0.00000  Uiso   1.00
O146   O     0.96042   0.22678   0.25000   0.00000  Uiso   1.00
O147   O     0.96039   0.10654   0.25000   0.00000  Uiso   1.00
O148   O     0.70628   0.22679   0.25000   0.00000  Uiso   1.00
C149   C     0.99950   0.08746   0.25142   0.00000  Uiso   1.00
C150   C     0.66717   0.24588   0.24856   0.00000  Uiso   1.00
O151   O     0.68519   0.16668   0.31492   0.00000  Uiso   1.00
O152   O     0.98148   0.16666   0.18508   0.00000  Uiso   1.00
O153   O     0.93933   0.16667   0.31492   0.00000  Uiso   1.00
O154   O     0.72733   0.16667   0.18508   0.00000  Uiso   1.00
C155   C     0.97277   0.16707   0.33616   0.00000  Uiso   1.00
C156   C     0.69389   0.16564   0.16390   0.00000  Uiso   1.00
Cu157  Cu    0.71355   0.16667   0.25000   0.00000  Uiso   1.00
Cu158  Cu    0.95311   0.16666   0.25000   0.00000  Uiso   1.00
C159   C     0.95790   0.16933   0.38545   0.00000  Uiso   1.00
C160   C     0.70901   0.15876   0.11522   0.00000  Uiso   1.00
C161   C     0.97287   0.19189   0.45554   0.00000  Uiso   1.00
C162   C     0.69758   0.12344   0.04938   0.00000  Uiso   1.00
C163   C     0.98929   0.18493   0.40920   0.00000  Uiso   1.00
C164   C     0.67937   0.13695   0.09380   0.00000  Uiso   1.00
C165   C     0.91038   0.15873   0.40827   0.00000  Uiso   1.00
C166   C     0.75655   0.16851   0.09185   0.00000  Uiso   1.00
C167   C     0.89277   0.16341   0.45509   0.00000  Uiso   1.00
C168   C     0.77685   0.15456   0.04778   0.00000  Uiso   1.00
C169   C     0.92459   0.18057   0.47887   0.00000  Uiso   1.00
C170   C     0.74625   0.13322   0.02572   0.00000  Uiso   1.00
C171   C     0.84401   0.15258   0.47857   0.00000  Uiso   1.00
C172   C     0.82669   0.16168   0.02514   0.00000  Uiso   1.00
C173   C     0.86013   0.17619   0.04808   0.00000  Uiso   1.00
C174   C     0.81205   0.13268   0.45723   0.00000  Uiso   1.00
C175   C     0.90788   0.18511   0.02551   0.00000  Uiso   1.00
C176   C     0.76463   0.12298   0.48036   0.00000  Uiso   1.00
H177   H     0.93177   0.19492   0.04544   0.00000  Uiso   1.00
H178   H     0.74207   0.10857   0.46157   0.00000  Uiso   1.00
H179   H     0.77696   0.18734   0.10911   0.00000  Uiso   1.00
H180   H     0.88752   0.14783   0.38813   0.00000  Uiso   1.00
H181   H     0.97631   0.12811   0.11258   0.00000  Uiso   1.00
H182   H     0.69246   0.19421   0.39120   0.00000  Uiso   1.00
H183   H     0.85103   0.17952   0.08412   0.00000  Uiso   1.00
H184   H     0.82257   0.12304   0.42263   0.00000  Uiso   1.00
C185   C     0.97669   0.02249   0.22329   0.00000  Uiso   1.00
C186   C     0.69002   0.31085   0.27666   0.00000  Uiso   1.00
H187   H     0.96010   0.04039   0.20163   0.00000  Uiso   1.00
H188   H     0.70662   0.29296   0.29832   0.00000  Uiso   1.00
C189   C     0.97813   0.31301   0.21971   0.00000  Uiso   1.00
C190   C     0.68856   0.02033   0.28025   0.00000  Uiso   1.00
C191   C     0.66784   0.29053   0.24738   0.00000  Uiso   1.00
C192   C     0.99885   0.04281   0.25258   0.00000  Uiso   1.00
C193   C     0.84930   0.14309   0.28010   0.00000  Uiso   1.00
C194   C     0.81737   0.19023   0.21989   0.00000  Uiso   1.00
H195   H     0.86088   0.12412   0.30418   0.00000  Uiso   1.00
H196   H     0.80579   0.20919   0.19580   0.00000  Uiso   1.00
C197   C     0.79971   0.14314   0.28012   0.00000  Uiso   1.00
C198   C     0.86695   0.19018   0.21987   0.00000  Uiso   1.00
H199   H     0.77400   0.12428   0.30424   0.00000  Uiso   1.00
H200   H     0.89267   0.20904   0.19575   0.00000  Uiso   1.00
N201   N     0.78403   0.16668   0.24999   0.00000  Uiso   1.00
N202   N     0.88264   0.16666   0.25001   0.00000  Uiso   1.00
N203   N     0.67135   0.21277   0.47751   0.00000  Uiso   1.00
O204   O     0.71787   0.20600   0.46453   0.00000  Uiso   1.00
O205   O     0.98918   0.24476   0.00271   0.00000  Uiso   1.00
N206   N     0.66740   0.09738   0.03031   0.00000  Uiso   1.00
O207   O     0.68453   0.06288   0.01093   0.00000  Uiso   1.00
O208   O     0.95401   0.10318   0.04090   0.00000  Uiso   1.00
C209   C     0.95764   0.29343   0.18522   0.00000  Uiso   1.00
O210   O     0.97598   0.26222   0.16567   0.00000  Uiso   1.00
O211   O     0.91821   0.31169   0.17389   0.00000  Uiso   1.00
H212   H     0.90770   0.29576   0.14982   0.00000  Uiso   1.00
C213   C     0.70904   0.03993   0.31475   0.00000  Uiso   1.00
O214   O     0.69063   0.07109   0.33436   0.00000  Uiso   1.00
O215   O     0.74854   0.02173   0.32600   0.00000  Uiso   1.00
H216   H     0.75905   0.03766   0.35008   0.00000  Uiso   1.00
O217   O     0.03958   0.43989   0.25000   0.00000  Uiso   1.00
O218   O     0.29375   0.56011   0.25000   0.00000  Uiso   1.00
O219   O     0.29372   0.43988   0.25000   0.00000  Uiso   1.00
O220   O     0.03961   0.56012   0.25000   0.00000  Uiso   1.00
C221   C     0.33283   0.42079   0.25142   0.00000  Uiso   1.00
C222   C     0.00050   0.57921   0.24856   0.00000  Uiso   1.00
O223   O     0.01852   0.50001   0.31492   0.00000  Uiso   1.00
O224   O     0.31481   0.49999   0.18508   0.00000  Uiso   1.00
O225   O     0.27267   0.50000   0.31492   0.00000  Uiso   1.00
O226   O     0.06067   0.50000   0.18508   0.00000  Uiso   1.00
C227   C     0.30610   0.50040   0.33616   0.00000  Uiso   1.00
C228   C     0.02723   0.49897   0.16390   0.00000  Uiso   1.00
Cu229  Cu    0.04689   0.50001   0.25000   0.00000  Uiso   1.00
Cu230  Cu    0.28645   0.49999   0.25000   0.00000  Uiso   1.00
C231   C     0.29123   0.50266   0.38545   0.00000  Uiso   1.00
C232   C     0.04234   0.49209   0.11522   0.00000  Uiso   1.00
C233   C     0.30620   0.52522   0.45554   0.00000  Uiso   1.00
C234   C     0.03091   0.45678   0.04938   0.00000  Uiso   1.00
C235   C     0.32262   0.51826   0.40920   0.00000  Uiso   1.00
C236   C     0.01271   0.47029   0.09380   0.00000  Uiso   1.00
C237   C     0.24371   0.49206   0.40827   0.00000  Uiso   1.00
C238   C     0.08988   0.50184   0.09185   0.00000  Uiso   1.00
C239   C     0.22610   0.49675   0.45509   0.00000  Uiso   1.00
C240   C     0.11018   0.48789   0.04778   0.00000  Uiso   1.00
C241   C     0.25792   0.51390   0.47887   0.00000  Uiso   1.00
C242   C     0.07958   0.46656   0.02572   0.00000  Uiso   1.00
C243   C     0.17734   0.48592   0.47857   0.00000  Uiso   1.00
C244   C     0.16003   0.49501   0.02514   0.00000  Uiso   1.00
C245   C     0.19346   0.50952   0.04808   0.00000  Uiso   1.00
C246   C     0.14539   0.46601   0.45723   0.00000  Uiso   1.00
C247   C     0.24122   0.51845   0.02551   0.00000  Uiso   1.00
C248   C     0.09796   0.45631   0.48036   0.00000  Uiso   1.00
H249   H     0.26511   0.52825   0.04544   0.00000  Uiso   1.00
H250   H     0.07540   0.44190   0.46157   0.00000  Uiso   1.00
H251   H     0.11030   0.52068   0.10911   0.00000  Uiso   1.00
H252   H     0.22085   0.48116   0.38813   0.00000  Uiso   1.00
H253   H     0.30964   0.46144   0.11258   0.00000  Uiso   1.00
H254   H     0.02579   0.52755   0.39120   0.00000  Uiso   1.00
H255   H     0.18437   0.51285   0.08412   0.00000  Uiso   1.00
H256   H     0.15590   0.45637   0.42263   0.00000  Uiso   1.00
C257   C     0.31002   0.35583   0.22329   0.00000  Uiso   1.00
C258   C     0.02335   0.64419   0.27666   0.00000  Uiso   1.00
H259   H     0.29343   0.37373   0.20163   0.00000  Uiso   1.00
H260   H     0.03995   0.62629   0.29832   0.00000  Uiso   1.00
C261   C     0.31146   0.64634   0.21971   0.00000  Uiso   1.00
C262   C     0.02190   0.35367   0.28025   0.00000  Uiso   1.00
C263   C     0.00117   0.62387   0.24738   0.00000  Uiso   1.00
C264   C     0.33218   0.37614   0.25258   0.00000  Uiso   1.00
C265   C     0.18263   0.47643   0.28010   0.00000  Uiso   1.00
C266   C     0.15070   0.52356   0.21989   0.00000  Uiso   1.00
H267   H     0.19421   0.45745   0.30418   0.00000  Uiso   1.00
H268   H     0.13913   0.54253   0.19580   0.00000  Uiso   1.00
C269   C     0.13305   0.47647   0.28012   0.00000  Uiso   1.00
C270   C     0.20029   0.52352   0.21987   0.00000  Uiso   1.00
H271   H     0.10733   0.45761   0.30424   0.00000  Uiso   1.00
H272   H     0.22600   0.54238   0.19575   0.00000  Uiso   1.00
N273   N     0.11736   0.50001   0.24999   0.00000  Uiso   1.00
N274   N     0.21597   0.49999   0.25001   0.00000  Uiso   1.00
N275   N     0.00468   0.54611   0.47751   0.00000  Uiso   1.00
O276   O     0.05121   0.53933   0.46453   0.00000  Uiso   1.00
O277   O     0.32251   0.57809   0.00271   0.00000  Uiso   1.00
N278   N     0.00073   0.43071   0.03031   0.00000  Uiso   1.00
O279   O     0.01787   0.39621   0.01093   0.00000  Uiso   1.00
O280   O     0.28735   0.43651   0.04090   0.00000  Uiso   1.00
C281   C     0.29098   0.62676   0.18522   0.00000  Uiso   1.00
O282   O     0.30932   0.59555   0.16567   0.00000  Uiso   1.00
O283   O     0.25154   0.64503   0.17389   0.00000  Uiso   1.00
H284   H     0.24103   0.62910   0.14982   0.00000  Uiso   1.00
C285   C     0.04237   0.37326   0.31475   0.00000  Uiso   1.00
O286   O     0.02396   0.40442   0.33436   0.00000  Uiso   1.00
O287   O     0.08188   0.35506   0.32600   0.00000  Uiso   1.00
H288   H     0.09238   0.37099   0.35008   0.00000  Uiso   1.00
O289   O     0.37291   0.43989   0.25000   0.00000  Uiso   1.00
O290   O     0.62709   0.56011   0.25000   0.00000  Uiso   1.00
O291   O     0.62706   0.43988   0.25000   0.00000  Uiso   1.00
O292   O     0.37294   0.56012   0.25000   0.00000  Uiso   1.00
C293   C     0.66617   0.42079   0.25142   0.00000  Uiso   1.00
C294   C     0.33384   0.57921   0.24856   0.00000  Uiso   1.00
O295   O     0.35186   0.50001   0.31492   0.00000  Uiso   1.00
O296   O     0.64814   0.49999   0.18508   0.00000  Uiso   1.00
O297   O     0.60600   0.50000   0.31492   0.00000  Uiso   1.00
O298   O     0.39400   0.50000   0.18508   0.00000  Uiso   1.00
C299   C     0.63944   0.50040   0.33616   0.00000  Uiso   1.00
C300   C     0.36056   0.49897   0.16390   0.00000  Uiso   1.00
Cu301  Cu    0.38022   0.50001   0.25000   0.00000  Uiso   1.00
Cu302  Cu    0.61978   0.49999   0.25000   0.00000  Uiso   1.00
C303   C     0.62457   0.50266   0.38545   0.00000  Uiso   1.00
C304   C     0.37568   0.49209   0.11522   0.00000  Uiso   1.00
C305   C     0.63953   0.52522   0.45554   0.00000  Uiso   1.00
C306   C     0.36424   0.45678   0.04938   0.00000  Uiso   1.00
C307   C     0.65595   0.51826   0.40920   0.00000  Uiso   1.00
C308   C     0.34604   0.47029   0.09380   0.00000  Uiso   1.00
C309   C     0.57704   0.49206   0.40827   0.00000  Uiso   1.00
C310   C     0.42322   0.50184   0.09185   0.00000  Uiso   1.00
C311   C     0.55943   0.49675   0.45509   0.00000  Uiso   1.00
C312   C     0.44352   0.48789   0.04778   0.00000  Uiso   1.00
C313   C     0.59126   0.51390   0.47887   0.00000  Uiso   1.00
C314   C     0.41291   0.46656   0.02572   0.00000  Uiso   1.00
C315   C     0.51068   0.48592   0.47857   0.00000  Uiso   1.00
C316   C     0.49336   0.49501   0.02514   0.00000  Uiso   1.00
C317   C     0.52680   0.50952   0.04808   0.00000  Uiso   1.00
C318   C     0.47872   0.46601   0.45723   0.00000  Uiso   1.00
C319   C     0.57455   0.51845   0.02551   0.00000  Uiso   1.00
C320   C     0.43129   0.45631   0.48036   0.00000  Uiso   1.00
H321   H     0.59844   0.52825   0.04544   0.00000  Uiso   1.00
H322   H     0.40873   0.44190   0.46157   0.00000  Uiso   1.00
H323   H     0.44363   0.52068   0.10911   0.00000  Uiso   1.00
H324   H     0.55419   0.48116   0.38813   0.00000  Uiso   1.00
H325   H     0.64297   0.46144   0.11258   0.00000  Uiso   1.00
H326   H     0.35912   0.52755   0.39120   0.00000  Uiso   1.00
H327   H     0.51770   0.51285   0.08412   0.00000  Uiso   1.00
H328   H     0.48923   0.45637   0.42263   0.00000  Uiso   1.00
C329   C     0.64335   0.35583   0.22329   0.00000  Uiso   1.00
C330   C     0.35668   0.64419   0.27666   0.00000  Uiso   1.00
H331   H     0.62677   0.37373   0.20163   0.00000  Uiso   1.00
H332   H     0.37329   0.62629   0.29832   0.00000  Uiso   1.00
C333   C     0.64479   0.64634   0.21971   0.00000  Uiso   1.00
C334   C     0.35523   0.35367   0.28025   0.00000  Uiso   1.00
C335   C     0.33450   0.62387   0.24738   0.00000  Uiso   1.00
C336   C     0.66551   0.37614   0.25258   0.00000  Uiso   1.00
C337   C     0.51597   0.47643   0.28010   0.00000  Uiso   1.00
C338   C     0.48404   0.52356   0.21989   0.00000  Uiso   1.00
H339   H     0.52755   0.45745   0.30418   0.00000  Uiso   1.00
H340   H     0.47246   0.54253   0.19580   0.00000  Uiso   1.00
C341   C     0.46638   0.47647   0.28012   0.00000  Uiso   1.00
C342   C     0.53362   0.52352   0.21987   0.00000  Uiso   1.00
H343   H     0.44066   0.45761   0.30424   0.00000  Uiso   1.00
H344   H     0.55934   0.54238   0.19575   0.00000  Uiso   1.00
N345   N     0.45069   0.50001   0.24999   0.00000  Uiso   1.00
N346   N     0.54931   0.49999   0.25001   0.00000  Uiso   1.00
N347   N     0.33801   0.54611   0.47751   0.00000  Uiso   1.00
O348   O     0.38454   0.53933   0.46453   0.00000  Uiso   1.00
O349   O     0.65584   0.57809   0.00271   0.00000  Uiso   1.00
N350   N     0.33407   0.43071   0.03031   0.00000  Uiso   1.00
O351   O     0.35120   0.39621   0.01093   0.00000  Uiso   1.00
O352   O     0.62068   0.43651   0.04090   0.00000  Uiso   1.00
C353   C     0.62431   0.62676   0.18522   0.00000  Uiso   1.00
O354   O     0.64265   0.59555   0.16567   0.00000  Uiso   1.00
O355   O     0.58488   0.64503   0.17389   0.00000  Uiso   1.00
H356   H     0.57437   0.62910   0.14982   0.00000  Uiso   1.00
C357   C     0.37570   0.37326   0.31475   0.00000  Uiso   1.00
O358   O     0.35729   0.40442   0.33436   0.00000  Uiso   1.00
O359   O     0.41521   0.35506   0.32600   0.00000  Uiso   1.00
H360   H     0.42571   0.37099   0.35008   0.00000  Uiso   1.00
O361   O     0.70625   0.43989   0.25000   0.00000  Uiso   1.00
O362   O     0.96042   0.56011   0.25000   0.00000  Uiso   1.00
O363   O     0.96039   0.43988   0.25000   0.00000  Uiso   1.00
O364   O     0.70628   0.56012   0.25000   0.00000  Uiso   1.00
C365   C     0.99950   0.42079   0.25142   0.00000  Uiso   1.00
C366   C     0.66717   0.57921   0.24856   0.00000  Uiso   1.00
O367   O     0.68519   0.50001   0.31492   0.00000  Uiso   1.00
O368   O     0.98148   0.49999   0.18508   0.00000  Uiso   1.00
O369   O     0.93933   0.50000   0.31492   0.00000  Uiso   1.00
O370   O     0.72733   0.50000   0.18508   0.00000  Uiso   1.00
C371   C     0.97277   0.50040   0.33616   0.00000  Uiso   1.00
C372   C     0.69389   0.49897   0.16390   0.00000  Uiso   1.00
Cu373  Cu    0.71355   0.50001   0.25000   0.00000  Uiso   1.00
Cu374  Cu    0.95311   0.49999   0.25000   0.00000  Uiso   1.00
C375   C     0.95790   0.50266   0.38545   0.00000  Uiso   1.00
C376   C     0.70901   0.49209   0.11522   0.00000  Uiso   1.00
C377   C     0.97287   0.52522   0.45554   0.00000  Uiso   1.00
C378   C     0.69758   0.45678   0.04938   0.00000  Uiso   1.00
C379   C     0.98929   0.51826   0.40920   0.00000  Uiso   1.00
C380   C     0.67937   0.47029   0.09380   0.00000  Uiso   1.00
C381   C     0.91038   0.49206   0.40827   0.00000  Uiso   1.00
C382   C     0.75655   0.50184   0.09185   0.00000  Uiso   1.00
C383   C     0.89277   0.49675   0.45509   0.00000  Uiso   1.00
C384   C     0.77685   0.48789   0.04778   0.00000  Uiso   1.00
C385   C     0.92459   0.51390   0.47887   0.00000  Uiso   1.00
C386   C     0.74625   0.46656   0.02572   0.00000  Uiso   1.00
C387   C     0.84401   0.48592   0.47857   0.00000  Uiso   1.00
C388   C     0.82669   0.49501   0.02514   0.00000  Uiso   1.00
C389   C     0.86013   0.50952   0.04808   0.00000  Uiso   1.00
C390   C     0.81205   0.46601   0.45723   0.00000  Uiso   1.00
C391   C     0.90788   0.51845   0.02551   0.00000  Uiso   1.00
C392   C     0.76463   0.45631   0.48036   0.00000  Uiso   1.00
H393   H     0.93177   0.52825   0.04544   0.00000  Uiso   1.00
H394   H     0.74207   0.44190   0.46157   0.00000  Uiso   1.00
H395   H     0.77696   0.52068   0.10911   0.00000  Uiso   1.00
H396   H     0.88752   0.48116   0.38813   0.00000  Uiso   1.00
H397   H     0.97631   0.46144   0.11258   0.00000  Uiso   1.00
H398   H     0.69246   0.52755   0.39120   0.00000  Uiso   1.00
H399   H     0.85103   0.51285   0.08412   0.00000  Uiso   1.00
H400   H     0.82257   0.45637   0.42263   0.00000  Uiso   1.00
C401   C     0.97669   0.35583   0.22329   0.00000  Uiso   1.00
C402   C     0.69002   0.64419   0.27666   0.00000  Uiso   1.00
H403   H     0.96010   0.37373   0.20163   0.00000  Uiso   1.00
H404   H     0.70662   0.62629   0.29832   0.00000  Uiso   1.00
C405   C     0.97813   0.64634   0.21971   0.00000  Uiso   1.00
C406   C     0.68856   0.35367   0.28025   0.00000  Uiso   1.00
C407   C     0.66784   0.62387   0.24738   0.00000  Uiso   1.00
C408   C     0.99885   0.37614   0.25258   0.00000  Uiso   1.00
C409   C     0.84930   0.47643   0.28010   0.00000  Uiso   1.00
C410   C     0.81737   0.52356   0.21989   0.00000  Uiso   1.00
H411   H     0.86088   0.45745   0.30418   0.00000  Uiso   1.00
H412   H     0.80579   0.54253   0.19580   0.00000  Uiso   1.00
C413   C     0.79971   0.47647   0.28012   0.00000  Uiso   1.00
C414   C     0.86695   0.52352   0.21987   0.00000  Uiso   1.00
H415   H     0.77400   0.45761   0.30424   0.00000  Uiso   1.00
H416   H     0.89267   0.54238   0.19575   0.00000  Uiso   1.00
N417   N     0.78403   0.50001   0.24999   0.00000  Uiso   1.00
N418   N     0.88264   0.49999   0.25001   0.00000  Uiso   1.00
N419   N     0.67135   0.54611   0.47751   0.00000  Uiso   1.00
O420   O     0.71787   0.53933   0.46453   0.00000  Uiso   1.00
O421   O     0.98918   0.57809   0.00271   0.00000  Uiso   1.00
N422   N     0.66740   0.43071   0.03031   0.00000  Uiso   1.00
O423   O     0.68453   0.39621   0.01093   0.00000  Uiso   1.00
O424   O     0.95401   0.43651   0.04090   0.00000  Uiso   1.00
C425   C     0.95764   0.62676   0.18522   0.00000  Uiso   1.00
O426   O     0.97598   0.59555   0.16567   0.00000  Uiso   1.00
O427   O     0.91821   0.64503   0.17389   0.00000  Uiso   1.00
H428   H     0.90770   0.62910   0.14982   0.00000  Uiso   1.00
C429   C     0.70904   0.37326   0.31475   0.00000  Uiso   1.00
O430   O     0.69063   0.40442   0.33436   0.00000  Uiso   1.00
O431   O     0.74854   0.35506   0.32600   0.00000  Uiso   1.00
H432   H     0.75905   0.37099   0.35008   0.00000  Uiso   1.00
O433   O     0.03958   0.77322   0.25000   0.00000  Uiso   1.00
O434   O     0.29375   0.89345   0.25000   0.00000  Uiso   1.00
O435   O     0.29372   0.77321   0.25000   0.00000  Uiso   1.00
O436   O     0.03961   0.89346   0.25000   0.00000  Uiso   1.00
C437   C     0.33283   0.75413   0.25142   0.00000  Uiso   1.00
C438   C     0.00050   0.91254   0.24856   0.00000  Uiso   1.00
O439   O     0.01852   0.83334   0.31492   0.00000  Uiso   1.00
O440   O     0.31481   0.83332   0.18508   0.00000  Uiso   1.00
O441   O     0.27267   0.83333   0.31492   0.00000  Uiso   1.00
O442   O     0.06067   0.83333   0.18508   0.00000  Uiso   1.00
C443   C     0.30610   0.83374   0.33616   0.00000  Uiso   1.00
C444   C     0.02723   0.83230   0.16390   0.00000  Uiso   1.00
Cu445  Cu    0.04689   0.83334   0.25000   0.00000  Uiso   1.00
Cu446  Cu    0.28645   0.83333   0.25000   0.00000  Uiso   1.00
C447   C     0.29123   0.83599   0.38545   0.00000  Uiso   1.00
C448   C     0.04234   0.82542   0.11522   0.00000  Uiso   1.00
C449   C     0.30620   0.85856   0.45554   0.00000  Uiso   1.00
C450   C     0.03091   0.79011   0.04938   0.00000  Uiso   1.00
C451   C     0.32262   0.85160   0.40920   0.00000  Uiso   1.00
C452   C     0.01271   0.80362   0.09380   0.00000  Uiso   1.00
C453   C     0.24371   0.82540   0.40827   0.00000  Uiso   1.00
C454   C     0.08988   0.83518   0.09185   0.00000  Uiso   1.00
C455   C     0.22610   0.83008   0.45509   0.00000  Uiso   1.00
C456   C     0.11018   0.82122   0.04778   0.00000  Uiso   1.00
C457   C     0.25792   0.84724   0.47887   0.00000  Uiso   1.00
C458   C     0.07958   0.79989   0.02572   0.00000  Uiso   1.00
C459   C     0.17734   0.81925   0.47857   0.00000  Uiso   1.00
C460   C     0.16003   0.82834   0.02514   0.00000  Uiso   1.00
C461   C     0.19346   0.84286   0.04808   0.00000  Uiso   1.00
C462   C     0.14539   0.79935   0.45723   0.00000  Uiso   1.00
C463   C     0.24122   0.85178   0.02551   0.00000  Uiso   1.00
C464   C     0.09796   0.78965   0.48036   0.00000  Uiso   1.00
H465   H     0.26511   0.86159   0.04544   0.00000  Uiso   1.00
H466   H     0.07540   0.77523   0.46157   0.00000  Uiso   1.00
H467   H     0.11030   0.85401   0.10911   0.00000  Uiso   1.00
H468   H     0.22085   0.81450   0.38813   0.00000  Uiso   1.00
H469   H     0.30964   0.79478   0.11258   0.00000  Uiso   1.00
H470   H     0.02579   0.86088   0.39120   0.00000  Uiso   1.00
H471   H     0.18437   0.84618   0.08412   0.00000  Uiso   1.00
H472   H     0.15590   0.78970   0.42263   0.00000  Uiso   1.00
C473   C     0.31002   0.68916   0.22329   0.00000  Uiso   1.00
C474   C     0.02335   0.97752   0.27666   0.00000  Uiso   1.00
H475   H     0.29343   0.70706   0.20163   0.00000  Uiso   1.00
H476   H     0.03995   0.95962   0.29832   0.00000  Uiso   1.00
C477   C     0.31146   0.97968   0.21971   0.00000  Uiso   1.00
C478   C     0.02190   0.68700   0.28025   0.00000  Uiso   1.00
C479   C     0.00117   0.95720   0.24738   0.00000  Uiso   1.00
C480   C     0.33218   0.70947   0.25258   0.00000  Uiso   1.00
C481   C     0.18263   0.80976   0.28010   0.00000  Uiso   1.00
C482   C     0.15070   0.85689   0.21989   0.00000  Uiso   1.00
H483   H     0.19421   0.79078   0.30418   0.00000  Uiso   1.00
H484   H     0.13913   0.87586   0.19580   0.00000  Uiso   1.00
C485   C     0.13305   0.80981   0.28012   0.00000  Uiso   1.00
C486   C     0.20029   0.85685   0.21987   0.00000  Uiso   1.00
H487   H     0.10733   0.79094   0.30424   0.00000  Uiso   1.00
H488   H     0.22600   0.87571   0.19575   0.00000  Uiso   1.00
N489   N     0.11736   0.83334   0.24999   0.00000  Uiso   1.00
N490   N     0.21597   0.83332   0.25001   0.00000  Uiso   1.00
N491   N     0.00468   0.87944   0.47751   0.00000  Uiso   1.00
O492   O     0.05121   0.87266   0.46453   0.00000  Uiso   1.00
O493   O     0.32251   0.91143   0.00271   0.00000  Uiso   1.00
N494   N     0.00073   0.76405   0.03031   0.00000  Uiso   1.00
O495   O     0.01787   0.72954   0.01093   0.00000  Uiso   1.00
O496   O     0.28735   0.76985   0.04090   0.00000  Uiso   1.00
C497   C     0.29098   0.96009   0.18522   0.00000  Uiso   1.00
O498   O     0.30932   0.92888   0.16567   0.00000  Uiso   1.00
O499   O     0.25154   0.97836   0.17389   0.00000  Uiso   1.00
H500   H     0.24103   0.96243   0.14982   0.00000  Uiso   1.00
C501   C     0.04237   0.70659   0.31475   0.00000  Uiso   1.00
O502   O     0.02396   0.73776   0.33436   0.00000  Uiso   1.00
O503   O     0.08188   0.68839   0.32600   0.00000  Uiso   1.00
H504   H     0.09238   0.70433   0.35008   0.00000  Uiso   1.00
O505   O     0.37291   0.77322   0.25000   0.00000  Uiso   1.00
O506   O     0.62709   0.89345   0.25000   0.00000  Uiso   1.00
O507   O     0.62706   0.77321   0.25000   0.00000  Uiso   1.00
O508   O     0.37294   0.89346   0.25000   0.00000  Uiso   1.00
C509   C     0.66617   0.75413   0.25142   0.00000  Uiso   1.00
C510   C     0.33384   0.91254   0.24856   0.00000  Uiso   1.00
O511   O     0.35186   0.83334   0.31492   0.00000  Uiso   1.00
O512   O     0.64814   0.83332   0.18508   0.00000  Uiso   1.00
O513   O     0.60600   0.83333   0.31492   0.00000  Uiso   1.00
O514   O     0.39400   0.83333   0.18508   0.00000  Uiso   1.00
C515   C     0.63944   0.83374   0.33616   0.00000  Uiso   1.00
C516   C     0.36056   0.83230   0.16390   0.00000  Uiso   1.00
Cu517  Cu    0.38022   0.83334   0.25000   0.00000  Uiso   1.00
Cu518  Cu    0.61978   0.83333   0.25000   0.00000  Uiso   1.00
C519   C     0.62457   0.83599   0.38545   0.00000  Uiso   1.00
C520   C     0.37568   0.82542   0.11522   0.00000  Uiso   1.00
C521   C     0.63953   0.85856   0.45554   0.00000  Uiso   1.00
C522   C     0.36424   0.79011   0.04938   0.00000  Uiso   1.00
C523   C     0.65595   0.85160   0.40920   0.00000  Uiso   1.00
C524   C     0.34604   0.80362   0.09380   0.00000  Uiso   1.00
C525   C     0.57704   0.82540   0.40827   0.00000  Uiso   1.00
C526   C     0.42322   0.83518   0.09185   0.00000  Uiso   1.00
C527   C     0.55943   0.83008   0.45509   0.00000  Uiso   1.00
C528   C     0.44352   0.82122   0.04778   0.00000  Uiso   1.00
C529   C     0.59126   0.84724   0.47887   0.00000  Uiso   1.00
C530   C     0.41291   0.79989   0.02572   0.00000  Uiso   1.00
C531   C     0.51068   0.81925   0.47857   0.00000  Uiso   1.00
C532   C     0.49336   0.82834   0.02514   0.00000  Uiso   1.00
C533   C     0.52680   0.84286   0.04808   0.00000  Uiso   1.00
C534   C     0.47872   0.79935   0.45723   0.00000  Uiso   1.00
C535   C     0.57455   0.85178   0.02551   0.00000  Uiso   1.00
C536   C     0.43129   0.78965   0.48036   0.00000  Uiso   1.00
H537   H     0.59844   0.86159   0.04544   0.00000  Uiso   1.00
H538   H     0.40873   0.77523   0.46157   0.00000  Uiso   1.00
H539   H     0.44363   0.85401   0.10911   0.00000  Uiso   1.00
H540   H     0.55419   0.81450   0.38813   0.00000  Uiso   1.00
H541   H     0.64297   0.79478   0.11258   0.00000  Uiso   1.00
H542   H     0.35912   0.86088   0.39120   0.00000  Uiso   1.00
H543   H     0.51770   0.84618   0.08412   0.00000  Uiso   1.00
H544   H     0.48923   0.78970   0.42263   0.00000  Uiso   1.00
C545   C     0.64335   0.68916   0.22329   0.00000  Uiso   1.00
C546   C     0.35668   0.97752   0.27666   0.00000  Uiso   1.00
H547   H     0.62677   0.70706   0.20163   0.00000  Uiso   1.00
H548   H     0.37329   0.95962   0.29832   0.00000  Uiso   1.00
C549   C     0.64479   0.97968   0.21971   0.00000  Uiso   1.00
C550   C     0.35523   0.68700   0.28025   0.00000  Uiso   1.00
C551   C     0.33450   0.95720   0.24738   0.00000  Uiso   1.00
C552   C     0.66551   0.70947   0.25258   0.00000  Uiso   1.00
C553   C     0.51597   0.80976   0.28010   0.00000  Uiso   1.00
C554   C     0.48404   0.85689   0.21989   0.00000  Uiso   1.00
H555   H     0.52755   0.79078   0.30418   0.00000  Uiso   1.00
H556   H     0.47246   0.87586   0.19580   0.00000  Uiso   1.00
C557   C     0.46638   0.80981   0.28012   0.00000  Uiso   1.00
C558   C     0.53362   0.85685   0.21987   0.00000  Uiso   1.00
H559   H     0.44066   0.79094   0.30424   0.00000  Uiso   1.00
H560   H     0.55934   0.87571   0.19575   0.00000  Uiso   1.00
N561   N     0.45069   0.83334   0.24999   0.00000  Uiso   1.00
N562   N     0.54931   0.83332   0.25001   0.00000  Uiso   1.00
N563   N     0.33801   0.87944   0.47751   0.00000  Uiso   1.00
O564   O     0.38454   0.87266   0.46453   0.00000  Uiso   1.00
O565   O     0.65584   0.91143   0.00271   0.00000  Uiso   1.00
N566   N     0.33407   0.76405   0.03031   0.00000  Uiso   1.00
O567   O     0.35120   0.72954   0.01093   0.00000  Uiso   1.00
O568   O     0.62068   0.76985   0.04090   0.00000  Uiso   1.00
C569   C     0.62431   0.96009   0.18522   0.00000  Uiso   1.00
O570   O     0.64265   0.92888   0.16567   0.00000  Uiso   1.00
O571   O     0.58488   0.97836   0.17389   0.00000  Uiso   1.00
H572   H     0.57437   0.96243   0.14982   0.00000  Uiso   1.00
C573   C     0.37570   0.70659   0.31475   0.00000  Uiso   1.00
O574   O     0.35729   0.73776   0.33436   0.00000  Uiso   1.00
O575   O     0.41521   0.68839   0.32600   0.00000  Uiso   1.00
H576   H     0.42571   0.70433   0.35008   0.00000  Uiso   1.00
O577   O     0.70625   0.77322   0.25000   0.00000  Uiso   1.00
O578   O     0.96042   0.89345   0.25000   0.00000  Uiso   1.00
O579   O     0.96039   0.77321   0.25000   0.00000  Uiso   1.00
O580   O     0.70628   0.89346   0.25000   0.00000  Uiso   1.00
C581   C     0.99950   0.75413   0.25142   0.00000  Uiso   1.00
C582   C     0.66717   0.91254   0.24856   0.00000  Uiso   1.00
O583   O     0.68519   0.83334   0.31492   0.00000  Uiso   1.00
O584   O     0.98148   0.83332   0.18508   0.00000  Uiso   1.00
O585   O     0.93933   0.83333   0.31492   0.00000  Uiso   1.00
O586   O     0.72733   0.83333   0.18508   0.00000  Uiso   1.00
C587   C     0.97277   0.83374   0.33616   0.00000  Uiso   1.00
C588   C     0.69389   0.83230   0.16390   0.00000  Uiso   1.00
Cu589  Cu    0.71355   0.83334   0.25000   0.00000  Uiso   1.00
Cu590  Cu    0.95311   0.83333   0.25000   0.00000  Uiso   1.00
C591   C     0.95790   0.83599   0.38545   0.00000  Uiso   1.00
C592   C     0.70901   0.82542   0.11522   0.00000  Uiso   1.00
C593   C     0.97287   0.85856   0.45554   0.00000  Uiso   1.00
C594   C     0.69758   0.79011   0.04938   0.00000  Uiso   1.00
C595   C     0.98929   0.85160   0.40920   0.00000  Uiso   1.00
C596   C     0.67937   0.80362   0.09380   0.00000  Uiso   1.00
C597   C     0.91038   0.82540   0.40827   0.00000  Uiso   1.00
C598   C     0.75655   0.83518   0.09185   0.00000  Uiso   1.00
C599   C     0.89277   0.83008   0.45509   0.00000  Uiso   1.00
C600   C     0.77685   0.82122   0.04778   0.00000  Uiso   1.00
C601   C     0.92459   0.84724   0.47887   0.00000  Uiso   1.00
C602   C     0.74625   0.79989   0.02572   0.00000  Uiso   1.00
C603   C     0.84401   0.81925   0.47857   0.00000  Uiso   1.00
C604   C     0.82669   0.82834   0.02514   0.00000  Uiso   1.00
C605   C     0.86013   0.84286   0.04808   0.00000  Uiso   1.00
C606   C     0.81205   0.79935   0.45723   0.00000  Uiso   1.00
C607   C     0.90788   0.85178   0.02551   0.00000  Uiso   1.00
C608   C     0.76463   0.78965   0.48036   0.00000  Uiso   1.00
H609   H     0.93177   0.86159   0.04544   0.00000  Uiso   1.00
H610   H     0.74207   0.77523   0.46157   0.00000  Uiso   1.00
H611   H     0.77696   0.85401   0.10911   0.00000  Uiso   1.00
H612   H     0.88752   0.81450   0.38813   0.00000  Uiso   1.00
H613   H     0.97631   0.79478   0.11258   0.00000  Uiso   1.00
H614   H     0.69246   0.86088   0.39120   0.00000  Uiso   1.00
H615   H     0.85103   0.84618   0.08412   0.00000  Uiso   1.00
H616   H     0.82257   0.78970   0.42263   0.00000  Uiso   1.00
C617   C     0.97669   0.68916   0.22329   0.00000  Uiso   1.00
C618   C     0.69002   0.97752   0.27666   0.00000  Uiso   1.00
H619   H     0.96010   0.70706   0.20163   0.00000  Uiso   1.00
H620   H     0.70662   0.95962   0.29832   0.00000  Uiso   1.00
C621   C     0.97813   0.97968   0.21971   0.00000  Uiso   1.00
C622   C     0.68856   0.68700   0.28025   0.00000  Uiso   1.00
C623   C     0.66784   0.95720   0.24738   0.00000  Uiso   1.00
C624   C     0.99885   0.70947   0.25258   0.00000  Uiso   1.00
C625   C     0.84930   0.80976   0.28010   0.00000  Uiso   1.00
C626   C     0.81737   0.85689   0.21989   0.00000  Uiso   1.00
H627   H     0.86088   0.79078   0.30418   0.00000  Uiso   1.00
H628   H     0.80579   0.87586   0.19580   0.00000  Uiso   1.00
C629   C     0.79971   0.80981   0.28012   0.00000  Uiso   1.00
C630   C     0.86695   0.85685   0.21987   0.00000  Uiso   1.00
H631   H     0.77400   0.79094   0.30424   0.00000  Uiso   1.00
H632   H     0.89267   0.87571   0.19575   0.00000  Uiso   1.00
N633   N     0.78403   0.83334   0.24999   0.00000  Uiso   1.00
N634   N     0.88264   0.83332   0.25001   0.00000  Uiso   1.00
N635   N     0.67135   0.87944   0.47751   0.00000  Uiso   1.00
O636   O     0.71787   0.87266   0.46453   0.00000  Uiso   1.00
O637   O     0.98918   0.91143   0.00271   0.00000  Uiso   1.00
N638   N     0.66740   0.76405   0.03031   0.00000  Uiso   1.00
O639   O     0.68453   0.72954   0.01093   0.00000  Uiso   1.00
O640   O     0.95401   0.76985   0.04090   0.00000  Uiso   1.00
C641   C     0.95764   0.96009   0.18522   0.00000  Uiso   1.00
O642   O     0.97598   0.92888   0.16567   0.00000  Uiso   1.00
O643   O     0.91821   0.97836   0.17389   0.00000  Uiso   1.00
H644   H     0.90770   0.96243   0.14982   0.00000  Uiso   1.00
C645   C     0.70904   0.70659   0.31475   0.00000  Uiso   1.00
O646   O     0.69063   0.73776   0.33436   0.00000  Uiso   1.00
O647   O     0.74854   0.68839   0.32600   0.00000  Uiso   1.00
H648   H     0.75905   0.70433   0.35008   0.00000  Uiso   1.00
O649   O     0.03958   0.10655   0.75000   0.00000  Uiso   1.00
O650   O     0.29375   0.22678   0.75000   0.00000  Uiso   1.00
O651   O     0.29372   0.10654   0.75000   0.00000  Uiso   1.00
O652   O     0.03961   0.22679   0.75000   0.00000  Uiso   1.00
C653   C     0.33283   0.08746   0.75142   0.00000  Uiso   1.00
C654   C     0.00050   0.24588   0.74856   0.00000  Uiso   1.00
O655   O     0.01852   0.16668   0.81492   0.00000  Uiso   1.00
O656   O     0.31481   0.16666   0.68508   0.00000  Uiso   1.00
O657   O     0.27267   0.16667   0.81492   0.00000  Uiso   1.00
O658   O     0.06067   0.16667   0.68508   0.00000  Uiso   1.00
C659   C     0.30610   0.16707   0.83616   0.00000  Uiso   1.00
C660   C     0.02723   0.16564   0.66390   0.00000  Uiso   1.00
Cu661  Cu    0.04689   0.16667   0.75000   0.00000  Uiso   1.00
Cu662  Cu    0.28645   0.16666   0.75000   0.00000  Uiso   1.00
C663   C     0.29123   0.16933   0.88545   0.00000  Uiso   1.00
C664   C     0.04234   0.15876   0.61522   0.00000  Uiso   1.00
C665   C     0.30620   0.19189   0.95554   0.00000  Uiso   1.00
C666   C     0.03091   0.12344   0.54938   0.00000  Uiso   1.00
C667   C     0.32262   0.18493   0.90920   0.00000  Uiso   1.00
C668   C     0.01271   0.13695   0.59380   0.00000  Uiso   1.00
C669   C     0.24371   0.15873   0.90827   0.00000  Uiso   1.00
C670   C     0.08988   0.16851   0.59185   0.00000  Uiso   1.00
C671   C     0.22610   0.16341   0.95509   0.00000  Uiso   1.00
C672   C     0.11018   0.15456   0.54778   0.00000  Uiso   1.00
C673   C     0.25792   0.18057   0.97887   0.00000  Uiso   1.00
C674   C     0.07958   0.13322   0.52572   0.00000  Uiso   1.00
C675   C     0.17734   0.15258   0.97857   0.00000  Uiso   1.00
C676   C     0.16003   0.16168   0.52514   0.00000  Uiso   1.00
C677   C     0.19346   0.17619   0.54808   0.00000  Uiso   1.00
C678   C     0.14539   0.13268   0.95723   0.00000  Uiso   1.00
C679   C     0.24122   0.18511   0.52551   0.00000  Uiso   1.00
C680   C     0.09796   0.12298   0.98036   0.00000  Uiso   1.00
H681   H     0.26511   0.19492   0.54544   0.00000  Uiso   1.00
H682   H     0.07540   0.10857   0.96157   0.00000  Uiso   1.00
H683   H     0.11030   0.18734   0.60911   0.00000  Uiso   1.00
H684   H     0.22085   0.14783   0.88813   0.00000  Uiso   1.00
H685   H     0.30964   0.12811   0.61258   0.00000  Uiso   1.00
H686   H     0.02579   0.19421   0.89120   0.00000  Uiso   1.00
H687   H     0.18437   0.17952   0.58412   0.00000  Uiso   1.00
H688   H     0.15590   0.12304   0.92263   0.00000  Uiso   1.00
C689   C     0.31002   0.02249   0.72329   0.00000  Uiso   1.00
C690   C     0.02335   0.31085   0.77666   0.00000  Uiso   1.00
H691   H     0.29343   0.04039   0.70163   0.00000  Uiso   1.00
H692   H     0.03995   0.29296   0.79832   0.00000  Uiso   1.00
C693   C     0.31146   0.31301   0.71971   0.00000  Uiso   1.00
C694   C     0.02190   0.02033   0.78025   0.00000  Uiso   1.00
C695   C     0.00117   0.29053   0.74738   0.00000  Uiso   1.00
C696   C     0.33218   0.04281   0.75258   0.00000  Uiso   1.00
C697   C     0.18263   0.14309   0.78010   0.00000  Uiso   1.00
C698   C     0.15070   0.19023   0.71989   0.00000  Uiso   1.00
H699   H     0.19421   0.12412   0.80418   0.00000  Uiso   1.00
H700   H     0.13913   0.20919   0.69580   0.00000  Uiso   1.00
C701   C     0.13305   0.14314   0.78012   0.00000  Uiso   1.00
C702   C     0.20029   0.19018   0.71987   0.00000  Uiso   1.00
H703   H     0.10733   0.12428   0.80424   0.00000  Uiso   1.00
H704   H     0.22600   0.20904   0.69575   0.00000  Uiso   1.00
N705   N     0.11736   0.16668   0.74999   0.00000  Uiso   1.00
N706   N     0.21597   0.16666   0.75001   0.00000  Uiso   1.00
N707   N     0.00468   0.21277   0.97751   0.00000  Uiso   1.00
O708   O     0.05121   0.20600   0.96453   0.00000  Uiso   1.00
O709   O     0.32251   0.24476   0.50271   0.00000  Uiso   1.00
N710   N     0.00073   0.09738   0.53031   0.00000  Uiso   1.00
O711   O     0.01787   0.06288   0.51093   0.00000  Uiso   1.00
O712   O     0.28735   0.10318   0.54090   0.00000  Uiso   1.00
C713   C     0.29098   0.29343   0.68522   0.00000  Uiso   1.00
O714   O     0.30932   0.26222   0.66567   0.00000  Uiso   1.00
O715   O     0.25154   0.31169   0.67389   0.00000  Uiso   1.00
H716   H     0.24103   0.29576   0.64982   0.00000  Uiso   1.00
C717   C     0.04237   0.03993   0.81475   0.00000  Uiso   1.00
O718   O     0.02396   0.07109   0.83436   0.00000  Uiso   1.00
O719   O     0.08188   0.02173   0.82600   0.00000  Uiso   1.00
H720   H     0.09238   0.03766   0.85008   0.00000  Uiso   1.00
O721   O     0.37291   0.10655   0.75000   0.00000  Uiso   1.00
O722   O     0.62709   0.22678   0.75000   0.00000  Uiso   1.00
O723   O     0.62706   0.10654   0.75000   0.00000  Uiso   1.00
O724   O     0.37294   0.22679   0.75000   0.00000  Uiso   1.00
C725   C     0.66617   0.08746   0.75142   0.00000  Uiso   1.00
C726   C     0.33384   0.24588   0.74856   0.00000  Uiso   1.00
O727   O     0.35186   0.16668   0.81492   0.00000  Uiso   1.00
O728   O     0.64814   0.16666   0.68508   0.00000  Uiso   1.00
O729   O     0.60600   0.16667   0.81492   0.00000  Uiso   1.00
O730   O     0.39400   0.16667   0.68508   0.00000  Uiso   1.00
C731   C     0.63944   0.16707   0.83616   0.00000  Uiso   1.00
C732   C     0.36056   0.16564   0.66390   0.00000  Uiso   1.00
Cu733  Cu    0.38022   0.16667   0.75000   0.00000  Uiso   1.00
Cu734  Cu    0.61978   0.16666   0.75000   0.00000  Uiso   1.00
C735   C     0.62457   0.16933   0.88545   0.00000  Uiso   1.00
C736   C     0.37568   0.15876   0.61522   0.00000  Uiso   1.00
C737   C     0.63953   0.19189   0.95554   0.00000  Uiso   1.00
C738   C     0.36424   0.12344   0.54938   0.00000  Uiso   1.00
C739   C     0.65595   0.18493   0.90920   0.00000  Uiso   1.00
C740   C     0.34604   0.13695   0.59380   0.00000  Uiso   1.00
C741   C     0.57704   0.15873   0.90827   0.00000  Uiso   1.00
C742   C     0.42322   0.16851   0.59185   0.00000  Uiso   1.00
C743   C     0.55943   0.16341   0.95509   0.00000  Uiso   1.00
C744   C     0.44352   0.15456   0.54778   0.00000  Uiso   1.00
C745   C     0.59126   0.18057   0.97887   0.00000  Uiso   1.00
C746   C     0.41291   0.13322   0.52572   0.00000  Uiso   1.00
C747   C     0.51068   0.15258   0.97857   0.00000  Uiso   1.00
C748   C     0.49336   0.16168   0.52514   0.00000  Uiso   1.00
C749   C     0.52680   0.17619   0.54808   0.00000  Uiso   1.00
C750   C     0.47872   0.13268   0.95723   0.00000  Uiso   1.00
C751   C     0.57455   0.18511   0.52551   0.00000  Uiso   1.00
C752   C     0.43129   0.12298   0.98036   0.00000  Uiso   1.00
H753   H     0.59844   0.19492   0.54544   0.00000  Uiso   1.00
H754   H     0.40873   0.10857   0.96157   0.00000  Uiso   1.00
H755   H     0.44363   0.18734   0.60911   0.00000  Uiso   1.00
H756   H     0.55419   0.14783   0.88813   0.00000  Uiso   1.00
H757   H     0.64297   0.12811   0.61258   0.00000  Uiso   1.00
H758   H     0.35912   0.19421   0.89120   0.00000  Uiso   1.00
H759   H     0.51770   0.17952   0.58412   0.00000  Uiso   1.00
H760   H     0.48923   0.12304   0.92263   0.00000  Uiso   1.00
C761   C     0.64335   0.02249   0.72329   0.00000  Uiso   1.00
C762   C     0.35668   0.31085   0.77666   0.00000  Uiso   1.00
H763   H     0.62677   0.04039   0.70163   0.00000  Uiso   1.00
H764   H     0.37329   0.29296   0.79832   0.00000  Uiso   1.00
C765   C     0.64479   0.31301   0.71971   0.00000  Uiso   1.00
C766   C     0.35523   0.02033   0.78025   0.00000  Uiso   1.00
C767   C     0.33450   0.29053   0.74738   0.00000  Uiso   1.00
C768   C     0.66551   0.04281   0.75258   0.00000  Uiso   1.00
C769   C     0.51597   0.14309   0.78010   0.00000  Uiso   1.00
C770   C     0.48404   0.19023   0.71989   0.00000  Uiso   1.00
H771   H     0.52755   0.12412   0.80418   0.00000  Uiso   1.00
H772   H     0.47246   0.20919   0.69580   0.00000  Uiso   1.00
C773   C     0.46638   0.14314   0.78012   0.00000  Uiso   1.00
C774   C     0.53362   0.19018   0.71987   0.00000  Uiso   1.00
H775   H     0.44066   0.12428   0.80424   0.00000  Uiso   1.00
H776   H     0.55934   0.20904   0.69575   0.00000  Uiso   1.00
N777   N     0.45069   0.16668   0.74999   0.00000  Uiso   1.00
N778   N     0.54931   0.16666   0.75001   0.00000  Uiso   1.00
N779   N     0.33801   0.21277   0.97751   0.00000  Uiso   1.00
O780   O     0.38454   0.20600   0.96453   0.00000  Uiso   1.00
O781   O     0.65584   0.24476   0.50271   0.00000  Uiso   1.00
N782   N     0.33407   0.09738   0.53031   0.00000  Uiso   1.00
O783   O     0.35120   0.06288   0.51093   0.00000  Uiso   1.00
O784   O     0.62068   0.10318   0.54090   0.00000  Uiso   1.00
C785   C     0.62431   0.29343   0.68522   0.00000  Uiso   1.00
O786   O     0.64265   0.26222   0.66567   0.00000  Uiso   1.00
O787   O     0.58488   0.31169   0.67389   0.00000  Uiso   1.00
H788   H     0.57437   0.29576   0.64982   0.00000  Uiso   1.00
C789   C     0.37570   0.03993   0.81475   0.00000  Uiso   1.00
O790   O     0.35729   0.07109   0.83436   0.00000  Uiso   1.00
O791   O     0.41521   0.02173   0.82600   0.00000  Uiso   1.00
H792   H     0.42571   0.03766   0.85008   0.00000  Uiso   1.00
O793   O     0.70625   0.10655   0.75000   0.00000  Uiso   1.00
O794   O     0.96042   0.22678   0.75000   0.00000  Uiso   1.00
O795   O     0.96039   0.10654   0.75000   0.00000  Uiso   1.00
O796   O     0.70628   0.22679   0.75000   0.00000  Uiso   1.00
C797   C     0.99950   0.08746   0.75142   0.00000  Uiso   1.00
C798   C     0.66717   0.24588   0.74856   0.00000  Uiso   1.00
O799   O     0.68519   0.16668   0.81492   0.00000  Uiso   1.00
O800   O     0.98148   0.16666   0.68508   0.00000  Uiso   1.00
O801   O     0.93933   0.16667   0.81492   0.00000  Uiso   1.00
O802   O     0.72733   0.16667   0.68508   0.00000  Uiso   1.00
C803   C     0.97277   0.16707   0.83616   0.00000  Uiso   1.00
C804   C     0.69389   0.16564   0.66390   0.00000  Uiso   1.00
Cu805  Cu    0.71355   0.16667   0.75000   0.00000  Uiso   1.00
Cu806  Cu    0.95311   0.16666   0.75000   0.00000  Uiso   1.00
C807   C     0.95790   0.16933   0.88545   0.00000  Uiso   1.00
C808   C     0.70901   0.15876   0.61522   0.00000  Uiso   1.00
C809   C     0.97287   0.19189   0.95554   0.00000  Uiso   1.00
C810   C     0.69758   0.12344   0.54938   0.00000  Uiso   1.00
C811   C     0.98929   0.18493   0.90920   0.00000  Uiso   1.00
C812   C     0.67937   0.13695   0.59380   0.00000  Uiso   1.00
C813   C     0.91038   0.15873   0.90827   0.00000  Uiso   1.00
C814   C     0.75655   0.16851   0.59185   0.00000  Uiso   1.00
C815   C     0.89277   0.16341   0.95509   0.00000  Uiso   1.00
C816   C     0.77685   0.15456   0.54778   0.00000  Uiso   1.00
C817   C     0.92459   0.18057   0.97887   0.00000  Uiso   1.00
C818   C     0.74625   0.13322   0.52572   0.00000  Uiso   1.00
C819   C     0.84401   0.15258   0.97857   0.00000  Uiso   1.00
C820   C     0.82669   0.16168   0.52514   0.00000  Uiso   1.00
C821   C     0.86013   0.17619   0.54808   0.00000  Uiso   1.00
C822   C     0.81205   0.13268   0.95723   0.00000  Uiso   1.00
C823   C     0.90788   0.18511   0.52551   0.00000  Uiso   1.00
C824   C     0.76463   0.12298   0.98036   0.00000  Uiso   1.00
H825   H     0.93177   0.19492   0.54544   0.00000  Uiso   1.00
H826   H     0.74207   0.10857   0.96157   0.00000  Uiso   1.00
H827   H     0.77696   0.18734   0.60911   0.00000  Uiso   1.00
H828   H     0.88752   0.14783   0.88813   0.00000  Uiso   1.00
H829   H     0.97631   0.12811   0.61258   0.00000  Uiso   1.00
H830   H     0.69246   0.19421   0.89120   0.00000  Uiso   1.00
H831   H     0.85103   0.17952   0.58412   0.00000  Uiso   1.00
H832   H     0.82257   0.12304   0.92263   0.00000  Uiso   1.00
C833   C     0.97669   0.02249   0.72329   0.00000  Uiso   1.00
C834   C     0.69002   0.31085   0.77666   0.00000  Uiso   1.00
H835   H     0.96010   0.04039   0.70163   0.00000  Uiso   1.00
H836   H     0.70662   0.29296   0.79832   0.00000  Uiso   1.00
C837   C     0.97813   0.31301   0.71971   0.00000  Uiso   1.00
C838   C     0.68856   0.02033   0.78025   0.00000  Uiso   1.00
C839   C     0.66784   0.29053   0.74738   0.00000  Uiso   1.00
C840   C     0.99885   0.04281   0.75258   0.00000  Uiso   1.00
C841   C     0.84930   0.14309   0.78010   0.00000  Uiso   1.00
C842   C     0.81737   0.19023   0.71989   0.00000  Uiso   1.00
H843   H     0.86088   0.12412   0.80418   0.00000  Uiso   1.00
H844   H     0.80579   0.20919   0.69580   0.00000  Uiso   1.00
C845   C     0.79971   0.14314   0.78012   0.00000  Uiso   1.00
C846   C     0.86695   0.19018   0.71987   0.00000  Uiso   1.00
H847   H     0.77400   0.12428   0.80424   0.00000  Uiso   1.00
H848   H     0.89267   0.20904   0.69575   0.00000  Uiso   1.00
N849   N     0.78403   0.16668   0.74999   0.00000  Uiso   1.00
N850   N     0.88264   0.16666   0.75001   0.00000  Uiso   1.00
N851   N     0.67135   0.21277   0.97751   0.00000  Uiso   1.00
O852   O     0.71787   0.20600   0.96453   0.00000  Uiso   1.00
O853   O     0.98918   0.24476   0.50271   0.00000  Uiso   1.00
N854   N     0.66740   0.09738   0.53031   0.00000  Uiso   1.00
O855   O     0.68453   0.06288   0.51093   0.00000  Uiso   1.00
O856   O     0.95401   0.10318   0.54090   0.00000  Uiso   1.00
C857   C     0.95764   0.29343   0.68522   0.00000  Uiso   1.00
O858   O     0.97598   0.26222   0.66567   0.00000  Uiso   1.00
O859   O     0.91821   0.31169   0.67389   0.00000  Uiso   1.00
H860   H     0.90770   0.29576   0.64982   0.00000  Uiso   1.00
C861   C     0.70904   0.03993   0.81475   0.00000  Uiso   1.00
O862   O     0.69063   0.07109   0.83436   0.00000  Uiso   1.00
O863   O     0.74854   0.02173   0.82600   0.00000  Uiso   1.00
H864   H     0.75905   0.03766   0.85008   0.00000  Uiso   1.00
O865   O     0.03958   0.43989   0.75000   0.00000  Uiso   1.00
O866   O     0.29375   0.56011   0.75000   0.00000  Uiso   1.00
O867   O     0.29372   0.43988   0.75000   0.00000  Uiso   1.00
O868   O     0.03961   0.56012   0.75000   0.00000  Uiso   1.00
C869   C     0.33283   0.42079   0.75142   0.00000  Uiso   1.00
C870   C     0.00050   0.57921   0.74856   0.00000  Uiso   1.00
O871   O     0.01852   0.50001   0.81492   0.00000  Uiso   1.00
O872   O     0.31481   0.49999   0.68508   0.00000  Uiso   1.00
O873   O     0.27267   0.50000   0.81492   0.00000  Uiso   1.00
O874   O     0.06067   0.50000   0.68508   0.00000  Uiso   1.00
C875   C     0.30610   0.50040   0.83616   0.00000  Uiso   1.00
C876   C     0.02723   0.49897   0.66390   0.00000  Uiso   1.00
Cu877  Cu    0.04689   0.50001   0.75000   0.00000  Uiso   1.00
Cu878  Cu    0.28645   0.49999   0.75000   0.00000  Uiso   1.00
C879   C     0.29123   0.50266   0.88545   0.00000  Uiso   1.00
C880   C     0.04234   0.49209   0.61522   0.00000  Uiso   1.00
C881   C     0.30620   0.52522   0.95554   0.00000  Uiso   1.00
C882   C     0.03091   0.45678   0.54938   0.00000  Uiso   1.00
C883   C     0.32262   0.51826   0.90920   0.00000  Uiso   1.00
C884   C     0.01271   0.47029   0.59380   0.00000  Uiso   1.00
C885   C     0.24371   0.49206   0.90827   0.00000  Uiso   1.00
C886   C     0.08988   0.50184   0.59185   0.00000  Uiso   1.00
C887   C     0.22610   0.49675   0.95509   0.00000  Uiso   1.00
C888   C     0.11018   0.48789   0.54778   0.00000  Uiso   1.00
C889   C     0.25792   0.51390   0.97887   0.00000  Uiso   1.00
C890   C     0.07958   0.46656   0.52572   0.00000  Uiso   1.00
C891   C     0.17734   0.48592   0.97857   0.00000  Uiso   1.00
C892   C     0.16003   0.49501   0.52514   0.00000  Uiso   1.00
C893   C     0.19346   0.50952   0.54808   0.00000  Uiso   1.00
C894   C     0.14539   0.46601   0.95723   0.00000  Uiso   1.00
C895   C     0.24122   0.51845   0.52551   0.00000  Uiso   1.00
C896   C     0.09796   0.45631   0.98036   0.00000  Uiso   1.00
H897   H     0.26511   0.52825   0.54544   0.00000  Uiso   1.00
H898   H     0.07540   0.44190   0.96157   0.00000  Uiso   1.00
H899   H     0.11030   0.52068   0.60911   0.00000  Uiso   1.00
H900   H     0.22085   0.48116   0.88813   0.00000  Uiso   1.00
H901   H     0.30964   0.46144   0.61258   0.00000  Uiso   1.00
H902   H     0.02579   0.52755   0.89120   0.00000  Uiso   1.00
H903   H     0.18437   0.51285   0.58412   0.00000  Uiso   1.00
H904   H     0.15590   0.45637   0.92263   0.00000  Uiso   1.00
C905   C     0.31002   0.35583   0.72329   0.00000  Uiso   1.00
C906   C     0.02335   0.64419   0.77666   0.00000  Uiso   1.00
H907   H     0.29343   0.37373   0.70163   0.00000  Uiso   1.00
H908   H     0.03995   0.62629   0.79832   0.00000  Uiso   1.00
C909   C     0.31146   0.64634   0.71971   0.00000  Uiso   1.00
C910   C     0.02190   0.35367   0.78025   0.00000  Uiso   1.00
C911   C     0.00117   0.62387   0.74738   0.00000  Uiso   1.00
C912   C     0.33218   0.37614   0.75258   0.00000  Uiso   1.00
C913   C     0.18263   0.47643   0.78010   0.00000  Uiso   1.00
C914   C     0.15070   0.52356   0.71989   0.00000  Uiso   1.00
H915   H     0.19421   0.45745   0.80418   0.00000  Uiso   1.00
H916   H     0.13913   0.54253   0.69580   0.00000  Uiso   1.00
C917   C     0.13305   0.47647   0.78012   0.00000  Uiso   1.00
C918   C     0.20029   0.52352   0.71987   0.00000  Uiso   1.00
H919   H     0.10733   0.45761   0.80424   0.00000  Uiso   1.00
H920   H     0.22600   0.54238   0.69575   0.00000  Uiso   1.00
N921   N     0.11736   0.50001   0.74999   0.00000  Uiso   1.00
N922   N     0.21597   0.49999   0.75001   0.00000  Uiso   1.00
N923   N     0.00468   0.54611   0.97751   0.00000  Uiso   1.00
O924   O     0.05121   0.53933   0.96453   0.00000  Uiso   1.00
O925   O     0.32251   0.57809   0.50271   0.00000  Uiso   1.00
N926   N     0.00073   0.43071   0.53031   0.00000  Uiso   1.00
O927   O     0.01787   0.39621   0.51093   0.00000  Uiso   1.00
O928   O     0.28735   0.43651   0.54090   0.00000  Uiso   1.00
C929   C     0.29098   0.62676   0.68522   0.00000  Uiso   1.00
O930   O     0.30932   0.59555   0.66567   0.00000  Uiso   1.00
O931   O     0.25154   0.64503   0.67389   0.00000  Uiso   1.00
H932   H     0.24103   0.62910   0.64982   0.00000  Uiso   1.00
C933   C     0.04237   0.37326   0.81475   0.00000  Uiso   1.00
O934   O     0.02396   0.40442   0.83436   0.00000  Uiso   1.00
O935   O     0.08188   0.35506   0.82600   0.00000  Uiso   1.00
H936   H     0.09238   0.37099   0.85008   0.00000  Uiso   1.00
O937   O     0.37291   0.43989   0.75000   0.00000  Uiso   1.00
O938   O     0.62709   0.56011   0.75000   0.00000  Uiso   1.00
O939   O     0.62706   0.43988   0.75000   0.00000  Uiso   1.00
O940   O     0.37294   0.56012   0.75000   0.00000  Uiso   1.00
C941   C     0.66617   0.42079   0.75142   0.00000  Uiso   1.00
C942   C     0.33384   0.57921   0.74856   0.00000  Uiso   1.00
O943   O     0.35186   0.50001   0.81492   0.00000  Uiso   1.00
O944   O     0.64814   0.49999   0.68508   0.00000  Uiso   1.00
O945   O     0.60600   0.50000   0.81492   0.00000  Uiso   1.00
O946   O     0.39400   0.50000   0.68508   0.00000  Uiso   1.00
C947   C     0.63944   0.50040   0.83616   0.00000  Uiso   1.00
C948   C     0.36056   0.49897   0.66390   0.00000  Uiso   1.00
Cu949  Cu    0.38022   0.50001   0.75000   0.00000  Uiso   1.00
Cu950  Cu    0.61978   0.49999   0.75000   0.00000  Uiso   1.00
C951   C     0.62457   0.50266   0.88545   0.00000  Uiso   1.00
C952   C     0.37568   0.49209   0.61522   0.00000  Uiso   1.00
C953   C     0.63953   0.52522   0.95554   0.00000  Uiso   1.00
C954   C     0.36424   0.45678   0.54938   0.00000  Uiso   1.00
C955   C     0.65595   0.51826   0.90920   0.00000  Uiso   1.00
C956   C     0.34604   0.47029   0.59380   0.00000  Uiso   1.00
C957   C     0.57704   0.49206   0.90827   0.00000  Uiso   1.00
C958   C     0.42322   0.50184   0.59185   0.00000  Uiso   1.00
C959   C     0.55943   0.49675   0.95509   0.00000  Uiso   1.00
C960   C     0.44352   0.48789   0.54778   0.00000  Uiso   1.00
C961   C     0.59126   0.51390   0.97887   0.00000  Uiso   1.00
C962   C     0.41291   0.46656   0.52572   0.00000  Uiso   1.00
C963   C     0.51068   0.48592   0.97857   0.00000  Uiso   1.00
C964   C     0.49336   0.49501   0.52514   0.00000  Uiso   1.00
C965   C     0.52680   0.50952   0.54808   0.00000  Uiso   1.00
C966   C     0.47872   0.46601   0.95723   0.00000  Uiso   1.00
C967   C     0.57455   0.51845   0.52551   0.00000  Uiso   1.00
C968   C     0.43129   0.45631   0.98036   0.00000  Uiso   1.00
H969   H     0.59844   0.52825   0.54544   0.00000  Uiso   1.00
H970   H     0.40873   0.44190   0.96157   0.00000  Uiso   1.00
H971   H     0.44363   0.52068   0.60911   0.00000  Uiso   1.00
H972   H     0.55419   0.48116   0.88813   0.00000  Uiso   1.00
H973   H     0.64297   0.46144   0.61258   0.00000  Uiso   1.00
H974   H     0.35912   0.52755   0.89120   0.00000  Uiso   1.00
H975   H     0.51770   0.51285   0.58412   0.00000  Uiso   1.00
H976   H     0.48923   0.45637   0.92263   0.00000  Uiso   1.00
C977   C     0.64335   0.35583   0.72329   0.00000  Uiso   1.00
C978   C     0.35668   0.64419   0.77666   0.00000  Uiso   1.00
H979   H     0.62677   0.37373   0.70163   0.00000  Uiso   1.00
H980   H     0.37329   0.62629   0.79832   0.00000  Uiso   1.00
C981   C     0.64479   0.64634   0.71971   0.00000  Uiso   1.00
C982   C     0.35523   0.35367   0.78025   0.00000  Uiso   1.00
C983   C     0.33450   0.62387   0.74738   0.00000  Uiso   1.00
C984   C     0.66551   0.37614   0.75258   0.00000  Uiso   1.00
C985   C     0.51597   0.47643   0.78010   0.00000  Uiso   1.00
C986   C     0.48404   0.52356   0.71989   0.00000  Uiso   1.00
H987   H     0.52755   0.45745   0.80418   0.00000  Uiso   1.00
H988   H     0.47246   0.54253   0.69580   0.00000  Uiso   1.00
C989   C     0.46638   0.47647   0.78012   0.00000  Uiso   1.00
C990   C     0.53362   0.52352   0.71987   0.00000  Uiso   1.00
H991   H     0.44066   0.45761   0.80424   0.00000  Uiso   1.00
H992   H     0.55934   0.54238   0.69575   0.00000  Uiso   1.00
N993   N     0.45069   0.50001   0.74999   0.00000  Uiso   1.00
N994   N     0.54931   0.49999   0.75001   0.00000  Uiso   1.00
N995   N     0.33801   0.54611   0.97751   0.00000  Uiso   1.00
O996   O     0.38454   0.53933   0.96453   0.00000  Uiso   1.00
O997   O     0.65584   0.57809   0.50271   0.00000  Uiso   1.00
N998   N     0.33407   0.43071   0.53031   0.00000  Uiso   1.00
O999   O     0.35120   0.39621   0.51093   0.00000  Uiso   1.00
O1000  O     0.62068   0.43651   0.54090   0.00000  Uiso   1.00
C1001  C     0.62431   0.62676   0.68522   0.00000  Uiso   1.00
O1002  O     0.64265   0.59555   0.66567   0.00000  Uiso   1.00
O1003  O     0.58488   0.64503   0.67389   0.00000  Uiso   1.00
H1004  H     0.57437   0.62910   0.64982   0.00000  Uiso   1.00
C1005  C     0.37570   0.37326   0.81475   0.00000  Uiso   1.00
O1006  O     0.35729   0.40442   0.83436   0.00000  Uiso   1.00
O1007  O     0.41521   0.35506   0.82600   0.00000  Uiso   1.00
H1008  H     0.42571   0.37099   0.85008   0.00000  Uiso   1.00
O1009  O     0.70625   0.43989   0.75000   0.00000  Uiso   1.00
O1010  O     0.96042   0.56011   0.75000   0.00000  Uiso   1.00
O1011  O     0.96039   0.43988   0.75000   0.00000  Uiso   1.00
O1012  O     0.70628   0.56012   0.75000   0.00000  Uiso   1.00
C1013  C     0.99950   0.42079   0.75142   0.00000  Uiso   1.00
C1014  C     0.66717   0.57921   0.74856   0.00000  Uiso   1.00
O1015  O     0.68519   0.50001   0.81492   0.00000  Uiso   1.00
O1016  O     0.98148   0.49999   0.68508   0.00000  Uiso   1.00
O1017  O     0.93933   0.50000   0.81492   0.00000  Uiso   1.00
O1018  O     0.72733   0.50000   0.68508   0.00000  Uiso   1.00
C1019  C     0.97277   0.50040   0.83616   0.00000  Uiso   1.00
C1020  C     0.69389   0.49897   0.66390   0.00000  Uiso   1.00
Cu1021 Cu    0.71355   0.50001   0.75000   0.00000  Uiso   1.00
Cu1022 Cu    0.95311   0.49999   0.75000   0.00000  Uiso   1.00
C1023  C     0.95790   0.50266   0.88545   0.00000  Uiso   1.00
C1024  C     0.70901   0.49209   0.61522   0.00000  Uiso   1.00
C1025  C     0.97287   0.52522   0.95554   0.00000  Uiso   1.00
C1026  C     0.69758   0.45678   0.54938   0.00000  Uiso   1.00
C1027  C     0.98929   0.51826   0.90920   0.00000  Uiso   1.00
C1028  C     0.67937   0.47029   0.59380   0.00000  Uiso   1.00
C1029  C     0.91038   0.49206   0.90827   0.00000  Uiso   1.00
C1030  C     0.75655   0.50184   0.59185   0.00000  Uiso   1.00
C1031  C     0.89277   0.49675   0.95509   0.00000  Uiso   1.00
C1032  C     0.77685   0.48789   0.54778   0.00000  Uiso   1.00
C1033  C     0.92459   0.51390   0.97887   0.00000  Uiso   1.00
C1034  C     0.74625   0.46656   0.52572   0.00000  Uiso   1.00
C1035  C     0.84401   0.48592   0.97857   0.00000  Uiso   1.00
C1036  C     0.82669   0.49501   0.52514   0.00000  Uiso   1.00
C1037  C     0.86013   0.50952   0.54808   0.00000  Uiso   1.00
C1038  C     0.81205   0.46601   0.95723   0.00000  Uiso   1.00
C1039  C     0.90788   0.51845   0.52551   0.00000  Uiso   1.00
C1040  C     0.76463   0.45631   0.98036   0.00000  Uiso   1.00
H1041  H     0.93177   0.52825   0.54544   0.00000  Uiso   1.00
H1042  H     0.74207   0.44190   0.96157   0.00000  Uiso   1.00
H1043  H     0.77696   0.52068   0.60911   0.00000  Uiso   1.00
H1044  H     0.88752   0.48116   0.88813   0.00000  Uiso   1.00
H1045  H     0.97631   0.46144   0.61258   0.00000  Uiso   1.00
H1046  H     0.69246   0.52755   0.89120   0.00000  Uiso   1.00
H1047  H     0.85103   0.51285   0.58412   0.00000  Uiso   1.00
H1048  H     0.82257   0.45637   0.92263   0.00000  Uiso   1.00
C1049  C     0.97669   0.35583   0.72329   0.00000  Uiso   1.00
C1050  C     0.69002   0.64419   0.77666   0.00000  Uiso   1.00
H1051  H     0.96010   0.37373   0.70163   0.00000  Uiso   1.00
H1052  H     0.70662   0.62629   0.79832   0.00000  Uiso   1.00
C1053  C     0.97813   0.64634   0.71971   0.00000  Uiso   1.00
C1054  C     0.68856   0.35367   0.78025   0.00000  Uiso   1.00
C1055  C     0.66784   0.62387   0.74738   0.00000  Uiso   1.00
C1056  C     0.99885   0.37614   0.75258   0.00000  Uiso   1.00
C1057  C     0.84930   0.47643   0.78010   0.00000  Uiso   1.00
C1058  C     0.81737   0.52356   0.71989   0.00000  Uiso   1.00
H1059  H     0.86088   0.45745   0.80418   0.00000  Uiso   1.00
H1060  H     0.80579   0.54253   0.69580   0.00000  Uiso   1.00
C1061  C     0.79971   0.47647   0.78012   0.00000  Uiso   1.00
C1062  C     0.86695   0.52352   0.71987   0.00000  Uiso   1.00
H1063  H     0.77400   0.45761   0.80424   0.00000  Uiso   1.00
H1064  H     0.89267   0.54238   0.69575   0.00000  Uiso   1.00
N1065  N     0.78403   0.50001   0.74999   0.00000  Uiso   1.00
N1066  N     0.88264   0.49999   0.75001   0.00000  Uiso   1.00
N1067  N     0.67135   0.54611   0.97751   0.00000  Uiso   1.00
O1068  O     0.71787   0.53933   0.96453   0.00000  Uiso   1.00
O1069  O     0.98918   0.57809   0.50271   0.00000  Uiso   1.00
N1070  N     0.66740   0.43071   0.53031   0.00000  Uiso   1.00
O1071  O     0.68453   0.39621   0.51093   0.00000  Uiso   1.00
O1072  O     0.95401   0.43651   0.54090   0.00000  Uiso   1.00
C1073  C     0.95764   0.62676   0.68522   0.00000  Uiso   1.00
O1074  O     0.97598   0.59555   0.66567   0.00000  Uiso   1.00
O1075  O     0.91821   0.64503   0.67389   0.00000  Uiso   1.00
H1076  H     0.90770   0.62910   0.64982   0.00000  Uiso   1.00
C1077  C     0.70904   0.37326   0.81475   0.00000  Uiso   1.00
O1078  O     0.69063   0.40442   0.83436   0.00000  Uiso   1.00
O1079  O     0.74854   0.35506   0.82600   0.00000  Uiso   1.00
H1080  H     0.75905   0.37099   0.85008   0.00000  Uiso   1.00
O1081  O     0.03958   0.77322   0.75000   0.00000  Uiso   1.00
O1082  O     0.29375   0.89345   0.75000   0.00000  Uiso   1.00
O1083  O     0.29372   0.77321   0.75000   0.00000  Uiso   1.00
O1084  O     0.03961   0.89346   0.75000   0.00000  Uiso   1.00
C1085  C     0.33283   0.75413   0.75142   0.00000  Uiso   1.00
C1086  C     0.00050   0.91254   0.74856   0.00000  Uiso   1.00
O1087  O     0.01852   0.83334   0.81492   0.00000  Uiso   1.00
O1088  O     0.31481   0.83332   0.68508   0.00000  Uiso   1.00
O1089  O     0.27267   0.83333   0.81492   0.00000  Uiso   1.00
O1090  O     0.06067   0.83333   0.68508   0.00000  Uiso   1.00
C1091  C     0.30610   0.83374   0.83616   0.00000  Uiso   1.00
C1092  C     0.02723   0.83230   0.66390   0.00000  Uiso   1.00
Cu1093 Cu    0.04689   0.83334   0.75000   0.00000  Uiso   1.00
Cu1094 Cu    0.28645   0.83333   0.75000   0.00000  Uiso   1.00
C1095  C     0.29123   0.83599   0.88545   0.00000  Uiso   1.00
C1096  C     0.04234   0.82542   0.61522   0.00000  Uiso   1.00
C1097  C     0.30620   0.85856   0.95554   0.00000  Uiso   1.00
C1098  C     0.03091   0.79011   0.54938   0.00000  Uiso   1.00
C1099  C     0.32262   0.85160   0.90920   0.00000  Uiso   1.00
C1100  C     0.01271   0.80362   0.59380   0.00000  Uiso   1.00
C1101  C     0.24371   0.82540   0.90827   0.00000  Uiso   1.00
C1102  C     0.08988   0.83518   0.59185   0.00000  Uiso   1.00
C1103  C     0.22610   0.83008   0.95509   0.00000  Uiso   1.00
C1104  C     0.11018   0.82122   0.54778   0.00000  Uiso   1.00
C1105  C     0.25792   0.84724   0.97887   0.00000  Uiso   1.00
C1106  C     0.07958   0.79989   0.52572   0.00000  Uiso   1.00
C1107  C     0.17734   0.81925   0.97857   0.00000  Uiso   1.00
C1108  C     0.16003   0.82834   0.52514   0.00000  Uiso   1.00
C1109  C     0.19346   0.84286   0.54808   0.00000  Uiso   1.00
C1110  C     0.14539   0.79935   0.95723   0.00000  Uiso   1.00
C1111  C     0.24122   0.85178   0.52551   0.00000  Uiso   1.00
C1112  C     0.09796   0.78965   0.98036   0.00000  Uiso   1.00
H1113  H     0.26511   0.86159   0.54544   0.00000  Uiso   1.00
H1114  H     0.07540   0.77523   0.96157   0.00000  Uiso   1.00
H1115  H     0.11030   0.85401   0.60911   0.00000  Uiso   1.00
H1116  H     0.22085   0.81450   0.88813   0.00000  Uiso   1.00
H1117  H     0.30964   0.79478   0.61258   0.00000  Uiso   1.00
H1118  H     0.02579   0.86088   0.89120   0.00000  Uiso   1.00
H1119  H     0.18437   0.84618   0.58412   0.00000  Uiso   1.00
H1120  H     0.15590   0.78970   0.92263   0.00000  Uiso   1.00
C1121  C     0.31002   0.68916   0.72329   0.00000  Uiso   1.00
C1122  C     0.02335   0.97752   0.77666   0.00000  Uiso   1.00
H1123  H     0.29343   0.70706   0.70163   0.00000  Uiso   1.00
H1124  H     0.03995   0.95962   0.79832   0.00000  Uiso   1.00
C1125  C     0.31146   0.97968   0.71971   0.00000  Uiso   1.00
C1126  C     0.02190   0.68700   0.78025   0.00000  Uiso   1.00
C1127  C     0.00117   0.95720   0.74738   0.00000  Uiso   1.00
C1128  C     0.33218   0.70947   0.75258   0.00000  Uiso   1.00
C1129  C     0.18263   0.80976   0.78010   0.00000  Uiso   1.00
C1130  C     0.15070   0.85689   0.71989   0.00000  Uiso   1.00
H1131  H     0.19421   0.79078   0.80418   0.00000  Uiso   1.00
H1132  H     0.13913   0.87586   0.69580   0.00000  Uiso   1.00
C1133  C     0.13305   0.80981   0.78012   0.00000  Uiso   1.00
C1134  C     0.20029   0.85685   0.71987   0.00000  Uiso   1.00
H1135  H     0.10733   0.79094   0.80424   0.00000  Uiso   1.00
H1136  H     0.22600   0.87571   0.69575   0.00000  Uiso   1.00
N1137  N     0.11736   0.83334   0.74999   0.00000  Uiso   1.00
N1138  N     0.21597   0.83332   0.75001   0.00000  Uiso   1.00
N1139  N     0.00468   0.87944   0.97751   0.00000  Uiso   1.00
O1140  O     0.05121   0.87266   0.96453   0.00000  Uiso   1.00
O1141  O     0.32251   0.91143   0.50271   0.00000  Uiso   1.00
N1142  N     0.00073   0.76405   0.53031   0.00000  Uiso   1.00
O1143  O     0.01787   0.72954   0.51093   0.00000  Uiso   1.00
O1144  O     0.28735   0.76985   0.54090   0.00000  Uiso   1.00
C1145  C     0.29098   0.96009   0.68522   0.00000  Uiso   1.00
O1146  O     0.30932   0.92888   0.66567   0.00000  Uiso   1.00
O1147  O     0.25154   0.97836   0.67389   0.00000  Uiso   1.00
H1148  H     0.24103   0.96243   0.64982   0.00000  Uiso   1.00
C1149  C     0.04237   0.70659   0.81475   0.00000  Uiso   1.00
O1150  O     0.02396   0.73776   0.83436   0.00000  Uiso   1.00
O1151  O     0.08188   0.68839   0.82600   0.00000  Uiso   1.00
H1152  H     0.09238   0.70433   0.85008   0.00000  Uiso   1.00
O1153  O     0.37291   0.77322   0.75000   0.00000  Uiso   1.00
O1154  O     0.62709   0.89345   0.75000   0.00000  Uiso   1.00
O1155  O     0.62706   0.77321   0.75000   0.00000  Uiso   1.00
O1156  O     0.37294   0.89346   0.75000   0.00000  Uiso   1.00
C1157  C     0.66617   0.75413   0.75142   0.00000  Uiso   1.00
C1158  C     0.33384   0.91254   0.74856   0.00000  Uiso   1.00
O1159  O     0.35186   0.83334   0.81492   0.00000  Uiso   1.00
O1160  O     0.64814   0.83332   0.68508   0.00000  Uiso   1.00
O1161  O     0.60600   0.83333   0.81492   0.00000  Uiso   1.00
O1162  O     0.39400   0.83333   0.68508   0.00000  Uiso   1.00
C1163  C     0.63944   0.83374   0.83616   0.00000  Uiso   1.00
C1164  C     0.36056   0.83230   0.66390   0.00000  Uiso   1.00
Cu1165 Cu    0.38022   0.83334   0.75000   0.00000  Uiso   1.00
Cu1166 Cu    0.61978   0.83333   0.75000   0.00000  Uiso   1.00
C1167  C     0.62457   0.83599   0.88545   0.00000  Uiso   1.00
C1168  C     0.37568   0.82542   0.61522   0.00000  Uiso   1.00
C1169  C     0.63953   0.85856   0.95554   0.00000  Uiso   1.00
C1170  C     0.36424   0.79011   0.54938   0.00000  Uiso   1.00
C1171  C     0.65595   0.85160   0.90920   0.00000  Uiso   1.00
C1172  C     0.34604   0.80362   0.59380   0.00000  Uiso   1.00
C1173  C     0.57704   0.82540   0.90827   0.00000  Uiso   1.00
C1174  C     0.42322   0.83518   0.59185   0.00000  Uiso   1.00
C1175  C     0.55943   0.83008   0.95509   0.00000  Uiso   1.00
C1176  C     0.44352   0.82122   0.54778   0.00000  Uiso   1.00
C1177  C     0.59126   0.84724   0.97887   0.00000  Uiso   1.00
C1178  C     0.41291   0.79989   0.52572   0.00000  Uiso   1.00
C1179  C     0.51068   0.81925   0.97857   0.00000  Uiso   1.00
C1180  C     0.49336   0.82834   0.52514   0.00000  Uiso   1.00
C1181  C     0.52680   0.84286   0.54808   0.00000  Uiso   1.00
C1182  C     0.47872   0.79935   0.95723   0.00000  Uiso   1.00
C1183  C     0.57455   0.85178   0.52551   0.00000  Uiso   1.00
C1184  C     0.43129   0.78965   0.98036   0.00000  Uiso   1.00
H1185  H     0.59844   0.86159   0.54544   0.00000  Uiso   1.00
H1186  H     0.40873   0.77523   0.96157   0.00000  Uiso   1.00
H1187  H     0.44363   0.85401   0.60911   0.00000  Uiso   1.00
H1188  H     0.55419   0.81450   0.88813   0.00000  Uiso   1.00
H1189  H     0.64297   0.79478   0.61258   0.00000  Uiso   1.00
H1190  H     0.35912   0.86088   0.89120   0.00000  Uiso   1.00
H1191  H     0.51770   0.84618   0.58412   0.00000  Uiso   1.00
H1192  H     0.48923   0.78970   0.92263   0.00000  Uiso   1.00
C1193  C     0.64335   0.68916   0.72329   0.00000  Uiso   1.00
C1194  C     0.35668   0.97752   0.77666   0.00000  Uiso   1.00
H1195  H     0.62677   0.70706   0.70163   0.00000  Uiso   1.00
H1196  H     0.37329   0.95962   0.79832   0.00000  Uiso   1.00
C1197  C     0.64479   0.97968   0.71971   0.00000  Uiso   1.00
C1198  C     0.35523   0.68700   0.78025   0.00000  Uiso   1.00
C1199  C     0.33450   0.95720   0.74738   0.00000  Uiso   1.00
C1200  C     0.66551   0.70947   0.75258   0.00000  Uiso   1.00
C1201  C     0.51597   0.80976   0.78010   0.00000  Uiso   1.00
C1202  C     0.48404   0.85689   0.71989   0.00000  Uiso   1.00
H1203  H     0.52755   0.79078   0.80418   0.00000  Uiso   1.00
H1204  H     0.47246   0.87586   0.69580   0.00000  Uiso   1.00
C1205  C     0.46638   0.80981   0.78012   0.00000  Uiso   1.00
C1206  C     0.53362   0.85685   0.71987   0.00000  Uiso   1.00
H1207  H     0.44066   0.79094   0.80424   0.00000  Uiso   1.00
H1208  H     0.55934   0.87571   0.69575   0.00000  Uiso   1.00
N1209  N     0.45069   0.83334   0.74999   0.00000  Uiso   1.00
N1210  N     0.54931   0.83332   0.75001   0.00000  Uiso   1.00
N1211  N     0.33801   0.87944   0.97751   0.00000  Uiso   1.00
O1212  O     0.38454   0.87266   0.96453   0.00000  Uiso   1.00
O1213  O     0.65584   0.91143   0.50271   0.00000  Uiso   1.00
N1214  N     0.33407   0.76405   0.53031   0.00000  Uiso   1.00
O1215  O     0.35120   0.72954   0.51093   0.00000  Uiso   1.00
O1216  O     0.62068   0.76985   0.54090   0.00000  Uiso   1.00
C1217  C     0.62431   0.96009   0.68522   0.00000  Uiso   1.00
O1218  O     0.64265   0.92888   0.66567   0.00000  Uiso   1.00
O1219  O     0.58488   0.97836   0.67389   0.00000  Uiso   1.00
H1220  H     0.57437   0.96243   0.64982   0.00000  Uiso   1.00
C1221  C     0.37570   0.70659   0.81475   0.00000  Uiso   1.00
O1222  O     0.35729   0.73776   0.83436   0.00000  Uiso   1.00
O1223  O     0.41521   0.68839   0.82600   0.00000  Uiso   1.00
H1224  H     0.42571   0.70433   0.85008   0.00000  Uiso   1.00
O1225  O     0.70625   0.77322   0.75000   0.00000  Uiso   1.00
O1226  O     0.96042   0.89345   0.75000   0.00000  Uiso   1.00
O1227  O     0.96039   0.77321   0.75000   0.00000  Uiso   1.00
O1228  O     0.70628   0.89346   0.75000   0.00000  Uiso   1.00
C1229  C     0.99950   0.75413   0.75142   0.00000  Uiso   1.00
C1230  C     0.66717   0.91254   0.74856   0.00000  Uiso   1.00
O1231  O     0.68519   0.83334   0.81492   0.00000  Uiso   1.00
O1232  O     0.98148   0.83332   0.68508   0.00000  Uiso   1.00
O1233  O     0.93933   0.83333   0.81492   0.00000  Uiso   1.00
O1234  O     0.72733   0.83333   0.68508   0.00000  Uiso   1.00
C1235  C     0.97277   0.83374   0.83616   0.00000  Uiso   1.00
C1236  C     0.69389   0.83230   0.66390   0.00000  Uiso   1.00
Cu1237 Cu    0.71355   0.83334   0.75000   0.00000  Uiso   1.00
Cu1238 Cu    0.95311   0.83333   0.75000   0.00000  Uiso   1.00
C1239  C     0.95790   0.83599   0.88545   0.00000  Uiso   1.00
C1240  C     0.70901   0.82542   0.61522   0.00000  Uiso   1.00
C1241  C     0.97287   0.85856   0.95554   0.00000  Uiso   1.00
C1242  C     0.69758   0.79011   0.54938   0.00000  Uiso   1.00
C1243  C     0.98929   0.85160   0.90920   0.00000  Uiso   1.00
C1244  C     0.67937   0.80362   0.59380   0.00000  Uiso   1.00
C1245  C     0.91038   0.82540   0.90827   0.00000  Uiso   1.00
C1246  C     0.75655   0.83518   0.59185   0.00000  Uiso   1.00
C1247  C     0.89277   0.83008   0.95509   0.00000  Uiso   1.00
C1248  C     0.77685   0.82122   0.54778   0.00000  Uiso   1.00
C1249  C     0.92459   0.84724   0.97887   0.00000  Uiso   1.00
C1250  C     0.74625   0.79989   0.52572   0.00000  Uiso   1.00
C1251  C     0.84401   0.81925   0.97857   0.00000  Uiso   1.00
C1252  C     0.82669   0.82834   0.52514   0.00000  Uiso   1.00
C1253  C     0.86013   0.84286   0.54808   0.00000  Uiso   1.00
C1254  C     0.81205   0.79935   0.95723   0.00000  Uiso   1.00
C1255  C     0.90788   0.85178   0.52551   0.00000  Uiso   1.00
C1256  C     0.76463   0.78965   0.98036   0.00000  Uiso   1.00
H1257  H     0.93177   0.86159   0.54544   0.00000  Uiso   1.00
H1258  H     0.74207   0.77523   0.96157   0.00000  Uiso   1.00
H1259  H     0.77696   0.85401   0.60911   0.00000  Uiso   1.00
H1260  H     0.88752   0.81450   0.88813   0.00000  Uiso   1.00
H1261  H     0.97631   0.79478   0.61258   0.00000  Uiso   1.00
H1262  H     0.69246   0.86088   0.89120   0.00000  Uiso   1.00
H1263  H     0.85103   0.84618   0.58412   0.00000  Uiso   1.00
H1264  H     0.82257   0.78970   0.92263   0.00000  Uiso   1.00
C1265  C     0.97669   0.68916   0.72329   0.00000  Uiso   1.00
C1266  C     0.69002   0.97752   0.77666   0.00000  Uiso   1.00
H1267  H     0.96010   0.70706   0.70163   0.00000  Uiso   1.00
H1268  H     0.70662   0.95962   0.79832   0.00000  Uiso   1.00
C1269  C     0.97813   0.97968   0.71971   0.00000  Uiso   1.00
C1270  C     0.68856   0.68700   0.78025   0.00000  Uiso   1.00
C1271  C     0.66784   0.95720   0.74738   0.00000  Uiso   1.00
C1272  C     0.99885   0.70947   0.75258   0.00000  Uiso   1.00
C1273  C     0.84930   0.80976   0.78010   0.00000  Uiso   1.00
C1274  C     0.81737   0.85689   0.71989   0.00000  Uiso   1.00
H1275  H     0.86088   0.79078   0.80418   0.00000  Uiso   1.00
H1276  H     0.80579   0.87586   0.69580   0.00000  Uiso   1.00
C1277  C     0.79971   0.80981   0.78012   0.00000  Uiso   1.00
C1278  C     0.86695   0.85685   0.71987   0.00000  Uiso   1.00
H1279  H     0.77400   0.79094   0.80424   0.00000  Uiso   1.00
H1280  H     0.89267   0.87571   0.69575   0.00000  Uiso   1.00
N1281  N     0.78403   0.83334   0.74999   0.00000  Uiso   1.00
N1282  N     0.88264   0.83332   0.75001   0.00000  Uiso   1.00
N1283  N     0.67135   0.87944   0.97751   0.00000  Uiso   1.00
O1284  O     0.71787   0.87266   0.96453   0.00000  Uiso   1.00
O1285  O     0.98918   0.91143   0.50271   0.00000  Uiso   1.00
N1286  N     0.66740   0.76405   0.53031   0.00000  Uiso   1.00
O1287  O     0.68453   0.72954   0.51093   0.00000  Uiso   1.00
O1288  O     0.95401   0.76985   0.54090   0.00000  Uiso   1.00
C1289  C     0.95764   0.96009   0.68522   0.00000  Uiso   1.00
O1290  O     0.97598   0.92888   0.66567   0.00000  Uiso   1.00
O1291  O     0.91821   0.97836   0.67389   0.00000  Uiso   1.00
H1292  H     0.90770   0.96243   0.64982   0.00000  Uiso   1.00
C1293  C     0.70904   0.70659   0.81475   0.00000  Uiso   1.00
O1294  O     0.69063   0.73776   0.83436   0.00000  Uiso   1.00
O1295  O     0.74854   0.68839   0.82600   0.00000  Uiso   1.00
H1296  H     0.75905   0.70433   0.85008   0.00000  Uiso   1.00
loop_
_geom_bond_atom_site_label_1
_geom_bond_atom_site_label_2
_geom_bond_distance
_geom_bond_site_symmetry_2
_ccdc_geom_bond_type
O1     Cu13    1.957   .     S
O1     C149    1.290   1_455 S
O2     Cu14    1.957   .     S
O2     C78     1.290   .     S
O3     Cu14    1.958   .     S
O3     C5      1.290   .     A
O4     C6      1.290   .     A
O4     Cu13    1.958   .     S
C5     C48     1.446   .     S
C5     O73     1.290   .     S
C6     C47     1.446   .     S
C6     O146    1.290   1_455 S
O7     Cu13    1.949   .     S
O7     C155    1.296   1_455 S
O8     Cu14    1.949   .     S
O8     C84     1.296   .     S
O9     Cu14    1.935   .     S
O9     C11     1.295   .     A
O10    C12     1.295   .     A
O10    Cu13    1.935   .     S
C11    C15     1.467   .     S
C11    O79     1.296   .     S
C12    C16     1.465   .     S
C12    O152    1.296   1_455 S
Cu13   N57     2.014   .     S
Cu13   Cu158   2.680   1_455 S
Cu14   N58     2.014   .     S
Cu14   Cu85    2.680   .     S
C15    C21     1.393   .     A
C15    C19     1.396   .     A
C16    C20     1.396   .     A
C16    C22     1.392   .     A
C17    C25     1.421   .     A
C17    C19     1.399   .     A
C17    N131    1.439   .     S
C18    C26     1.421   .     A
C18    C20     1.401   .     A
C18    N62     1.439   .     S
C19    H110    1.084   .     S
C20    H181    1.084   1_455 S
C21    C23     1.405   .     A
C21    H36     1.074   .     S
C22    H35     1.078   .     S
C22    C24     1.404   .     A
C23    C27     1.430   .     A
C23    C25     1.425   .     A
C24    C26     1.422   .     A
C24    C28     1.426   .     A
C25    C679    1.398   .     S
C26    C680    1.398   1_554 S
C27    C30     1.415   .     A
C27    C676    1.420   .     S
C28    C29     1.413   .     A
C28    C675    1.420   1_554 S
C29    H39     1.078   .     S
C29    C31     1.385   .     A
C30    H40     1.076   .     S
C30    C32     1.387   .     A
C31    H33     1.081   .     S
C31    C673    1.398   1_554 S
C32    H34     1.081   .     S
C32    C674    1.398   .     S
H37    C92     1.084   .     S
H38    C163    1.084   1_455 S
C41    H43     1.085   .     S
C41    C48     1.399   .     A
C41    C477    1.390   1_545 S
C42    H44     1.085   .     S
C42    C47     1.399   .     A
C42    C262    1.390   .     S
C45    C65     1.487   .     S
C45    C257    1.390   .     S
C45    C119    1.412   .     S
C46    C69     1.487   .     S
C46    C474    1.390   1_545 S
C46    C192    1.412   1_455 S
C47    C189    1.412   1_455 S
C48    C118    1.412   .     S
C49    C53     1.417   .     A
C49    H51     1.082   .     S
C49    N58     1.368   .     A
C50    H52     1.082   .     S
C50    C54     1.417   .     A
C50    N57     1.368   .     A
C53    H55     1.081   .     S
C53    N57     1.367   .     A
C54    H56     1.081   .     S
C54    N58     1.367   .     A
N59    O60     1.301   .     A
N59    C161    1.439   1_455 S
N59    O853    1.302   1_455 S
O61    N779    1.302   1_554 S
N62    O63     1.301   .     A
N62    O208    1.301   1_455 S
O64    N134    1.301   .     S
C65    O66     1.223   .     D
C65    O67     1.399   .     S
O67    H68     1.014   .     S
C69    O70     1.223   .     D
C69    O71     1.399   .     S
O71    H72     1.014   .     S
O73    Cu85    1.957   .     S
O74    Cu86    1.957   .     S
O74    C150    1.290   .     S
O75    Cu86    1.958   .     S
O75    C77     1.290   .     A
O76    C78     1.290   .     A
O76    Cu85    1.958   .     S
C77    C120    1.446   .     S
C77    O145    1.290   .     S
C78    C119    1.446   .     S
O79    Cu85    1.949   .     S
O80    Cu86    1.949   .     S
O80    C156    1.296   .     S
O81    Cu86    1.935   .     S
O81    C83     1.295   .     A
O82    C84     1.295   .     A
O82    Cu85    1.935   .     S
C83    C87     1.467   .     S
C83    O151    1.296   .     S
C84    C88     1.465   .     S
Cu85   N129    2.014   .     S
Cu86   N130    2.014   .     S
Cu86   Cu157   2.680   .     S
C87    C93     1.393   .     A
C87    C91     1.396   .     A
C88    C92     1.396   .     A
C88    C94     1.392   .     A
C89    C97     1.421   .     A
C89    C91     1.399   .     A
C89    N203    1.439   .     S
C90    C98     1.421   .     A
C90    C92     1.401   .     A
C90    N134    1.439   .     S
C91    H182    1.084   .     S
C93    C95     1.405   .     A
C93    H108    1.074   .     S
C94    H107    1.078   .     S
C94    C96     1.404   .     A
C95    C99     1.430   .     A
C95    C97     1.425   .     A
C96    C98     1.422   .     A
C96    C100    1.426   .     A
C97    C751    1.398   .     S
C98    C752    1.398   1_554 S
C99    C102    1.415   .     A
C99    C748    1.420   .     S
C100   C101    1.413   .     A
C100   C747    1.420   1_554 S
C101   H111    1.078   .     S
C101   C103    1.385   .     A
C102   H112    1.076   .     S
C102   C104    1.387   .     A
C103   H105    1.081   .     S
C103   C745    1.398   1_554 S
C104   H106    1.081   .     S
C104   C746    1.398   .     S
H109   C164    1.084   .     S
C113   H115    1.085   .     S
C113   C120    1.399   .     A
C113   C549    1.390   1_545 S
C114   H116    1.085   .     S
C114   C119    1.399   .     A
C114   C334    1.390   .     S
C117   C137    1.487   .     S
C117   C329    1.390   .     S
C117   C191    1.412   .     S
C118   C141    1.487   .     S
C118   C546    1.390   1_545 S
C120   C190    1.412   .     S
C121   C125    1.417   .     A
C121   H123    1.082   .     S
C121   N130    1.368   .     A
C122   H124    1.082   .     S
C122   C126    1.417   .     A
C122   N129    1.368   .     A
C125   H127    1.081   .     S
C125   N129    1.367   .     A
C126   H128    1.081   .     S
C126   N130    1.367   .     A
N131   O132    1.301   .     A
N131   O709    1.302   .     S
O133   N851    1.302   1_554 S
N134   O135    1.301   .     A
O136   N206    1.301   .     S
C137   O138    1.223   .     D
C137   O139    1.399   .     S
O139   H140    1.014   .     S
C141   O142    1.223   .     D
C141   O143    1.399   .     S
O143   H144    1.014   .     S
O145   Cu157   1.957   .     S
O146   Cu158   1.957   .     S
O146   C6      1.290   1_655 S
O147   Cu158   1.958   .     S
O147   C149    1.290   .     A
O148   C150    1.290   .     A
O148   Cu157   1.958   .     S
C149   C192    1.446   .     S
C149   O1      1.290   1_655 S
C150   C191    1.446   .     S
O151   Cu157   1.949   .     S
O152   Cu158   1.949   .     S
O152   C12     1.296   1_655 S
O153   Cu158   1.935   .     S
O153   C155    1.295   .     A
O154   C156    1.295   .     A
O154   Cu157   1.935   .     S
C155   C159    1.467   .     S
C155   O7      1.296   1_655 S
C156   C160    1.465   .     S
Cu157  N201    2.014   .     S
Cu158  N202    2.014   .     S
Cu158  Cu13    2.680   1_655 S
C159   C165    1.393   .     A
C159   C163    1.396   .     A
C160   C164    1.396   .     A
C160   C166    1.392   .     A
C161   C169    1.421   .     A
C161   C163    1.399   .     A
C161   N59     1.439   1_655 S
C162   C170    1.421   .     A
C162   C164    1.401   .     A
C162   N206    1.439   .     S
C163   H38     1.084   1_655 S
C165   C167    1.405   .     A
C165   H180    1.074   .     S
C166   H179    1.078   .     S
C166   C168    1.404   .     A
C167   C171    1.430   .     A
C167   C169    1.425   .     A
C168   C170    1.422   .     A
C168   C172    1.426   .     A
C169   C823    1.398   .     S
C170   C824    1.398   1_554 S
C171   C174    1.415   .     A
C171   C820    1.420   .     S
C172   C173    1.413   .     A
C172   C819    1.420   1_554 S
C173   H183    1.078   .     S
C173   C175    1.385   .     A
C174   H184    1.076   .     S
C174   C176    1.387   .     A
C175   H177    1.081   .     S
C175   C817    1.398   1_554 S
C176   H178    1.081   .     S
C176   C818    1.398   .     S
H181   C20     1.084   1_655 S
C185   H187    1.085   .     S
C185   C192    1.399   .     A
C185   C621    1.390   1_545 S
C186   H188    1.085   .     S
C186   C191    1.399   .     A
C186   C406    1.390   .     S
C189   C209    1.487   .     S
C189   C401    1.390   .     S
C189   C47     1.412   1_655 S
C190   C213    1.487   .     S
C190   C618    1.390   1_545 S
C192   C46     1.412   1_655 S
C193   C197    1.417   .     A
C193   H195    1.082   .     S
C193   N202    1.368   .     A
C194   H196    1.082   .     S
C194   C198    1.417   .     A
C194   N201    1.368   .     A
C197   H199    1.081   .     S
C197   N201    1.367   .     A
C198   H200    1.081   .     S
C198   N202    1.367   .     A
N203   O204    1.301   .     A
N203   O781    1.302   .     S
O205   N707    1.302   1_654 S
N206   O207    1.301   .     A
O208   N62     1.301   1_655 S
C209   O210    1.223   .     D
C209   O211    1.399   .     S
O211   H212    1.014   .     S
C213   O214    1.223   .     D
C213   O215    1.399   .     S
O215   H216    1.014   .     S
O217   Cu229   1.957   .     S
O217   C365    1.290   1_455 S
O218   Cu230   1.957   .     S
O218   C294    1.290   .     S
O219   Cu230   1.958   .     S
O219   C221    1.290   .     A
O220   C222    1.290   .     A
O220   Cu229   1.958   .     S
C221   C264    1.446   .     S
C221   O289    1.290   .     S
C222   C263    1.446   .     S
C222   O362    1.290   1_455 S
O223   Cu229   1.949   .     S
O223   C371    1.296   1_455 S
O224   Cu230   1.949   .     S
O224   C300    1.296   .     S
O225   Cu230   1.935   .     S
O225   C227    1.295   .     A
O226   C228    1.295   .     A
O226   Cu229   1.935   .     S
C227   C231    1.467   .     S
C227   O295    1.296   .     S
C228   C232    1.465   .     S
C228   O368    1.296   1_455 S
Cu229  N273    2.014   .     S
Cu229  Cu374   2.680   1_455 S
Cu230  N274    2.014   .     S
Cu230  Cu301   2.680   .     S
C231   C237    1.393   .     A
C231   C235    1.396   .     A
C232   C236    1.396   .     A
C232   C238    1.392   .     A
C233   C241    1.421   .     A
C233   C235    1.399   .     A
C233   N347    1.439   .     S
C234   C242    1.421   .     A
C234   C236    1.401   .     A
C234   N278    1.439   .     S
C235   H326    1.084   .     S
C236   H397    1.084   1_455 S
C237   C239    1.405   .     A
C237   H252    1.074   .     S
C238   H251    1.078   .     S
C238   C240    1.404   .     A
C239   C243    1.430   .     A
C239   C241    1.425   .     A
C240   C242    1.422   .     A
C240   C244    1.426   .     A
C241   C895    1.398   .     S
C242   C896    1.398   1_554 S
C243   C246    1.415   .     A
C243   C892    1.420   .     S
C244   C245    1.413   .     A
C244   C891    1.420   1_554 S
C245   H255    1.078   .     S
C245   C247    1.385   .     A
C246   H256    1.076   .     S
C246   C248    1.387   .     A
C247   H249    1.081   .     S
C247   C889    1.398   1_554 S
C248   H250    1.081   .     S
C248   C890    1.398   .     S
H253   C308    1.084   .     S
H254   C379    1.084   1_455 S
C257   H259    1.085   .     S
C257   C264    1.399   .     A
C258   H260    1.085   .     S
C258   C263    1.399   .     A
C258   C478    1.390   .     S
C261   C281    1.487   .     S
C261   C473    1.390   .     S
C261   C335    1.412   .     S
C262   C285    1.487   .     S
C262   C408    1.412   1_455 S
C263   C405    1.412   1_455 S
C264   C334    1.412   .     S
C265   C269    1.417   .     A
C265   H267    1.082   .     S
C265   N274    1.368   .     A
C266   H268    1.082   .     S
C266   C270    1.417   .     A
C266   N273    1.368   .     A
C269   H271    1.081   .     S
C269   N273    1.367   .     A
C270   H272    1.081   .     S
C270   N274    1.367   .     A
N275   O276    1.301   .     A
N275   C377    1.439   1_455 S
N275   O1069   1.302   1_455 S
O277   N995    1.302   1_554 S
N278   O279    1.301   .     A
N278   O424    1.301   1_455 S
O280   N350    1.301   .     S
C281   O282    1.223   .     D
C281   O283    1.399   .     S
O283   H284    1.014   .     S
C285   O286    1.223   .     D
C285   O287    1.399   .     S
O287   H288    1.014   .     S
O289   Cu301   1.957   .     S
O290   Cu302   1.957   .     S
O290   C366    1.290   .     S
O291   Cu302   1.958   .     S
O291   C293    1.290   .     A
O292   C294    1.290   .     A
O292   Cu301   1.958   .     S
C293   C336    1.446   .     S
C293   O361    1.290   .     S
C294   C335    1.446   .     S
O295   Cu301   1.949   .     S
O296   Cu302   1.949   .     S
O296   C372    1.296   .     S
O297   Cu302   1.935   .     S
O297   C299    1.295   .     A
O298   C300    1.295   .     A
O298   Cu301   1.935   .     S
C299   C303    1.467   .     S
C299   O367    1.296   .     S
C300   C304    1.465   .     S
Cu301  N345    2.014   .     S
Cu302  N346    2.014   .     S
Cu302  Cu373   2.680   .     S
C303   C309    1.393   .     A
C303   C307    1.396   .     A
C304   C308    1.396   .     A
C304   C310    1.392   .     A
C305   C313    1.421   .     A
C305   C307    1.399   .     A
C305   N419    1.439   .     S
C306   C314    1.421   .     A
C306   C308    1.401   .     A
C306   N350    1.439   .     S
C307   H398    1.084   .     S
C309   C311    1.405   .     A
C309   H324    1.074   .     S
C310   H323    1.078   .     S
C310   C312    1.404   .     A
C311   C315    1.430   .     A
C311   C313    1.425   .     A
C312   C314    1.422   .     A
C312   C316    1.426   .     A
C313   C967    1.398   .     S
C314   C968    1.398   1_554 S
C315   C318    1.415   .     A
C315   C964    1.420   .     S
C316   C317    1.413   .     A
C316   C963    1.420   1_554 S
C317   H327    1.078   .     S
C317   C319    1.385   .     A
C318   H328    1.076   .     S
C318   C320    1.387   .     A
C319   H321    1.081   .     S
C319   C961    1.398   1_554 S
C320   H322    1.081   .     S
C320   C962    1.398   .     S
H325   C380    1.084   .     S
C329   H331    1.085   .     S
C329   C336    1.399   .     A
C330   H332    1.085   .     S
C330   C335    1.399   .     A
C330   C550    1.390   .     S
C333   C353    1.487   .     S
C333   C545    1.390   .     S
C333   C407    1.412   .     S
C334   C357    1.487   .     S
C336   C406    1.412   .     S
C337   C341    1.417   .     A
C337   H339    1.082   .     S
C337   N346    1.368   .     A
C338   H340    1.082   .     S
C338   C342    1.417   .     A
C338   N345    1.368   .     A
C341   H343    1.081   .     S
C341   N345    1.367   .     A
C342   H344    1.081   .     S
C342   N346    1.367   .     A
N347   O348    1.301   .     A
N347   O925    1.302   .     S
O349   N1067   1.302   1_554 S
N350   O351    1.301   .     A
O352   N422    1.301   .     S
C353   O354    1.223   .     D
C353   O355    1.399   .     S
O355   H356    1.014   .     S
C357   O358    1.223   .     D
C357   O359    1.399   .     S
O359   H360    1.014   .     S
O361   Cu373   1.957   .     S
O362   Cu374   1.957   .     S
O362   C222    1.290   1_655 S
O363   Cu374   1.958   .     S
O363   C365    1.290   .     A
O364   C366    1.290   .     A
O364   Cu373   1.958   .     S
C365   C408    1.446   .     S
C365   O217    1.290   1_655 S
C366   C407    1.446   .     S
O367   Cu373   1.949   .     S
O368   Cu374   1.949   .     S
O368   C228    1.296   1_655 S
O369   Cu374   1.935   .     S
O369   C371    1.295   .     A
O370   C372    1.295   .     A
O370   Cu373   1.935   .     S
C371   C375    1.467   .     S
C371   O223    1.296   1_655 S
C372   C376    1.465   .     S
Cu373  N417    2.014   .     S
Cu374  N418    2.014   .     S
Cu374  Cu229   2.680   1_655 S
C375   C381    1.393   .     A
C375   C379    1.396   .     A
C376   C380    1.396   .     A
C376   C382    1.392   .     A
C377   C385    1.421   .     A
C377   C379    1.399   .     A
C377   N275    1.439   1_655 S
C378   C386    1.421   .     A
C378   C380    1.401   .     A
C378   N422    1.439   .     S
C379   H254    1.084   1_655 S
C381   C383    1.405   .     A
C381   H396    1.074   .     S
C382   H395    1.078   .     S
C382   C384    1.404   .     A
C383   C387    1.430   .     A
C383   C385    1.425   .     A
C384   C386    1.422   .     A
C384   C388    1.426   .     A
C385   C1039   1.398   .     S
C386   C1040   1.398   1_554 S
C387   C390    1.415   .     A
C387   C1036   1.420   .     S
C388   C389    1.413   .     A
C388   C1035   1.420   1_554 S
C389   H399    1.078   .     S
C389   C391    1.385   .     A
C390   H400    1.076   .     S
C390   C392    1.387   .     A
C391   H393    1.081   .     S
C391   C1033   1.398   1_554 S
C392   H394    1.081   .     S
C392   C1034   1.398   .     S
H397   C236    1.084   1_655 S
C401   H403    1.085   .     S
C401   C408    1.399   .     A
C402   H404    1.085   .     S
C402   C407    1.399   .     A
C402   C622    1.390   .     S
C405   C425    1.487   .     S
C405   C617    1.390   .     S
C405   C263    1.412   1_655 S
C406   C429    1.487   .     S
C408   C262    1.412   1_655 S
C409   C413    1.417   .     A
C409   H411    1.082   .     S
C409   N418    1.368   .     A
C410   H412    1.082   .     S
C410   C414    1.417   .     A
C410   N417    1.368   .     A
C413   H415    1.081   .     S
C413   N417    1.367   .     A
C414   H416    1.081   .     S
C414   N418    1.367   .     A
N419   O420    1.301   .     A
N419   O997    1.302   .     S
O421   N923    1.302   1_654 S
N422   O423    1.301   .     A
O424   N278    1.301   1_655 S
C425   O426    1.223   .     D
C425   O427    1.399   .     S
O427   H428    1.014   .     S
C429   O430    1.223   .     D
C429   O431    1.399   .     S
O431   H432    1.014   .     S
O433   Cu445   1.957   .     S
O433   C581    1.290   1_455 S
O434   Cu446   1.957   .     S
O434   C510    1.290   .     S
O435   Cu446   1.958   .     S
O435   C437    1.290   .     A
O436   C438    1.290   .     A
O436   Cu445   1.958   .     S
C437   C480    1.446   .     S
C437   O505    1.290   .     S
C438   C479    1.446   .     S
C438   O578    1.290   1_455 S
O439   Cu445   1.949   .     S
O439   C587    1.296   1_455 S
O440   Cu446   1.949   .     S
O440   C516    1.296   .     S
O441   Cu446   1.935   .     S
O441   C443    1.295   .     A
O442   C444    1.295   .     A
O442   Cu445   1.935   .     S
C443   C447    1.467   .     S
C443   O511    1.296   .     S
C444   C448    1.465   .     S
C444   O584    1.296   1_455 S
Cu445  N489    2.014   .     S
Cu445  Cu590   2.680   1_455 S
Cu446  N490    2.014   .     S
Cu446  Cu517   2.680   .     S
C447   C453    1.393   .     A
C447   C451    1.396   .     A
C448   C452    1.396   .     A
C448   C454    1.392   .     A
C449   C457    1.421   .     A
C449   C451    1.399   .     A
C449   N563    1.439   .     S
C450   C458    1.421   .     A
C450   C452    1.401   .     A
C450   N494    1.439   .     S
C451   H542    1.084   .     S
C452   H613    1.084   1_455 S
C453   C455    1.405   .     A
C453   H468    1.074   .     S
C454   H467    1.078   .     S
C454   C456    1.404   .     A
C455   C459    1.430   .     A
C455   C457    1.425   .     A
C456   C458    1.422   .     A
C456   C460    1.426   .     A
C457   C1111   1.398   .     S
C458   C1112   1.398   1_554 S
C459   C462    1.415   .     A
C459   C1108   1.420   .     S
C460   C461    1.413   .     A
C460   C1107   1.420   1_554 S
C461   H471    1.078   .     S
C461   C463    1.385   .     A
C462   H472    1.076   .     S
C462   C464    1.387   .     A
C463   H465    1.081   .     S
C463   C1105   1.398   1_554 S
C464   H466    1.081   .     S
C464   C1106   1.398   .     S
H469   C524    1.084   .     S
H470   C595    1.084   1_455 S
C473   H475    1.085   .     S
C473   C480    1.399   .     A
C474   H476    1.085   .     S
C474   C479    1.399   .     A
C474   C46     1.390   1_565 S
C477   C497    1.487   .     S
C477   C41     1.390   1_565 S
C477   C551    1.412   .     S
C478   C501    1.487   .     S
C478   C624    1.412   1_455 S
C479   C621    1.412   1_455 S
C480   C550    1.412   .     S
C481   C485    1.417   .     A
C481   H483    1.082   .     S
C481   N490    1.368   .     A
C482   H484    1.082   .     S
C482   C486    1.417   .     A
C482   N489    1.368   .     A
C485   H487    1.081   .     S
C485   N489    1.367   .     A
C486   H488    1.081   .     S
C486   N490    1.367   .     A
N491   O492    1.301   .     A
N491   C593    1.439   1_455 S
N491   O1285   1.302   1_455 S
O493   N1211   1.302   1_554 S
N494   O495    1.301   .     A
N494   O640    1.301   1_455 S
O496   N566    1.301   .     S
C497   O498    1.223   .     D
C497   O499    1.399   .     S
O499   H500    1.014   .     S
C501   O502    1.223   .     D
C501   O503    1.399   .     S
O503   H504    1.014   .     S
O505   Cu517   1.957   .     S
O506   Cu518   1.957   .     S
O506   C582    1.290   .     S
O507   Cu518   1.958   .     S
O507   C509    1.290   .     A
O508   C510    1.290   .     A
O508   Cu517   1.958   .     S
C509   C552    1.446   .     S
C509   O577    1.290   .     S
C510   C551    1.446   .     S
O511   Cu517   1.949   .     S
O512   Cu518   1.949   .     S
O512   C588    1.296   .     S
O513   Cu518   1.935   .     S
O513   C515    1.295   .     A
O514   C516    1.295   .     A
O514   Cu517   1.935   .     S
C515   C519    1.467   .     S
C515   O583    1.296   .     S
C516   C520    1.465   .     S
Cu517  N561    2.014   .     S
Cu518  N562    2.014   .     S
Cu518  Cu589   2.680   .     S
C519   C525    1.393   .     A
C519   C523    1.396   .     A
C520   C524    1.396   .     A
C520   C526    1.392   .     A
C521   C529    1.421   .     A
C521   C523    1.399   .     A
C521   N635    1.439   .     S
C522   C530    1.421   .     A
C522   C524    1.401   .     A
C522   N566    1.439   .     S
C523   H614    1.084   .     S
C525   C527    1.405   .     A
C525   H540    1.074   .     S
C526   H539    1.078   .     S
C526   C528    1.404   .     A
C527   C531    1.430   .     A
C527   C529    1.425   .     A
C528   C530    1.422   .     A
C528   C532    1.426   .     A
C529   C1183   1.398   .     S
C530   C1184   1.398   1_554 S
C531   C534    1.415   .     A
C531   C1180   1.420   .     S
C532   C533    1.413   .     A
C532   C1179   1.420   1_554 S
C533   H543    1.078   .     S
C533   C535    1.385   .     A
C534   H544    1.076   .     S
C534   C536    1.387   .     A
C535   H537    1.081   .     S
C535   C1177   1.398   1_554 S
C536   H538    1.081   .     S
C536   C1178   1.398   .     S
H541   C596    1.084   .     S
C545   H547    1.085   .     S
C545   C552    1.399   .     A
C546   H548    1.085   .     S
C546   C551    1.399   .     A
C546   C118    1.390   1_565 S
C549   C569    1.487   .     S
C549   C113    1.390   1_565 S
C549   C623    1.412   .     S
C550   C573    1.487   .     S
C552   C622    1.412   .     S
C553   C557    1.417   .     A
C553   H555    1.082   .     S
C553   N562    1.368   .     A
C554   H556    1.082   .     S
C554   C558    1.417   .     A
C554   N561    1.368   .     A
C557   H559    1.081   .     S
C557   N561    1.367   .     A
C558   H560    1.081   .     S
C558   N562    1.367   .     A
N563   O564    1.301   .     A
N563   O1141   1.302   .     S
O565   N1283   1.302   1_554 S
N566   O567    1.301   .     A
O568   N638    1.301   .     S
C569   O570    1.223   .     D
C569   O571    1.399   .     S
O571   H572    1.014   .     S
C573   O574    1.223   .     D
C573   O575    1.399   .     S
O575   H576    1.014   .     S
O577   Cu589   1.957   .     S
O578   Cu590   1.957   .     S
O578   C438    1.290   1_655 S
O579   Cu590   1.958   .     S
O579   C581    1.290   .     A
O580   C582    1.290   .     A
O580   Cu589   1.958   .     S
C581   C624    1.446   .     S
C581   O433    1.290   1_655 S
C582   C623    1.446   .     S
O583   Cu589   1.949   .     S
O584   Cu590   1.949   .     S
O584   C444    1.296   1_655 S
O585   Cu590   1.935   .     S
O585   C587    1.295   .     A
O586   C588    1.295   .     A
O586   Cu589   1.935   .     S
C587   C591    1.467   .     S
C587   O439    1.296   1_655 S
C588   C592    1.465   .     S
Cu589  N633    2.014   .     S
Cu590  N634    2.014   .     S
Cu590  Cu445   2.680   1_655 S
C591   C597    1.393   .     A
C591   C595    1.396   .     A
C592   C596    1.396   .     A
C592   C598    1.392   .     A
C593   C601    1.421   .     A
C593   C595    1.399   .     A
C593   N491    1.439   1_655 S
C594   C602    1.421   .     A
C594   C596    1.401   .     A
C594   N638    1.439   .     S
C595   H470    1.084   1_655 S
C597   C599    1.405   .     A
C597   H612    1.074   .     S
C598   H611    1.078   .     S
C598   C600    1.404   .     A
C599   C603    1.430   .     A
C599   C601    1.425   .     A
C600   C602    1.422   .     A
C600   C604    1.426   .     A
C601   C1255   1.398   .     S
C602   C1256   1.398   1_554 S
C603   C606    1.415   .     A
C603   C1252   1.420   .     S
C604   C605    1.413   .     A
C604   C1251   1.420   1_554 S
C605   H615    1.078   .     S
C605   C607    1.385   .     A
C606   H616    1.076   .     S
C606   C608    1.387   .     A
C607   H609    1.081   .     S
C607   C1249   1.398   1_554 S
C608   H610    1.081   .     S
C608   C1250   1.398   .     S
H613   C452    1.084   1_655 S
C617   H619    1.085   .     S
C617   C624    1.399   .     A
C618   H620    1.085   .     S
C618   C623    1.399   .     A
C618   C190    1.390   1_565 S
C621   C641    1.487   .     S
C621   C185    1.390   1_565 S
C621   C479    1.412   1_655 S
C622   C645    1.487   .     S
C624   C478    1.412   1_655 S
C625   C629    1.417   .     A
C625   H627    1.082   .     S
C625   N634    1.368   .     A
C626   H628    1.082   .     S
C626   C630    1.417   .     A
C626   N633    1.368   .     A
C629   H631    1.081   .     S
C629   N633    1.367   .     A
C630   H632    1.081   .     S
C630   N634    1.367   .     A
N635   O636    1.301   .     A
N635   O1213   1.302   .     S
O637   N1139   1.302   1_654 S
N638   O639    1.301   .     A
O640   N494    1.301   1_655 S
C641   O642    1.223   .     D
C641   O643    1.399   .     S
O643   H644    1.014   .     S
C645   O646    1.223   .     D
C645   O647    1.399   .     S
O647   H648    1.014   .     S
O649   Cu661   1.957   .     S
O649   C797    1.290   1_455 S
O650   Cu662   1.957   .     S
O650   C726    1.290   .     S
O651   Cu662   1.958   .     S
O651   C653    1.290   .     A
O652   C654    1.290   .     A
O652   Cu661   1.958   .     S
C653   C696    1.446   .     S
C653   O721    1.290   .     S
C654   C695    1.446   .     S
C654   O794    1.290   1_455 S
O655   Cu661   1.949   .     S
O655   C803    1.296   1_455 S
O656   Cu662   1.949   .     S
O656   C732    1.296   .     S
O657   Cu662   1.935   .     S
O657   C659    1.295   .     A
O658   C660    1.295   .     A
O658   Cu661   1.935   .     S
C659   C663    1.467   .     S
C659   O727    1.296   .     S
C660   C664    1.465   .     S
C660   O800    1.296   1_455 S
Cu661  N705    2.014   .     S
Cu661  Cu806   2.680   1_455 S
Cu662  N706    2.014   .     S
Cu662  Cu733   2.680   .     S
C663   C669    1.393   .     A
C663   C667    1.396   .     A
C664   C668    1.396   .     A
C664   C670    1.392   .     A
C665   C673    1.421   .     A
C665   C667    1.399   .     A
C665   N779    1.439   .     S
C666   C674    1.421   .     A
C666   C668    1.401   .     A
C666   N710    1.439   .     S
C667   H758    1.084   .     S
C668   H829    1.084   1_455 S
C669   C671    1.405   .     A
C669   H684    1.074   .     S
C670   H683    1.078   .     S
C670   C672    1.404   .     A
C671   C675    1.430   .     A
C671   C673    1.425   .     A
C672   C674    1.422   .     A
C672   C676    1.426   .     A
C673   C31     1.398   1_556 S
C675   C678    1.415   .     A
C675   C28     1.420   1_556 S
C676   C677    1.413   .     A
C677   H687    1.078   .     S
C677   C679    1.385   .     A
C678   H688    1.076   .     S
C678   C680    1.387   .     A
C679   H681    1.081   .     S
C680   H682    1.081   .     S
C680   C26     1.398   1_556 S
H685   C740    1.084   .     S
H686   C811    1.084   1_455 S
C689   H691    1.085   .     S
C689   C696    1.399   .     A
C689   C1125   1.390   1_545 S
C690   H692    1.085   .     S
C690   C695    1.399   .     A
C690   C910    1.390   .     S
C693   C713    1.487   .     S
C693   C905    1.390   .     S
C693   C767    1.412   .     S
C694   C717    1.487   .     S
C694   C1122   1.390   1_545 S
C694   C840    1.412   1_455 S
C695   C837    1.412   1_455 S
C696   C766    1.412   .     S
C697   C701    1.417   .     A
C697   H699    1.082   .     S
C697   N706    1.368   .     A
C698   H700    1.082   .     S
C698   C702    1.417   .     A
C698   N705    1.368   .     A
C701   H703    1.081   .     S
C701   N705    1.367   .     A
C702   H704    1.081   .     S
C702   N706    1.367   .     A
N707   O708    1.301   .     A
N707   C809    1.439   1_455 S
N707   O205    1.302   1_456 S
N710   O711    1.301   .     A
N710   O856    1.301   1_455 S
O712   N782    1.301   .     S
C713   O714    1.223   .     D
C713   O715    1.399   .     S
O715   H716    1.014   .     S
C717   O718    1.223   .     D
C717   O719    1.399   .     S
O719   H720    1.014   .     S
O721   Cu733   1.957   .     S
O722   Cu734   1.957   .     S
O722   C798    1.290   .     S
O723   Cu734   1.958   .     S
O723   C725    1.290   .     A
O724   C726    1.290   .     A
O724   Cu733   1.958   .     S
C725   C768    1.446   .     S
C725   O793    1.290   .     S
C726   C767    1.446   .     S
O727   Cu733   1.949   .     S
O728   Cu734   1.949   .     S
O728   C804    1.296   .     S
O729   Cu734   1.935   .     S
O729   C731    1.295   .     A
O730   C732    1.295   .     A
O730   Cu733   1.935   .     S
C731   C735    1.467   .     S
C731   O799    1.296   .     S
C732   C736    1.465   .     S
Cu733  N777    2.014   .     S
Cu734  N778    2.014   .     S
Cu734  Cu805   2.680   .     S
C735   C741    1.393   .     A
C735   C739    1.396   .     A
C736   C740    1.396   .     A
C736   C742    1.392   .     A
C737   C745    1.421   .     A
C737   C739    1.399   .     A
C737   N851    1.439   .     S
C738   C746    1.421   .     A
C738   C740    1.401   .     A
C738   N782    1.439   .     S
C739   H830    1.084   .     S
C741   C743    1.405   .     A
C741   H756    1.074   .     S
C742   H755    1.078   .     S
C742   C744    1.404   .     A
C743   C747    1.430   .     A
C743   C745    1.425   .     A
C744   C746    1.422   .     A
C744   C748    1.426   .     A
C745   C103    1.398   1_556 S
C747   C750    1.415   .     A
C747   C100    1.420   1_556 S
C748   C749    1.413   .     A
C749   H759    1.078   .     S
C749   C751    1.385   .     A
C750   H760    1.076   .     S
C750   C752    1.387   .     A
C751   H753    1.081   .     S
C752   H754    1.081   .     S
C752   C98     1.398   1_556 S
H757   C812    1.084   .     S
C761   H763    1.085   .     S
C761   C768    1.399   .     A
C761   C1197   1.390   1_545 S
C762   H764    1.085   .     S
C762   C767    1.399   .     A
C762   C982    1.390   .     S
C765   C785    1.487   .     S
C765   C977    1.390   .     S
C765   C839    1.412   .     S
C766   C789    1.487   .     S
C766   C1194   1.390   1_545 S
C768   C838    1.412   .     S
C769   C773    1.417   .     A
C769   H771    1.082   .     S
C769   N778    1.368   .     A
C770   H772    1.082   .     S
C770   C774    1.417   .     A
C770   N777    1.368   .     A
C773   H775    1.081   .     S
C773   N777    1.367   .     A
C774   H776    1.081   .     S
C774   N778    1.367   .     A
N779   O780    1.301   .     A
N779   O61     1.302   1_556 S
N782   O783    1.301   .     A
O784   N854    1.301   .     S
C785   O786    1.223   .     D
C785   O787    1.399   .     S
O787   H788    1.014   .     S
C789   O790    1.223   .     D
C789   O791    1.399   .     S
O791   H792    1.014   .     S
O793   Cu805   1.957   .     S
O794   Cu806   1.957   .     S
O794   C654    1.290   1_655 S
O795   Cu806   1.958   .     S
O795   C797    1.290   .     A
O796   C798    1.290   .     A
O796   Cu805   1.958   .     S
C797   C840    1.446   .     S
C797   O649    1.290   1_655 S
C798   C839    1.446   .     S
O799   Cu805   1.949   .     S
O800   Cu806   1.949   .     S
O800   C660    1.296   1_655 S
O801   Cu806   1.935   .     S
O801   C803    1.295   .     A
O802   C804    1.295   .     A
O802   Cu805   1.935   .     S
C803   C807    1.467   .     S
C803   O655    1.296   1_655 S
C804   C808    1.465   .     S
Cu805  N849    2.014   .     S
Cu806  N850    2.014   .     S
Cu806  Cu661   2.680   1_655 S
C807   C813    1.393   .     A
C807   C811    1.396   .     A
C808   C812    1.396   .     A
C808   C814    1.392   .     A
C809   C817    1.421   .     A
C809   C811    1.399   .     A
C809   N707    1.439   1_655 S
C810   C818    1.421   .     A
C810   C812    1.401   .     A
C810   N854    1.439   .     S
C811   H686    1.084   1_655 S
C813   C815    1.405   .     A
C813   H828    1.074   .     S
C814   H827    1.078   .     S
C814   C816    1.404   .     A
C815   C819    1.430   .     A
C815   C817    1.425   .     A
C816   C818    1.422   .     A
C816   C820    1.426   .     A
C817   C175    1.398   1_556 S
C819   C822    1.415   .     A
C819   C172    1.420   1_556 S
C820   C821    1.413   .     A
C821   H831    1.078   .     S
C821   C823    1.385   .     A
C822   H832    1.076   .     S
C822   C824    1.387   .     A
C823   H825    1.081   .     S
C824   H826    1.081   .     S
C824   C170    1.398   1_556 S
H829   C668    1.084   1_655 S
C833   H835    1.085   .     S
C833   C840    1.399   .     A
C833   C1269   1.390   1_545 S
C834   H836    1.085   .     S
C834   C839    1.399   .     A
C834   C1054   1.390   .     S
C837   C857    1.487   .     S
C837   C1049   1.390   .     S
C837   C695    1.412   1_655 S
C838   C861    1.487   .     S
C838   C1266   1.390   1_545 S
C840   C694    1.412   1_655 S
C841   C845    1.417   .     A
C841   H843    1.082   .     S
C841   N850    1.368   .     A
C842   H844    1.082   .     S
C842   C846    1.417   .     A
C842   N849    1.368   .     A
C845   H847    1.081   .     S
C845   N849    1.367   .     A
C846   H848    1.081   .     S
C846   N850    1.367   .     A
N851   O852    1.301   .     A
N851   O133    1.302   1_556 S
O853   N59     1.302   1_655 S
N854   O855    1.301   .     A
O856   N710    1.301   1_655 S
C857   O858    1.223   .     D
C857   O859    1.399   .     S
O859   H860    1.014   .     S
C861   O862    1.223   .     D
C861   O863    1.399   .     S
O863   H864    1.014   .     S
O865   Cu877   1.957   .     S
O865   C1013   1.290   1_455 S
O866   Cu878   1.957   .     S
O866   C942    1.290   .     S
O867   Cu878   1.958   .     S
O867   C869    1.290   .     A
O868   C870    1.290   .     A
O868   Cu877   1.958   .     S
C869   C912    1.446   .     S
C869   O937    1.290   .     S
C870   C911    1.446   .     S
C870   O1010   1.290   1_455 S
O871   Cu877   1.949   .     S
O871   C1019   1.296   1_455 S
O872   Cu878   1.949   .     S
O872   C948    1.296   .     S
O873   Cu878   1.935   .     S
O873   C875    1.295   .     A
O874   C876    1.295   .     A
O874   Cu877   1.935   .     S
C875   C879    1.467   .     S
C875   O943    1.296   .     S
C876   C880    1.465   .     S
C876   O1016   1.296   1_455 S
Cu877  N921    2.014   .     S
Cu877  Cu1022  2.680   1_455 S
Cu878  N922    2.014   .     S
Cu878  Cu949   2.680   .     S
C879   C885    1.393   .     A
C879   C883    1.396   .     A
C880   C884    1.396   .     A
C880   C886    1.392   .     A
C881   C889    1.421   .     A
C881   C883    1.399   .     A
C881   N995    1.439   .     S
C882   C890    1.421   .     A
C882   C884    1.401   .     A
C882   N926    1.439   .     S
C883   H974    1.084   .     S
C884   H1045   1.084   1_455 S
C885   C887    1.405   .     A
C885   H900    1.074   .     S
C886   H899    1.078   .     S
C886   C888    1.404   .     A
C887   C891    1.430   .     A
C887   C889    1.425   .     A
C888   C890    1.422   .     A
C888   C892    1.426   .     A
C889   C247    1.398   1_556 S
C891   C894    1.415   .     A
C891   C244    1.420   1_556 S
C892   C893    1.413   .     A
C893   H903    1.078   .     S
C893   C895    1.385   .     A
C894   H904    1.076   .     S
C894   C896    1.387   .     A
C895   H897    1.081   .     S
C896   H898    1.081   .     S
C896   C242    1.398   1_556 S
H901   C956    1.084   .     S
H902   C1027   1.084   1_455 S
C905   H907    1.085   .     S
C905   C912    1.399   .     A
C906   H908    1.085   .     S
C906   C911    1.399   .     A
C906   C1126   1.390   .     S
C909   C929    1.487   .     S
C909   C1121   1.390   .     S
C909   C983    1.412   .     S
C910   C933    1.487   .     S
C910   C1056   1.412   1_455 S
C911   C1053   1.412   1_455 S
C912   C982    1.412   .     S
C913   C917    1.417   .     A
C913   H915    1.082   .     S
C913   N922    1.368   .     A
C914   H916    1.082   .     S
C914   C918    1.417   .     A
C914   N921    1.368   .     A
C917   H919    1.081   .     S
C917   N921    1.367   .     A
C918   H920    1.081   .     S
C918   N922    1.367   .     A
N923   O924    1.301   .     A
N923   C1025   1.439   1_455 S
N923   O421    1.302   1_456 S
N926   O927    1.301   .     A
N926   O1072   1.301   1_455 S
O928   N998    1.301   .     S
C929   O930    1.223   .     D
C929   O931    1.399   .     S
O931   H932    1.014   .     S
C933   O934    1.223   .     D
C933   O935    1.399   .     S
O935   H936    1.014   .     S
O937   Cu949   1.957   .     S
O938   Cu950   1.957   .     S
O938   C1014   1.290   .     S
O939   Cu950   1.958   .     S
O939   C941    1.290   .     A
O940   C942    1.290   .     A
O940   Cu949   1.958   .     S
C941   C984    1.446   .     S
C941   O1009   1.290   .     S
C942   C983    1.446   .     S
O943   Cu949   1.949   .     S
O944   Cu950   1.949   .     S
O944   C1020   1.296   .     S
O945   Cu950   1.935   .     S
O945   C947    1.295   .     A
O946   C948    1.295   .     A
O946   Cu949   1.935   .     S
C947   C951    1.467   .     S
C947   O1015   1.296   .     S
C948   C952    1.465   .     S
Cu949  N993    2.014   .     S
Cu950  N994    2.014   .     S
Cu950  Cu1021  2.680   .     S
C951   C957    1.393   .     A
C951   C955    1.396   .     A
C952   C956    1.396   .     A
C952   C958    1.392   .     A
C953   C961    1.421   .     A
C953   C955    1.399   .     A
C953   N1067   1.439   .     S
C954   C962    1.421   .     A
C954   C956    1.401   .     A
C954   N998    1.439   .     S
C955   H1046   1.084   .     S
C957   C959    1.405   .     A
C957   H972    1.074   .     S
C958   H971    1.078   .     S
C958   C960    1.404   .     A
C959   C963    1.430   .     A
C959   C961    1.425   .     A
C960   C962    1.422   .     A
C960   C964    1.426   .     A
C961   C319    1.398   1_556 S
C963   C966    1.415   .     A
C963   C316    1.420   1_556 S
C964   C965    1.413   .     A
C965   H975    1.078   .     S
C965   C967    1.385   .     A
C966   H976    1.076   .     S
C966   C968    1.387   .     A
C967   H969    1.081   .     S
C968   H970    1.081   .     S
C968   C314    1.398   1_556 S
H973   C1028   1.084   .     S
C977   H979    1.085   .     S
C977   C984    1.399   .     A
C978   H980    1.085   .     S
C978   C983    1.399   .     A
C978   C1198   1.390   .     S
C981   C1001   1.487   .     S
C981   C1193   1.390   .     S
C981   C1055   1.412   .     S
C982   C1005   1.487   .     S
C984   C1054   1.412   .     S
C985   C989    1.417   .     A
C985   H987    1.082   .     S
C985   N994    1.368   .     A
C986   H988    1.082   .     S
C986   C990    1.417   .     A
C986   N993    1.368   .     A
C989   H991    1.081   .     S
C989   N993    1.367   .     A
C990   H992    1.081   .     S
C990   N994    1.367   .     A
N995   O996    1.301   .     A
N995   O277    1.302   1_556 S
N998   O999    1.301   .     A
O1000  N1070   1.301   .     S
C1001  O1002   1.223   .     D
C1001  O1003   1.399   .     S
O1003  H1004   1.014   .     S
C1005  O1006   1.223   .     D
C1005  O1007   1.399   .     S
O1007  H1008   1.014   .     S
O1009  Cu1021  1.957   .     S
O1010  Cu1022  1.957   .     S
O1010  C870    1.290   1_655 S
O1011  Cu1022  1.958   .     S
O1011  C1013   1.290   .     A
O1012  C1014   1.290   .     A
O1012  Cu1021  1.958   .     S
C1013  C1056   1.446   .     S
C1013  O865    1.290   1_655 S
C1014  C1055   1.446   .     S
O1015  Cu1021  1.949   .     S
O1016  Cu1022  1.949   .     S
O1016  C876    1.296   1_655 S
O1017  Cu1022  1.935   .     S
O1017  C1019   1.295   .     A
O1018  C1020   1.295   .     A
O1018  Cu1021  1.935   .     S
C1019  C1023   1.467   .     S
C1019  O871    1.296   1_655 S
C1020  C1024   1.465   .     S
Cu1021 N1065   2.014   .     S
Cu1022 N1066   2.014   .     S
Cu1022 Cu877   2.680   1_655 S
C1023  C1029   1.393   .     A
C1023  C1027   1.396   .     A
C1024  C1028   1.396   .     A
C1024  C1030   1.392   .     A
C1025  C1033   1.421   .     A
C1025  C1027   1.399   .     A
C1025  N923    1.439   1_655 S
C1026  C1034   1.421   .     A
C1026  C1028   1.401   .     A
C1026  N1070   1.439   .     S
C1027  H902    1.084   1_655 S
C1029  C1031   1.405   .     A
C1029  H1044   1.074   .     S
C1030  H1043   1.078   .     S
C1030  C1032   1.404   .     A
C1031  C1035   1.430   .     A
C1031  C1033   1.425   .     A
C1032  C1034   1.422   .     A
C1032  C1036   1.426   .     A
C1033  C391    1.398   1_556 S
C1035  C1038   1.415   .     A
C1035  C388    1.420   1_556 S
C1036  C1037   1.413   .     A
C1037  H1047   1.078   .     S
C1037  C1039   1.385   .     A
C1038  H1048   1.076   .     S
C1038  C1040   1.387   .     A
C1039  H1041   1.081   .     S
C1040  H1042   1.081   .     S
C1040  C386    1.398   1_556 S
H1045  C884    1.084   1_655 S
C1049  H1051   1.085   .     S
C1049  C1056   1.399   .     A
C1050  H1052   1.085   .     S
C1050  C1055   1.399   .     A
C1050  C1270   1.390   .     S
C1053  C1073   1.487   .     S
C1053  C1265   1.390   .     S
C1053  C911    1.412   1_655 S
C1054  C1077   1.487   .     S
C1056  C910    1.412   1_655 S
C1057  C1061   1.417   .     A
C1057  H1059   1.082   .     S
C1057  N1066   1.368   .     A
C1058  H1060   1.082   .     S
C1058  C1062   1.417   .     A
C1058  N1065   1.368   .     A
C1061  H1063   1.081   .     S
C1061  N1065   1.367   .     A
C1062  H1064   1.081   .     S
C1062  N1066   1.367   .     A
N1067  O1068   1.301   .     A
N1067  O349    1.302   1_556 S
O1069  N275    1.302   1_655 S
N1070  O1071   1.301   .     A
O1072  N926    1.301   1_655 S
C1073  O1074   1.223   .     D
C1073  O1075   1.399   .     S
O1075  H1076   1.014   .     S
C1077  O1078   1.223   .     D
C1077  O1079   1.399   .     S
O1079  H1080   1.014   .     S
O1081  Cu1093  1.957   .     S
O1081  C1229   1.290   1_455 S
O1082  Cu1094  1.957   .     S
O1082  C1158   1.290   .     S
O1083  Cu1094  1.958   .     S
O1083  C1085   1.290   .     A
O1084  C1086   1.290   .     A
O1084  Cu1093  1.958   .     S
C1085  C1128   1.446   .     S
C1085  O1153   1.290   .     S
C1086  C1127   1.446   .     S
C1086  O1226   1.290   1_455 S
O1087  Cu1093  1.949   .     S
O1087  C1235   1.296   1_455 S
O1088  Cu1094  1.949   .     S
O1088  C1164   1.296   .     S
O1089  Cu1094  1.935   .     S
O1089  C1091   1.295   .     A
O1090  C1092   1.295   .     A
O1090  Cu1093  1.935   .     S
C1091  C1095   1.467   .     S
C1091  O1159   1.296   .     S
C1092  C1096   1.465   .     S
C1092  O1232   1.296   1_455 S
Cu1093 N1137   2.014   .     S
Cu1093 Cu1238  2.680   1_455 S
Cu1094 N1138   2.014   .     S
Cu1094 Cu1165  2.680   .     S
C1095  C1101   1.393   .     A
C1095  C1099   1.396   .     A
C1096  C1100   1.396   .     A
C1096  C1102   1.392   .     A
C1097  C1105   1.421   .     A
C1097  C1099   1.399   .     A
C1097  N1211   1.439   .     S
C1098  C1106   1.421   .     A
C1098  C1100   1.401   .     A
C1098  N1142   1.439   .     S
C1099  H1190   1.084   .     S
C1100  H1261   1.084   1_455 S
C1101  C1103   1.405   .     A
C1101  H1116   1.074   .     S
C1102  H1115   1.078   .     S
C1102  C1104   1.404   .     A
C1103  C1107   1.430   .     A
C1103  C1105   1.425   .     A
C1104  C1106   1.422   .     A
C1104  C1108   1.426   .     A
C1105  C463    1.398   1_556 S
C1107  C1110   1.415   .     A
C1107  C460    1.420   1_556 S
C1108  C1109   1.413   .     A
C1109  H1119   1.078   .     S
C1109  C1111   1.385   .     A
C1110  H1120   1.076   .     S
C1110  C1112   1.387   .     A
C1111  H1113   1.081   .     S
C1112  H1114   1.081   .     S
C1112  C458    1.398   1_556 S
H1117  C1172   1.084   .     S
H1118  C1243   1.084   1_455 S
C1121  H1123   1.085   .     S
C1121  C1128   1.399   .     A
C1122  H1124   1.085   .     S
C1122  C1127   1.399   .     A
C1122  C694    1.390   1_565 S
C1125  C1145   1.487   .     S
C1125  C689    1.390   1_565 S
C1125  C1199   1.412   .     S
C1126  C1149   1.487   .     S
C1126  C1272   1.412   1_455 S
C1127  C1269   1.412   1_455 S
C1128  C1198   1.412   .     S
C1129  C1133   1.417   .     A
C1129  H1131   1.082   .     S
C1129  N1138   1.368   .     A
C1130  H1132   1.082   .     S
C1130  C1134   1.417   .     A
C1130  N1137   1.368   .     A
C1133  H1135   1.081   .     S
C1133  N1137   1.367   .     A
C1134  H1136   1.081   .     S
C1134  N1138   1.367   .     A
N1139  O1140   1.301   .     A
N1139  C1241   1.439   1_455 S
N1139  O637    1.302   1_456 S
N1142  O1143   1.301   .     A
N1142  O1288   1.301   1_455 S
O1144  N1214   1.301   .     S
C1145  O1146   1.223   .     D
C1145  O1147   1.399   .     S
O1147  H1148   1.014   .     S
C1149  O1150   1.223   .     D
C1149  O1151   1.399   .     S
O1151  H1152   1.014   .     S
O1153  Cu1165  1.957   .     S
O1154  Cu1166  1.957   .     S
O1154  C1230   1.290   .     S
O1155  Cu1166  1.958   .     S
O1155  C1157   1.290   .     A
O1156  C1158   1.290   .     A
O1156  Cu1165  1.958   .     S
C1157  C1200   1.446   .     S
C1157  O1225   1.290   .     S
C1158  C1199   1.446   .     S
O1159  Cu1165  1.949   .     S
O1160  Cu1166  1.949   .     S
O1160  C1236   1.296   .     S
O1161  Cu1166  1.935   .     S
O1161  C1163   1.295   .     A
O1162  C1164   1.295   .     A
O1162  Cu1165  1.935   .     S
C1163  C1167   1.467   .     S
C1163  O1231   1.296   .     S
C1164  C1168   1.465   .     S
Cu1165 N1209   2.014   .     S
Cu1166 N1210   2.014   .     S
Cu1166 Cu1237  2.680   .     S
C1167  C1173   1.393   .     A
C1167  C1171   1.396   .     A
C1168  C1172   1.396   .     A
C1168  C1174   1.392   .     A
C1169  C1177   1.421   .     A
C1169  C1171   1.399   .     A
C1169  N1283   1.439   .     S
C1170  C1178   1.421   .     A
C1170  C1172   1.401   .     A
C1170  N1214   1.439   .     S
C1171  H1262   1.084   .     S
C1173  C1175   1.405   .     A
C1173  H1188   1.074   .     S
C1174  H1187   1.078   .     S
C1174  C1176   1.404   .     A
C1175  C1179   1.430   .     A
C1175  C1177   1.425   .     A
C1176  C1178   1.422   .     A
C1176  C1180   1.426   .     A
C1177  C535    1.398   1_556 S
C1179  C1182   1.415   .     A
C1179  C532    1.420   1_556 S
C1180  C1181   1.413   .     A
C1181  H1191   1.078   .     S
C1181  C1183   1.385   .     A
C1182  H1192   1.076   .     S
C1182  C1184   1.387   .     A
C1183  H1185   1.081   .     S
C1184  H1186   1.081   .     S
C1184  C530    1.398   1_556 S
H1189  C1244   1.084   .     S
C1193  H1195   1.085   .     S
C1193  C1200   1.399   .     A
C1194  H1196   1.085   .     S
C1194  C1199   1.399   .     A
C1194  C766    1.390   1_565 S
C1197  C1217   1.487   .     S
C1197  C761    1.390   1_565 S
C1197  C1271   1.412   .     S
C1198  C1221   1.487   .     S
C1200  C1270   1.412   .     S
C1201  C1205   1.417   .     A
C1201  H1203   1.082   .     S
C1201  N1210   1.368   .     A
C1202  H1204   1.082   .     S
C1202  C1206   1.417   .     A
C1202  N1209   1.368   .     A
C1205  H1207   1.081   .     S
C1205  N1209   1.367   .     A
C1206  H1208   1.081   .     S
C1206  N1210   1.367   .     A
N1211  O1212   1.301   .     A
N1211  O493    1.302   1_556 S
N1214  O1215   1.301   .     A
O1216  N1286   1.301   .     S
C1217  O1218   1.223   .     D
C1217  O1219   1.399   .     S
O1219  H1220   1.014   .     S
C1221  O1222   1.223   .     D
C1221  O1223   1.399   .     S
O1223  H1224   1.014   .     S
O1225  Cu1237  1.957   .     S
O1226  Cu1238  1.957   .     S
O1226  C1086   1.290   1_655 S
O1227  Cu1238  1.958   .     S
O1227  C1229   1.290   .     A
O1228  C1230   1.290   .     A
O1228  Cu1237  1.958   .     S
C1229  C1272   1.446   .     S
C1229  O1081   1.290   1_655 S
C1230  C1271   1.446   .     S
O1231  Cu1237  1.949   .     S
O1232  Cu1238  1.949   .     S
O1232  C1092   1.296   1_655 S
O1233  Cu1238  1.935   .     S
O1233  C1235   1.295   .     A
O1234  C1236   1.295   .     A
O1234  Cu1237  1.935   .     S
C1235  C1239   1.467   .     S
C1235  O1087   1.296   1_655 S
C1236  C1240   1.465   .     S
Cu1237 N1281   2.014   .     S
Cu1238 N1282   2.014   .     S
Cu1238 Cu1093  2.680   1_655 S
C1239  C1245   1.393   .     A
C1239  C1243   1.396   .     A
C1240  C1244   1.396   .     A
C1240  C1246   1.392   .     A
C1241  C1249   1.421   .     A
C1241  C1243   1.399   .     A
C1241  N1139   1.439   1_655 S
C1242  C1250   1.421   .     A
C1242  C1244   1.401   .     A
C1242  N1286   1.439   .     S
C1243  H1118   1.084   1_655 S
C1245  C1247   1.405   .     A
C1245  H1260   1.074   .     S
C1246  H1259   1.078   .     S
C1246  C1248   1.404   .     A
C1247  C1251   1.430   .     A
C1247  C1249   1.425   .     A
C1248  C1250   1.422   .     A
C1248  C1252   1.426   .     A
C1249  C607    1.398   1_556 S
C1251  C1254   1.415   .     A
C1251  C604    1.420   1_556 S
C1252  C1253   1.413   .     A
C1253  H1263   1.078   .     S
C1253  C1255   1.385   .     A
C1254  H1264   1.076   .     S
C1254  C1256   1.387   .     A
C1255  H1257   1.081   .     S
C1256  H1258   1.081   .     S
C1256  C602    1.398   1_556 S
H1261  C1100   1.084   1_655 S
C1265  H1267   1.085   .     S
C1265  C1272   1.399   .     A
C1266  H1268   1.085   .     S
C1266  C1271   1.399   .     A
C1266  C838    1.390   1_565 S
C1269  C1289   1.487   .     S
C1269  C833    1.390   1_565 S
C1269  C1127   1.412   1_655 S
C1270  C1293   1.487   .     S
C1272  C1126   1.412   1_655 S
C1273  C1277   1.417   .     A
C1273  H1275   1.082   .     S
C1273  N1282   1.368   .     A
C1274  H1276   1.082   .     S
C1274  C1278   1.417   .     A
C1274  N1281   1.368   .     A
C1277  H1279   1.081   .     S
C1277  N1281   1.367   .     A
C1278  H1280   1.081   .     S
C1278  N1282   1.367   .     A
N1283  O1284   1.301   .     A
N1283  O565    1.302   1_556 S
O1285  N491    1.302   1_655 S
N1286  O1287   1.301   .     A
O1288  N1142   1.301   1_655 S
C1289  O1290   1.223   .     D
C1289  O1291   1.399   .     S
O1291  H1292   1.014   .     S
C1293  O1294   1.223   .     D
C1293  O1295   1.399   .     S
O1295  H1296   1.014   .     S
