data_str_m3_o10_o16_pcu_sym.79
_audit_creation_date              2020-01-03
_audit_creation_method            'Materials Studio'
_symmetry_space_group_name_H-M    'P1'
_symmetry_Int_Tables_number       1
_symmetry_cell_setting            triclinic
loop_
_symmetry_equiv_pos_as_xyz
  x,y,z
_cell_length_a                    23.7682
_cell_length_b                    25.6643
_cell_length_c                    24.7733
_cell_angle_alpha                 94.0630
_cell_angle_beta                  102.4966
_cell_angle_gamma                 93.2966
loop_
_atom_site_label
_atom_site_type_symbol
_atom_site_fract_x
_atom_site_fract_y
_atom_site_fract_z
_atom_site_U_iso_or_equiv
_atom_site_adp_type
_atom_site_occupancy
C1     C     0.01473   0.26470   0.24937   0.00000  Uiso   1.00
C2     C     0.05632   0.17758   0.41567   0.00000  Uiso   1.00
C3     C     0.02293   0.31929   0.25063   0.00000  Uiso   1.00
C4     C     0.03632   0.16907   0.35504   0.00000  Uiso   1.00
C5     C     0.31130   0.01418   0.25219   0.00000  Uiso   1.00
C6     C     0.31891   0.06868   0.25155   0.00000  Uiso   1.00
C7     C     0.29683   0.16250   0.14523   0.00000  Uiso   1.00
C8     C     0.23284   0.07045   0.03083   0.00000  Uiso   1.00
C9     C     0.27340   0.15053   0.08599   0.00000  Uiso   1.00
C10    C     0.02975   0.21515   0.44381   0.00000  Uiso   1.00
C11    C     0.05030   0.22912   0.00025   0.00000  Uiso   1.00
C12    C     0.12668   0.17023   0.00199   0.00000  Uiso   1.00
C13    C     0.09973   0.20833   0.02887   0.00000  Uiso   1.00
C14    C     0.10182   0.15122   0.44640   0.00000  Uiso   1.00
C15    C     0.17631   0.14697   0.02886   0.00000  Uiso   1.00
C16    C     0.18133   0.09350   0.01222   0.00000  Uiso   1.00
C17    C     0.14101   0.06951   0.46604   0.00000  Uiso   1.00
C18    C     0.12061   0.10363   0.42639   0.00000  Uiso   1.00
C19    C     0.22356   0.17574   0.06504   0.00000  Uiso   1.00
C20    C     0.28049   0.10042   0.06262   0.00000  Uiso   1.00
H21    H     0.26857   0.33062   0.25315   0.00000  Uiso   1.00
H22    H     0.21195   0.18179   0.41107   0.00000  Uiso   1.00
H23    H     0.17686   0.21429   0.28405   0.00000  Uiso   1.00
H24    H     0.23961   0.03223   0.01308   0.00000  Uiso   1.00
H25    H     0.32673   0.23454   0.42188   0.00000  Uiso   1.00
H26    H     0.11420   0.21928   0.07289   0.00000  Uiso   1.00
H27    H     0.02842   0.25697   0.02154   0.00000  Uiso   1.00
H28    H     0.06589   0.00269   0.25045   0.00000  Uiso   1.00
H29    H     0.06062   0.01198   0.06118   0.00000  Uiso   1.00
H30    H     0.09451   0.02503   0.16582   0.00000  Uiso   1.00
I31    I     0.13681   0.32156   0.43928   0.00000  Uiso   1.00
I32    I     0.23094   0.25927   0.08252   0.00000  Uiso   1.00
N33    N     0.14493   0.15223   0.23542   0.00000  Uiso   1.00
N34    N     0.18840   0.18110   0.26457   0.00000  Uiso   1.00
O35    O     0.29769   0.24629   0.25357   0.00000  Uiso   1.00
O36    O     0.06337   0.11906   0.08492   0.00000  Uiso   1.00
O37    O     0.02377   0.02066   0.07096   0.00000  Uiso   1.00
O38    O     0.18815   0.09359   0.16076   0.00000  Uiso   1.00
O39    O     0.17855   0.05455   0.24607   0.00000  Uiso   1.00
O40    O     0.08832   0.06268   0.17160   0.00000  Uiso   1.00
O41    O     0.21945   0.07793   0.39638   0.00000  Uiso   1.00
O42    O     0.13216   0.08162   0.32491   0.00000  Uiso   1.00
O43    O     0.18692   0.16987   0.37431   0.00000  Uiso   1.00
O44    O     0.05742   0.23704   0.24424   0.00000  Uiso   1.00
O45    O     0.31490   0.17358   0.33380   0.00000  Uiso   1.00
O46    O     0.07463   0.16433   0.32446   0.00000  Uiso   1.00
O47    O     0.27592   0.09629   0.25576   0.00000  Uiso   1.00
O48    O     0.03565   0.08704   0.24643   0.00000  Uiso   1.00
O49    O     0.25870   0.16901   0.17554   0.00000  Uiso   1.00
O50    O     0.01843   0.15976   0.16620   0.00000  Uiso   1.00
O51    O     0.01384   0.08213   0.49205   0.00000  Uiso   1.00
S52    S     0.01466   0.08193   0.05284   0.00000  Uiso   1.00
S53    S     0.15311   0.09086   0.20400   0.00000  Uiso   1.00
S54    S     0.16612   0.10700   0.37913   0.00000  Uiso   1.00
Zn55   Zn    0.27119   0.17284   0.25623   0.00000  Uiso   1.00
Zn56   Zn    0.06214   0.16049   0.24377   0.00000  Uiso   1.00
C57    C     0.34806   0.26470   0.24937   0.00000  Uiso   1.00
C58    C     0.38965   0.17758   0.41567   0.00000  Uiso   1.00
C59    C     0.35626   0.31929   0.25063   0.00000  Uiso   1.00
C60    C     0.36965   0.16907   0.35504   0.00000  Uiso   1.00
C61    C     0.64463   0.01418   0.25219   0.00000  Uiso   1.00
C62    C     0.65225   0.06868   0.25155   0.00000  Uiso   1.00
C63    C     0.63016   0.16250   0.14523   0.00000  Uiso   1.00
C64    C     0.56618   0.07045   0.03083   0.00000  Uiso   1.00
C65    C     0.60673   0.15053   0.08599   0.00000  Uiso   1.00
C66    C     0.36308   0.21515   0.44381   0.00000  Uiso   1.00
C67    C     0.38363   0.22912   0.00025   0.00000  Uiso   1.00
C68    C     0.46002   0.17023   0.00199   0.00000  Uiso   1.00
C69    C     0.43307   0.20833   0.02887   0.00000  Uiso   1.00
C70    C     0.43515   0.15122   0.44640   0.00000  Uiso   1.00
C71    C     0.50964   0.14697   0.02886   0.00000  Uiso   1.00
C72    C     0.51466   0.09350   0.01222   0.00000  Uiso   1.00
C73    C     0.47435   0.06951   0.46604   0.00000  Uiso   1.00
C74    C     0.45394   0.10363   0.42639   0.00000  Uiso   1.00
C75    C     0.55689   0.17574   0.06504   0.00000  Uiso   1.00
C76    C     0.61382   0.10042   0.06262   0.00000  Uiso   1.00
H77    H     0.60190   0.33062   0.25315   0.00000  Uiso   1.00
H78    H     0.54529   0.18179   0.41107   0.00000  Uiso   1.00
H79    H     0.51020   0.21429   0.28405   0.00000  Uiso   1.00
H80    H     0.57295   0.03223   0.01308   0.00000  Uiso   1.00
H81    H     0.66006   0.23454   0.42188   0.00000  Uiso   1.00
H82    H     0.44754   0.21928   0.07289   0.00000  Uiso   1.00
H83    H     0.36175   0.25697   0.02154   0.00000  Uiso   1.00
H84    H     0.39922   0.00269   0.25045   0.00000  Uiso   1.00
H85    H     0.39395   0.01198   0.06118   0.00000  Uiso   1.00
H86    H     0.42784   0.02503   0.16582   0.00000  Uiso   1.00
I87    I     0.47014   0.32156   0.43928   0.00000  Uiso   1.00
I88    I     0.56428   0.25927   0.08252   0.00000  Uiso   1.00
N89    N     0.47827   0.15223   0.23542   0.00000  Uiso   1.00
N90    N     0.52173   0.18110   0.26457   0.00000  Uiso   1.00
O91    O     0.63102   0.24629   0.25357   0.00000  Uiso   1.00
O92    O     0.39670   0.11906   0.08492   0.00000  Uiso   1.00
O93    O     0.35711   0.02066   0.07096   0.00000  Uiso   1.00
O94    O     0.52148   0.09359   0.16076   0.00000  Uiso   1.00
O95    O     0.51188   0.05455   0.24607   0.00000  Uiso   1.00
O96    O     0.42165   0.06268   0.17160   0.00000  Uiso   1.00
O97    O     0.55279   0.07793   0.39638   0.00000  Uiso   1.00
O98    O     0.46550   0.08162   0.32491   0.00000  Uiso   1.00
O99    O     0.52026   0.16987   0.37431   0.00000  Uiso   1.00
O100   O     0.39075   0.23704   0.24424   0.00000  Uiso   1.00
O101   O     0.64823   0.17358   0.33380   0.00000  Uiso   1.00
O102   O     0.40796   0.16433   0.32446   0.00000  Uiso   1.00
O103   O     0.60925   0.09629   0.25576   0.00000  Uiso   1.00
O104   O     0.36898   0.08704   0.24643   0.00000  Uiso   1.00
O105   O     0.59204   0.16901   0.17554   0.00000  Uiso   1.00
O106   O     0.35177   0.15976   0.16620   0.00000  Uiso   1.00
O107   O     0.34717   0.08213   0.49205   0.00000  Uiso   1.00
S108   S     0.34799   0.08193   0.05284   0.00000  Uiso   1.00
S109   S     0.48644   0.09086   0.20400   0.00000  Uiso   1.00
S110   S     0.49946   0.10700   0.37913   0.00000  Uiso   1.00
Zn111  Zn    0.60453   0.17284   0.25623   0.00000  Uiso   1.00
Zn112  Zn    0.39547   0.16049   0.24377   0.00000  Uiso   1.00
C113   C     0.68139   0.26470   0.24937   0.00000  Uiso   1.00
C114   C     0.72299   0.17758   0.41567   0.00000  Uiso   1.00
C115   C     0.68960   0.31929   0.25063   0.00000  Uiso   1.00
C116   C     0.70298   0.16907   0.35504   0.00000  Uiso   1.00
C117   C     0.97797   0.01418   0.25219   0.00000  Uiso   1.00
C118   C     0.98558   0.06868   0.25155   0.00000  Uiso   1.00
C119   C     0.96350   0.16250   0.14523   0.00000  Uiso   1.00
C120   C     0.89951   0.07045   0.03083   0.00000  Uiso   1.00
C121   C     0.94006   0.15053   0.08599   0.00000  Uiso   1.00
C122   C     0.69641   0.21515   0.44381   0.00000  Uiso   1.00
C123   C     0.71696   0.22912   0.00025   0.00000  Uiso   1.00
C124   C     0.79335   0.17023   0.00199   0.00000  Uiso   1.00
C125   C     0.76640   0.20833   0.02887   0.00000  Uiso   1.00
C126   C     0.76848   0.15122   0.44640   0.00000  Uiso   1.00
C127   C     0.84298   0.14697   0.02886   0.00000  Uiso   1.00
C128   C     0.84799   0.09350   0.01222   0.00000  Uiso   1.00
C129   C     0.80768   0.06951   0.46604   0.00000  Uiso   1.00
C130   C     0.78728   0.10363   0.42639   0.00000  Uiso   1.00
C131   C     0.89022   0.17574   0.06504   0.00000  Uiso   1.00
C132   C     0.94715   0.10042   0.06262   0.00000  Uiso   1.00
H133   H     0.93524   0.33062   0.25315   0.00000  Uiso   1.00
H134   H     0.87862   0.18179   0.41107   0.00000  Uiso   1.00
H135   H     0.84353   0.21429   0.28405   0.00000  Uiso   1.00
H136   H     0.90628   0.03223   0.01308   0.00000  Uiso   1.00
H137   H     0.99340   0.23454   0.42188   0.00000  Uiso   1.00
H138   H     0.78087   0.21928   0.07289   0.00000  Uiso   1.00
H139   H     0.69509   0.25697   0.02154   0.00000  Uiso   1.00
H140   H     0.73255   0.00269   0.25045   0.00000  Uiso   1.00
H141   H     0.72728   0.01198   0.06118   0.00000  Uiso   1.00
H142   H     0.76118   0.02503   0.16582   0.00000  Uiso   1.00
I143   I     0.80348   0.32156   0.43928   0.00000  Uiso   1.00
I144   I     0.89761   0.25927   0.08252   0.00000  Uiso   1.00
N145   N     0.81160   0.15223   0.23542   0.00000  Uiso   1.00
N146   N     0.85507   0.18110   0.26457   0.00000  Uiso   1.00
O147   O     0.96435   0.24629   0.25357   0.00000  Uiso   1.00
O148   O     0.73004   0.11906   0.08492   0.00000  Uiso   1.00
O149   O     0.69044   0.02066   0.07096   0.00000  Uiso   1.00
O150   O     0.85481   0.09359   0.16076   0.00000  Uiso   1.00
O151   O     0.84521   0.05455   0.24607   0.00000  Uiso   1.00
O152   O     0.75499   0.06268   0.17160   0.00000  Uiso   1.00
O153   O     0.88612   0.07793   0.39638   0.00000  Uiso   1.00
O154   O     0.79883   0.08162   0.32491   0.00000  Uiso   1.00
O155   O     0.85359   0.16987   0.37431   0.00000  Uiso   1.00
O156   O     0.72408   0.23704   0.24424   0.00000  Uiso   1.00
O157   O     0.98157   0.17358   0.33380   0.00000  Uiso   1.00
O158   O     0.74130   0.16433   0.32446   0.00000  Uiso   1.00
O159   O     0.94258   0.09629   0.25576   0.00000  Uiso   1.00
O160   O     0.70231   0.08704   0.24643   0.00000  Uiso   1.00
O161   O     0.92537   0.16901   0.17554   0.00000  Uiso   1.00
O162   O     0.68510   0.15976   0.16620   0.00000  Uiso   1.00
O163   O     0.68051   0.08213   0.49205   0.00000  Uiso   1.00
S164   S     0.68132   0.08193   0.05284   0.00000  Uiso   1.00
S165   S     0.81978   0.09086   0.20400   0.00000  Uiso   1.00
S166   S     0.83279   0.10700   0.37913   0.00000  Uiso   1.00
Zn167  Zn    0.93786   0.17284   0.25623   0.00000  Uiso   1.00
Zn168  Zn    0.72881   0.16049   0.24377   0.00000  Uiso   1.00
C169   C     0.01473   0.59804   0.24937   0.00000  Uiso   1.00
C170   C     0.05632   0.51091   0.41567   0.00000  Uiso   1.00
C171   C     0.02293   0.65263   0.25063   0.00000  Uiso   1.00
C172   C     0.03632   0.50241   0.35504   0.00000  Uiso   1.00
C173   C     0.31130   0.34751   0.25219   0.00000  Uiso   1.00
C174   C     0.31891   0.40201   0.25155   0.00000  Uiso   1.00
C175   C     0.29683   0.49583   0.14523   0.00000  Uiso   1.00
C176   C     0.23284   0.40378   0.03083   0.00000  Uiso   1.00
C177   C     0.27340   0.48386   0.08599   0.00000  Uiso   1.00
C178   C     0.02975   0.54848   0.44381   0.00000  Uiso   1.00
C179   C     0.05030   0.56246   0.00025   0.00000  Uiso   1.00
C180   C     0.12668   0.50356   0.00199   0.00000  Uiso   1.00
C181   C     0.09973   0.54167   0.02887   0.00000  Uiso   1.00
C182   C     0.10182   0.48455   0.44640   0.00000  Uiso   1.00
C183   C     0.17631   0.48031   0.02886   0.00000  Uiso   1.00
C184   C     0.18133   0.42683   0.01222   0.00000  Uiso   1.00
C185   C     0.14101   0.40285   0.46604   0.00000  Uiso   1.00
C186   C     0.12061   0.43696   0.42639   0.00000  Uiso   1.00
C187   C     0.22356   0.50908   0.06504   0.00000  Uiso   1.00
C188   C     0.28049   0.43375   0.06262   0.00000  Uiso   1.00
H189   H     0.26857   0.66395   0.25315   0.00000  Uiso   1.00
H190   H     0.21195   0.51512   0.41107   0.00000  Uiso   1.00
H191   H     0.17686   0.54762   0.28405   0.00000  Uiso   1.00
H192   H     0.23961   0.36556   0.01308   0.00000  Uiso   1.00
H193   H     0.32673   0.56788   0.42188   0.00000  Uiso   1.00
H194   H     0.11420   0.55261   0.07289   0.00000  Uiso   1.00
H195   H     0.02842   0.59031   0.02154   0.00000  Uiso   1.00
H196   H     0.06589   0.33603   0.25045   0.00000  Uiso   1.00
H197   H     0.06062   0.34531   0.06118   0.00000  Uiso   1.00
H198   H     0.09451   0.35837   0.16582   0.00000  Uiso   1.00
I199   I     0.13681   0.65490   0.43928   0.00000  Uiso   1.00
I200   I     0.23094   0.59261   0.08252   0.00000  Uiso   1.00
N201   N     0.14493   0.48556   0.23542   0.00000  Uiso   1.00
N202   N     0.18840   0.51444   0.26457   0.00000  Uiso   1.00
O203   O     0.29769   0.57963   0.25357   0.00000  Uiso   1.00
O204   O     0.06337   0.45239   0.08492   0.00000  Uiso   1.00
O205   O     0.02377   0.35399   0.07096   0.00000  Uiso   1.00
O206   O     0.18815   0.42692   0.16076   0.00000  Uiso   1.00
O207   O     0.17855   0.38788   0.24607   0.00000  Uiso   1.00
O208   O     0.08832   0.39601   0.17160   0.00000  Uiso   1.00
O209   O     0.21945   0.41126   0.39638   0.00000  Uiso   1.00
O210   O     0.13216   0.41495   0.32491   0.00000  Uiso   1.00
O211   O     0.18692   0.50321   0.37431   0.00000  Uiso   1.00
O212   O     0.05742   0.57038   0.24424   0.00000  Uiso   1.00
O213   O     0.31490   0.50691   0.33380   0.00000  Uiso   1.00
O214   O     0.07463   0.49766   0.32446   0.00000  Uiso   1.00
O215   O     0.27592   0.42962   0.25576   0.00000  Uiso   1.00
O216   O     0.03565   0.42037   0.24643   0.00000  Uiso   1.00
O217   O     0.25870   0.50234   0.17554   0.00000  Uiso   1.00
O218   O     0.01843   0.49309   0.16620   0.00000  Uiso   1.00
O219   O     0.01384   0.41546   0.49205   0.00000  Uiso   1.00
S220   S     0.01466   0.41526   0.05284   0.00000  Uiso   1.00
S221   S     0.15311   0.42419   0.20400   0.00000  Uiso   1.00
S222   S     0.16612   0.44033   0.37913   0.00000  Uiso   1.00
Zn223  Zn    0.27119   0.50618   0.25623   0.00000  Uiso   1.00
Zn224  Zn    0.06214   0.49382   0.24377   0.00000  Uiso   1.00
C225   C     0.34806   0.59804   0.24937   0.00000  Uiso   1.00
C226   C     0.38965   0.51091   0.41567   0.00000  Uiso   1.00
C227   C     0.35626   0.65263   0.25063   0.00000  Uiso   1.00
C228   C     0.36965   0.50241   0.35504   0.00000  Uiso   1.00
C229   C     0.64463   0.34751   0.25219   0.00000  Uiso   1.00
C230   C     0.65225   0.40201   0.25155   0.00000  Uiso   1.00
C231   C     0.63016   0.49583   0.14523   0.00000  Uiso   1.00
C232   C     0.56618   0.40378   0.03083   0.00000  Uiso   1.00
C233   C     0.60673   0.48386   0.08599   0.00000  Uiso   1.00
C234   C     0.36308   0.54848   0.44381   0.00000  Uiso   1.00
C235   C     0.38363   0.56246   0.00025   0.00000  Uiso   1.00
C236   C     0.46002   0.50356   0.00199   0.00000  Uiso   1.00
C237   C     0.43307   0.54167   0.02887   0.00000  Uiso   1.00
C238   C     0.43515   0.48455   0.44640   0.00000  Uiso   1.00
C239   C     0.50964   0.48031   0.02886   0.00000  Uiso   1.00
C240   C     0.51466   0.42683   0.01222   0.00000  Uiso   1.00
C241   C     0.47435   0.40285   0.46604   0.00000  Uiso   1.00
C242   C     0.45394   0.43696   0.42639   0.00000  Uiso   1.00
C243   C     0.55689   0.50908   0.06504   0.00000  Uiso   1.00
C244   C     0.61382   0.43375   0.06262   0.00000  Uiso   1.00
H245   H     0.60190   0.66395   0.25315   0.00000  Uiso   1.00
H246   H     0.54529   0.51512   0.41107   0.00000  Uiso   1.00
H247   H     0.51020   0.54762   0.28405   0.00000  Uiso   1.00
H248   H     0.57295   0.36556   0.01308   0.00000  Uiso   1.00
H249   H     0.66006   0.56788   0.42188   0.00000  Uiso   1.00
H250   H     0.44754   0.55261   0.07289   0.00000  Uiso   1.00
H251   H     0.36175   0.59031   0.02154   0.00000  Uiso   1.00
H252   H     0.39922   0.33603   0.25045   0.00000  Uiso   1.00
H253   H     0.39395   0.34531   0.06118   0.00000  Uiso   1.00
H254   H     0.42784   0.35837   0.16582   0.00000  Uiso   1.00
I255   I     0.47014   0.65490   0.43928   0.00000  Uiso   1.00
I256   I     0.56428   0.59261   0.08252   0.00000  Uiso   1.00
N257   N     0.47827   0.48556   0.23542   0.00000  Uiso   1.00
N258   N     0.52173   0.51444   0.26457   0.00000  Uiso   1.00
O259   O     0.63102   0.57963   0.25357   0.00000  Uiso   1.00
O260   O     0.39670   0.45239   0.08492   0.00000  Uiso   1.00
O261   O     0.35711   0.35399   0.07096   0.00000  Uiso   1.00
O262   O     0.52148   0.42692   0.16076   0.00000  Uiso   1.00
O263   O     0.51188   0.38788   0.24607   0.00000  Uiso   1.00
O264   O     0.42165   0.39601   0.17160   0.00000  Uiso   1.00
O265   O     0.55279   0.41126   0.39638   0.00000  Uiso   1.00
O266   O     0.46550   0.41495   0.32491   0.00000  Uiso   1.00
O267   O     0.52026   0.50321   0.37431   0.00000  Uiso   1.00
O268   O     0.39075   0.57038   0.24424   0.00000  Uiso   1.00
O269   O     0.64823   0.50691   0.33380   0.00000  Uiso   1.00
O270   O     0.40796   0.49766   0.32446   0.00000  Uiso   1.00
O271   O     0.60925   0.42962   0.25576   0.00000  Uiso   1.00
O272   O     0.36898   0.42037   0.24643   0.00000  Uiso   1.00
O273   O     0.59204   0.50234   0.17554   0.00000  Uiso   1.00
O274   O     0.35177   0.49309   0.16620   0.00000  Uiso   1.00
O275   O     0.34717   0.41546   0.49205   0.00000  Uiso   1.00
S276   S     0.34799   0.41526   0.05284   0.00000  Uiso   1.00
S277   S     0.48644   0.42419   0.20400   0.00000  Uiso   1.00
S278   S     0.49946   0.44033   0.37913   0.00000  Uiso   1.00
Zn279  Zn    0.60453   0.50618   0.25623   0.00000  Uiso   1.00
Zn280  Zn    0.39547   0.49382   0.24377   0.00000  Uiso   1.00
C281   C     0.68139   0.59804   0.24937   0.00000  Uiso   1.00
C282   C     0.72299   0.51091   0.41567   0.00000  Uiso   1.00
C283   C     0.68960   0.65263   0.25063   0.00000  Uiso   1.00
C284   C     0.70298   0.50241   0.35504   0.00000  Uiso   1.00
C285   C     0.97797   0.34751   0.25219   0.00000  Uiso   1.00
C286   C     0.98558   0.40201   0.25155   0.00000  Uiso   1.00
C287   C     0.96350   0.49583   0.14523   0.00000  Uiso   1.00
C288   C     0.89951   0.40378   0.03083   0.00000  Uiso   1.00
C289   C     0.94006   0.48386   0.08599   0.00000  Uiso   1.00
C290   C     0.69641   0.54848   0.44381   0.00000  Uiso   1.00
C291   C     0.71696   0.56246   0.00025   0.00000  Uiso   1.00
C292   C     0.79335   0.50356   0.00199   0.00000  Uiso   1.00
C293   C     0.76640   0.54167   0.02887   0.00000  Uiso   1.00
C294   C     0.76848   0.48455   0.44640   0.00000  Uiso   1.00
C295   C     0.84298   0.48031   0.02886   0.00000  Uiso   1.00
C296   C     0.84799   0.42683   0.01222   0.00000  Uiso   1.00
C297   C     0.80768   0.40285   0.46604   0.00000  Uiso   1.00
C298   C     0.78728   0.43696   0.42639   0.00000  Uiso   1.00
C299   C     0.89022   0.50908   0.06504   0.00000  Uiso   1.00
C300   C     0.94715   0.43375   0.06262   0.00000  Uiso   1.00
H301   H     0.93524   0.66395   0.25315   0.00000  Uiso   1.00
H302   H     0.87862   0.51512   0.41107   0.00000  Uiso   1.00
H303   H     0.84353   0.54762   0.28405   0.00000  Uiso   1.00
H304   H     0.90628   0.36556   0.01308   0.00000  Uiso   1.00
H305   H     0.99340   0.56788   0.42188   0.00000  Uiso   1.00
H306   H     0.78087   0.55261   0.07289   0.00000  Uiso   1.00
H307   H     0.69509   0.59031   0.02154   0.00000  Uiso   1.00
H308   H     0.73255   0.33603   0.25045   0.00000  Uiso   1.00
H309   H     0.72728   0.34531   0.06118   0.00000  Uiso   1.00
H310   H     0.76118   0.35837   0.16582   0.00000  Uiso   1.00
I311   I     0.80348   0.65490   0.43928   0.00000  Uiso   1.00
I312   I     0.89761   0.59261   0.08252   0.00000  Uiso   1.00
N313   N     0.81160   0.48556   0.23542   0.00000  Uiso   1.00
N314   N     0.85507   0.51444   0.26457   0.00000  Uiso   1.00
O315   O     0.96435   0.57963   0.25357   0.00000  Uiso   1.00
O316   O     0.73004   0.45239   0.08492   0.00000  Uiso   1.00
O317   O     0.69044   0.35399   0.07096   0.00000  Uiso   1.00
O318   O     0.85481   0.42692   0.16076   0.00000  Uiso   1.00
O319   O     0.84521   0.38788   0.24607   0.00000  Uiso   1.00
O320   O     0.75499   0.39601   0.17160   0.00000  Uiso   1.00
O321   O     0.88612   0.41126   0.39638   0.00000  Uiso   1.00
O322   O     0.79883   0.41495   0.32491   0.00000  Uiso   1.00
O323   O     0.85359   0.50321   0.37431   0.00000  Uiso   1.00
O324   O     0.72408   0.57038   0.24424   0.00000  Uiso   1.00
O325   O     0.98157   0.50691   0.33380   0.00000  Uiso   1.00
O326   O     0.74130   0.49766   0.32446   0.00000  Uiso   1.00
O327   O     0.94258   0.42962   0.25576   0.00000  Uiso   1.00
O328   O     0.70231   0.42037   0.24643   0.00000  Uiso   1.00
O329   O     0.92537   0.50234   0.17554   0.00000  Uiso   1.00
O330   O     0.68510   0.49309   0.16620   0.00000  Uiso   1.00
O331   O     0.68051   0.41546   0.49205   0.00000  Uiso   1.00
S332   S     0.68132   0.41526   0.05284   0.00000  Uiso   1.00
S333   S     0.81978   0.42419   0.20400   0.00000  Uiso   1.00
S334   S     0.83279   0.44033   0.37913   0.00000  Uiso   1.00
Zn335  Zn    0.93786   0.50618   0.25623   0.00000  Uiso   1.00
Zn336  Zn    0.72881   0.49382   0.24377   0.00000  Uiso   1.00
C337   C     0.01473   0.93137   0.24937   0.00000  Uiso   1.00
C338   C     0.05632   0.84424   0.41567   0.00000  Uiso   1.00
C339   C     0.02293   0.98596   0.25063   0.00000  Uiso   1.00
C340   C     0.03632   0.83574   0.35504   0.00000  Uiso   1.00
C341   C     0.31130   0.68085   0.25219   0.00000  Uiso   1.00
C342   C     0.31891   0.73534   0.25155   0.00000  Uiso   1.00
C343   C     0.29683   0.82917   0.14523   0.00000  Uiso   1.00
C344   C     0.23284   0.73712   0.03083   0.00000  Uiso   1.00
C345   C     0.27340   0.81720   0.08599   0.00000  Uiso   1.00
C346   C     0.02975   0.88182   0.44381   0.00000  Uiso   1.00
C347   C     0.05030   0.89579   0.00025   0.00000  Uiso   1.00
C348   C     0.12668   0.83689   0.00199   0.00000  Uiso   1.00
C349   C     0.09973   0.87500   0.02887   0.00000  Uiso   1.00
C350   C     0.10182   0.81788   0.44640   0.00000  Uiso   1.00
C351   C     0.17631   0.81364   0.02886   0.00000  Uiso   1.00
C352   C     0.18133   0.76017   0.01222   0.00000  Uiso   1.00
C353   C     0.14101   0.73618   0.46604   0.00000  Uiso   1.00
C354   C     0.12061   0.77030   0.42639   0.00000  Uiso   1.00
C355   C     0.22356   0.84241   0.06504   0.00000  Uiso   1.00
C356   C     0.28049   0.76708   0.06262   0.00000  Uiso   1.00
H357   H     0.26857   0.99728   0.25315   0.00000  Uiso   1.00
H358   H     0.21195   0.84845   0.41107   0.00000  Uiso   1.00
H359   H     0.17686   0.88095   0.28405   0.00000  Uiso   1.00
H360   H     0.23961   0.69889   0.01308   0.00000  Uiso   1.00
H361   H     0.32673   0.90121   0.42188   0.00000  Uiso   1.00
H362   H     0.11420   0.88595   0.07289   0.00000  Uiso   1.00
H363   H     0.02842   0.92364   0.02154   0.00000  Uiso   1.00
H364   H     0.06589   0.66936   0.25045   0.00000  Uiso   1.00
H365   H     0.06062   0.67864   0.06118   0.00000  Uiso   1.00
H366   H     0.09451   0.69170   0.16582   0.00000  Uiso   1.00
I367   I     0.13681   0.98823   0.43928   0.00000  Uiso   1.00
I368   I     0.23094   0.92594   0.08252   0.00000  Uiso   1.00
N369   N     0.14493   0.81890   0.23542   0.00000  Uiso   1.00
N370   N     0.18840   0.84777   0.26457   0.00000  Uiso   1.00
O371   O     0.29769   0.91296   0.25357   0.00000  Uiso   1.00
O372   O     0.06337   0.78572   0.08492   0.00000  Uiso   1.00
O373   O     0.02377   0.68732   0.07096   0.00000  Uiso   1.00
O374   O     0.18815   0.76026   0.16076   0.00000  Uiso   1.00
O375   O     0.17855   0.72121   0.24607   0.00000  Uiso   1.00
O376   O     0.08832   0.72935   0.17160   0.00000  Uiso   1.00
O377   O     0.21945   0.74460   0.39638   0.00000  Uiso   1.00
O378   O     0.13216   0.74829   0.32491   0.00000  Uiso   1.00
O379   O     0.18692   0.83654   0.37431   0.00000  Uiso   1.00
O380   O     0.05742   0.90371   0.24424   0.00000  Uiso   1.00
O381   O     0.31490   0.84024   0.33380   0.00000  Uiso   1.00
O382   O     0.07463   0.83099   0.32446   0.00000  Uiso   1.00
O383   O     0.27592   0.76296   0.25576   0.00000  Uiso   1.00
O384   O     0.03565   0.75371   0.24643   0.00000  Uiso   1.00
O385   O     0.25870   0.83567   0.17554   0.00000  Uiso   1.00
O386   O     0.01843   0.82642   0.16620   0.00000  Uiso   1.00
O387   O     0.01384   0.74879   0.49205   0.00000  Uiso   1.00
S388   S     0.01466   0.74860   0.05284   0.00000  Uiso   1.00
S389   S     0.15311   0.75753   0.20400   0.00000  Uiso   1.00
S390   S     0.16612   0.77366   0.37913   0.00000  Uiso   1.00
Zn391  Zn    0.27119   0.83951   0.25623   0.00000  Uiso   1.00
Zn392  Zn    0.06214   0.82716   0.24377   0.00000  Uiso   1.00
C393   C     0.34806   0.93137   0.24937   0.00000  Uiso   1.00
C394   C     0.38965   0.84424   0.41567   0.00000  Uiso   1.00
C395   C     0.35626   0.98596   0.25063   0.00000  Uiso   1.00
C396   C     0.36965   0.83574   0.35504   0.00000  Uiso   1.00
C397   C     0.64463   0.68085   0.25219   0.00000  Uiso   1.00
C398   C     0.65225   0.73534   0.25155   0.00000  Uiso   1.00
C399   C     0.63016   0.82917   0.14523   0.00000  Uiso   1.00
C400   C     0.56618   0.73712   0.03083   0.00000  Uiso   1.00
C401   C     0.60673   0.81720   0.08599   0.00000  Uiso   1.00
C402   C     0.36308   0.88182   0.44381   0.00000  Uiso   1.00
C403   C     0.38363   0.89579   0.00025   0.00000  Uiso   1.00
C404   C     0.46002   0.83689   0.00199   0.00000  Uiso   1.00
C405   C     0.43307   0.87500   0.02887   0.00000  Uiso   1.00
C406   C     0.43515   0.81788   0.44640   0.00000  Uiso   1.00
C407   C     0.50964   0.81364   0.02886   0.00000  Uiso   1.00
C408   C     0.51466   0.76017   0.01222   0.00000  Uiso   1.00
C409   C     0.47435   0.73618   0.46604   0.00000  Uiso   1.00
C410   C     0.45394   0.77030   0.42639   0.00000  Uiso   1.00
C411   C     0.55689   0.84241   0.06504   0.00000  Uiso   1.00
C412   C     0.61382   0.76708   0.06262   0.00000  Uiso   1.00
H413   H     0.60190   0.99728   0.25315   0.00000  Uiso   1.00
H414   H     0.54529   0.84845   0.41107   0.00000  Uiso   1.00
H415   H     0.51020   0.88095   0.28405   0.00000  Uiso   1.00
H416   H     0.57295   0.69889   0.01308   0.00000  Uiso   1.00
H417   H     0.66006   0.90121   0.42188   0.00000  Uiso   1.00
H418   H     0.44754   0.88595   0.07289   0.00000  Uiso   1.00
H419   H     0.36175   0.92364   0.02154   0.00000  Uiso   1.00
H420   H     0.39922   0.66936   0.25045   0.00000  Uiso   1.00
H421   H     0.39395   0.67864   0.06118   0.00000  Uiso   1.00
H422   H     0.42784   0.69170   0.16582   0.00000  Uiso   1.00
I423   I     0.47014   0.98823   0.43928   0.00000  Uiso   1.00
I424   I     0.56428   0.92594   0.08252   0.00000  Uiso   1.00
N425   N     0.47827   0.81890   0.23542   0.00000  Uiso   1.00
N426   N     0.52173   0.84777   0.26457   0.00000  Uiso   1.00
O427   O     0.63102   0.91296   0.25357   0.00000  Uiso   1.00
O428   O     0.39670   0.78572   0.08492   0.00000  Uiso   1.00
O429   O     0.35711   0.68732   0.07096   0.00000  Uiso   1.00
O430   O     0.52148   0.76026   0.16076   0.00000  Uiso   1.00
O431   O     0.51188   0.72121   0.24607   0.00000  Uiso   1.00
O432   O     0.42165   0.72935   0.17160   0.00000  Uiso   1.00
O433   O     0.55279   0.74460   0.39638   0.00000  Uiso   1.00
O434   O     0.46550   0.74829   0.32491   0.00000  Uiso   1.00
O435   O     0.52026   0.83654   0.37431   0.00000  Uiso   1.00
O436   O     0.39075   0.90371   0.24424   0.00000  Uiso   1.00
O437   O     0.64823   0.84024   0.33380   0.00000  Uiso   1.00
O438   O     0.40796   0.83099   0.32446   0.00000  Uiso   1.00
O439   O     0.60925   0.76296   0.25576   0.00000  Uiso   1.00
O440   O     0.36898   0.75371   0.24643   0.00000  Uiso   1.00
O441   O     0.59204   0.83567   0.17554   0.00000  Uiso   1.00
O442   O     0.35177   0.82642   0.16620   0.00000  Uiso   1.00
O443   O     0.34717   0.74879   0.49205   0.00000  Uiso   1.00
S444   S     0.34799   0.74860   0.05284   0.00000  Uiso   1.00
S445   S     0.48644   0.75753   0.20400   0.00000  Uiso   1.00
S446   S     0.49946   0.77366   0.37913   0.00000  Uiso   1.00
Zn447  Zn    0.60453   0.83951   0.25623   0.00000  Uiso   1.00
Zn448  Zn    0.39547   0.82716   0.24377   0.00000  Uiso   1.00
C449   C     0.68139   0.93137   0.24937   0.00000  Uiso   1.00
C450   C     0.72299   0.84424   0.41567   0.00000  Uiso   1.00
C451   C     0.68960   0.98596   0.25063   0.00000  Uiso   1.00
C452   C     0.70298   0.83574   0.35504   0.00000  Uiso   1.00
C453   C     0.97797   0.68085   0.25219   0.00000  Uiso   1.00
C454   C     0.98558   0.73534   0.25155   0.00000  Uiso   1.00
C455   C     0.96350   0.82917   0.14523   0.00000  Uiso   1.00
C456   C     0.89951   0.73712   0.03083   0.00000  Uiso   1.00
C457   C     0.94006   0.81720   0.08599   0.00000  Uiso   1.00
C458   C     0.69641   0.88182   0.44381   0.00000  Uiso   1.00
C459   C     0.71696   0.89579   0.00025   0.00000  Uiso   1.00
C460   C     0.79335   0.83689   0.00199   0.00000  Uiso   1.00
C461   C     0.76640   0.87500   0.02887   0.00000  Uiso   1.00
C462   C     0.76848   0.81788   0.44640   0.00000  Uiso   1.00
C463   C     0.84298   0.81364   0.02886   0.00000  Uiso   1.00
C464   C     0.84799   0.76017   0.01222   0.00000  Uiso   1.00
C465   C     0.80768   0.73618   0.46604   0.00000  Uiso   1.00
C466   C     0.78728   0.77030   0.42639   0.00000  Uiso   1.00
C467   C     0.89022   0.84241   0.06504   0.00000  Uiso   1.00
C468   C     0.94715   0.76708   0.06262   0.00000  Uiso   1.00
H469   H     0.93524   0.99728   0.25315   0.00000  Uiso   1.00
H470   H     0.87862   0.84845   0.41107   0.00000  Uiso   1.00
H471   H     0.84353   0.88095   0.28405   0.00000  Uiso   1.00
H472   H     0.90628   0.69889   0.01308   0.00000  Uiso   1.00
H473   H     0.99340   0.90121   0.42188   0.00000  Uiso   1.00
H474   H     0.78087   0.88595   0.07289   0.00000  Uiso   1.00
H475   H     0.69509   0.92364   0.02154   0.00000  Uiso   1.00
H476   H     0.73255   0.66936   0.25045   0.00000  Uiso   1.00
H477   H     0.72728   0.67864   0.06118   0.00000  Uiso   1.00
H478   H     0.76118   0.69170   0.16582   0.00000  Uiso   1.00
I479   I     0.80348   0.98823   0.43928   0.00000  Uiso   1.00
I480   I     0.89761   0.92594   0.08252   0.00000  Uiso   1.00
N481   N     0.81160   0.81890   0.23542   0.00000  Uiso   1.00
N482   N     0.85507   0.84777   0.26457   0.00000  Uiso   1.00
O483   O     0.96435   0.91296   0.25357   0.00000  Uiso   1.00
O484   O     0.73004   0.78572   0.08492   0.00000  Uiso   1.00
O485   O     0.69044   0.68732   0.07096   0.00000  Uiso   1.00
O486   O     0.85481   0.76026   0.16076   0.00000  Uiso   1.00
O487   O     0.84521   0.72121   0.24607   0.00000  Uiso   1.00
O488   O     0.75499   0.72935   0.17160   0.00000  Uiso   1.00
O489   O     0.88612   0.74460   0.39638   0.00000  Uiso   1.00
O490   O     0.79883   0.74829   0.32491   0.00000  Uiso   1.00
O491   O     0.85359   0.83654   0.37431   0.00000  Uiso   1.00
O492   O     0.72408   0.90371   0.24424   0.00000  Uiso   1.00
O493   O     0.98157   0.84024   0.33380   0.00000  Uiso   1.00
O494   O     0.74130   0.83099   0.32446   0.00000  Uiso   1.00
O495   O     0.94258   0.76296   0.25576   0.00000  Uiso   1.00
O496   O     0.70231   0.75371   0.24643   0.00000  Uiso   1.00
O497   O     0.92537   0.83567   0.17554   0.00000  Uiso   1.00
O498   O     0.68510   0.82642   0.16620   0.00000  Uiso   1.00
O499   O     0.68051   0.74879   0.49205   0.00000  Uiso   1.00
S500   S     0.68132   0.74860   0.05284   0.00000  Uiso   1.00
S501   S     0.81978   0.75753   0.20400   0.00000  Uiso   1.00
S502   S     0.83279   0.77366   0.37913   0.00000  Uiso   1.00
Zn503  Zn    0.93786   0.83951   0.25623   0.00000  Uiso   1.00
Zn504  Zn    0.72881   0.82716   0.24377   0.00000  Uiso   1.00
C505   C     0.01473   0.26470   0.74937   0.00000  Uiso   1.00
C506   C     0.05632   0.17758   0.91567   0.00000  Uiso   1.00
C507   C     0.02293   0.31929   0.75063   0.00000  Uiso   1.00
C508   C     0.03632   0.16907   0.85504   0.00000  Uiso   1.00
C509   C     0.31130   0.01418   0.75219   0.00000  Uiso   1.00
C510   C     0.31891   0.06868   0.75155   0.00000  Uiso   1.00
C511   C     0.29683   0.16250   0.64523   0.00000  Uiso   1.00
C512   C     0.23284   0.07045   0.53083   0.00000  Uiso   1.00
C513   C     0.27340   0.15053   0.58599   0.00000  Uiso   1.00
C514   C     0.02975   0.21515   0.94381   0.00000  Uiso   1.00
C515   C     0.05030   0.22912   0.50025   0.00000  Uiso   1.00
C516   C     0.12668   0.17023   0.50199   0.00000  Uiso   1.00
C517   C     0.09973   0.20833   0.52887   0.00000  Uiso   1.00
C518   C     0.10182   0.15122   0.94640   0.00000  Uiso   1.00
C519   C     0.17631   0.14697   0.52886   0.00000  Uiso   1.00
C520   C     0.18133   0.09350   0.51222   0.00000  Uiso   1.00
C521   C     0.14101   0.06951   0.96604   0.00000  Uiso   1.00
C522   C     0.12061   0.10363   0.92639   0.00000  Uiso   1.00
C523   C     0.22356   0.17574   0.56504   0.00000  Uiso   1.00
C524   C     0.28049   0.10042   0.56262   0.00000  Uiso   1.00
H525   H     0.26857   0.33062   0.75315   0.00000  Uiso   1.00
H526   H     0.21195   0.18179   0.91107   0.00000  Uiso   1.00
H527   H     0.17686   0.21429   0.78405   0.00000  Uiso   1.00
H528   H     0.23961   0.03223   0.51308   0.00000  Uiso   1.00
H529   H     0.32673   0.23454   0.92188   0.00000  Uiso   1.00
H530   H     0.11420   0.21928   0.57289   0.00000  Uiso   1.00
H531   H     0.02842   0.25697   0.52154   0.00000  Uiso   1.00
H532   H     0.06589   0.00269   0.75045   0.00000  Uiso   1.00
H533   H     0.06062   0.01198   0.56118   0.00000  Uiso   1.00
H534   H     0.09451   0.02503   0.66582   0.00000  Uiso   1.00
I535   I     0.13681   0.32156   0.93928   0.00000  Uiso   1.00
I536   I     0.23094   0.25927   0.58252   0.00000  Uiso   1.00
N537   N     0.14493   0.15223   0.73542   0.00000  Uiso   1.00
N538   N     0.18840   0.18110   0.76457   0.00000  Uiso   1.00
O539   O     0.29769   0.24629   0.75357   0.00000  Uiso   1.00
O540   O     0.06337   0.11906   0.58492   0.00000  Uiso   1.00
O541   O     0.02377   0.02066   0.57096   0.00000  Uiso   1.00
O542   O     0.18815   0.09359   0.66076   0.00000  Uiso   1.00
O543   O     0.17855   0.05455   0.74607   0.00000  Uiso   1.00
O544   O     0.08832   0.06268   0.67160   0.00000  Uiso   1.00
O545   O     0.21945   0.07793   0.89638   0.00000  Uiso   1.00
O546   O     0.13216   0.08162   0.82491   0.00000  Uiso   1.00
O547   O     0.18692   0.16987   0.87431   0.00000  Uiso   1.00
O548   O     0.05742   0.23704   0.74424   0.00000  Uiso   1.00
O549   O     0.31490   0.17358   0.83380   0.00000  Uiso   1.00
O550   O     0.07463   0.16433   0.82446   0.00000  Uiso   1.00
O551   O     0.27592   0.09629   0.75576   0.00000  Uiso   1.00
O552   O     0.03565   0.08704   0.74643   0.00000  Uiso   1.00
O553   O     0.25870   0.16901   0.67554   0.00000  Uiso   1.00
O554   O     0.01843   0.15976   0.66620   0.00000  Uiso   1.00
O555   O     0.01384   0.08213   0.99205   0.00000  Uiso   1.00
S556   S     0.01466   0.08193   0.55284   0.00000  Uiso   1.00
S557   S     0.15311   0.09086   0.70400   0.00000  Uiso   1.00
S558   S     0.16612   0.10700   0.87913   0.00000  Uiso   1.00
Zn559  Zn    0.27119   0.17284   0.75623   0.00000  Uiso   1.00
Zn560  Zn    0.06214   0.16049   0.74377   0.00000  Uiso   1.00
C561   C     0.34806   0.26470   0.74937   0.00000  Uiso   1.00
C562   C     0.38965   0.17758   0.91567   0.00000  Uiso   1.00
C563   C     0.35626   0.31929   0.75063   0.00000  Uiso   1.00
C564   C     0.36965   0.16907   0.85504   0.00000  Uiso   1.00
C565   C     0.64463   0.01418   0.75219   0.00000  Uiso   1.00
C566   C     0.65225   0.06868   0.75155   0.00000  Uiso   1.00
C567   C     0.63016   0.16250   0.64523   0.00000  Uiso   1.00
C568   C     0.56618   0.07045   0.53083   0.00000  Uiso   1.00
C569   C     0.60673   0.15053   0.58599   0.00000  Uiso   1.00
C570   C     0.36308   0.21515   0.94381   0.00000  Uiso   1.00
C571   C     0.38363   0.22912   0.50025   0.00000  Uiso   1.00
C572   C     0.46002   0.17023   0.50199   0.00000  Uiso   1.00
C573   C     0.43307   0.20833   0.52887   0.00000  Uiso   1.00
C574   C     0.43515   0.15122   0.94640   0.00000  Uiso   1.00
C575   C     0.50964   0.14697   0.52886   0.00000  Uiso   1.00
C576   C     0.51466   0.09350   0.51222   0.00000  Uiso   1.00
C577   C     0.47435   0.06951   0.96604   0.00000  Uiso   1.00
C578   C     0.45394   0.10363   0.92639   0.00000  Uiso   1.00
C579   C     0.55689   0.17574   0.56504   0.00000  Uiso   1.00
C580   C     0.61382   0.10042   0.56262   0.00000  Uiso   1.00
H581   H     0.60190   0.33062   0.75315   0.00000  Uiso   1.00
H582   H     0.54529   0.18179   0.91107   0.00000  Uiso   1.00
H583   H     0.51020   0.21429   0.78405   0.00000  Uiso   1.00
H584   H     0.57295   0.03223   0.51308   0.00000  Uiso   1.00
H585   H     0.66006   0.23454   0.92188   0.00000  Uiso   1.00
H586   H     0.44754   0.21928   0.57289   0.00000  Uiso   1.00
H587   H     0.36175   0.25697   0.52154   0.00000  Uiso   1.00
H588   H     0.39922   0.00269   0.75045   0.00000  Uiso   1.00
H589   H     0.39395   0.01198   0.56118   0.00000  Uiso   1.00
H590   H     0.42784   0.02503   0.66582   0.00000  Uiso   1.00
I591   I     0.47014   0.32156   0.93928   0.00000  Uiso   1.00
I592   I     0.56428   0.25927   0.58252   0.00000  Uiso   1.00
N593   N     0.47827   0.15223   0.73542   0.00000  Uiso   1.00
N594   N     0.52173   0.18110   0.76457   0.00000  Uiso   1.00
O595   O     0.63102   0.24629   0.75357   0.00000  Uiso   1.00
O596   O     0.39670   0.11906   0.58492   0.00000  Uiso   1.00
O597   O     0.35711   0.02066   0.57096   0.00000  Uiso   1.00
O598   O     0.52148   0.09359   0.66076   0.00000  Uiso   1.00
O599   O     0.51188   0.05455   0.74607   0.00000  Uiso   1.00
O600   O     0.42165   0.06268   0.67160   0.00000  Uiso   1.00
O601   O     0.55279   0.07793   0.89638   0.00000  Uiso   1.00
O602   O     0.46550   0.08162   0.82491   0.00000  Uiso   1.00
O603   O     0.52026   0.16987   0.87431   0.00000  Uiso   1.00
O604   O     0.39075   0.23704   0.74424   0.00000  Uiso   1.00
O605   O     0.64823   0.17358   0.83380   0.00000  Uiso   1.00
O606   O     0.40796   0.16433   0.82446   0.00000  Uiso   1.00
O607   O     0.60925   0.09629   0.75576   0.00000  Uiso   1.00
O608   O     0.36898   0.08704   0.74643   0.00000  Uiso   1.00
O609   O     0.59204   0.16901   0.67554   0.00000  Uiso   1.00
O610   O     0.35177   0.15976   0.66620   0.00000  Uiso   1.00
O611   O     0.34717   0.08213   0.99205   0.00000  Uiso   1.00
S612   S     0.34799   0.08193   0.55284   0.00000  Uiso   1.00
S613   S     0.48644   0.09086   0.70400   0.00000  Uiso   1.00
S614   S     0.49946   0.10700   0.87913   0.00000  Uiso   1.00
Zn615  Zn    0.60453   0.17284   0.75623   0.00000  Uiso   1.00
Zn616  Zn    0.39547   0.16049   0.74377   0.00000  Uiso   1.00
C617   C     0.68139   0.26470   0.74937   0.00000  Uiso   1.00
C618   C     0.72299   0.17758   0.91567   0.00000  Uiso   1.00
C619   C     0.68960   0.31929   0.75063   0.00000  Uiso   1.00
C620   C     0.70298   0.16907   0.85504   0.00000  Uiso   1.00
C621   C     0.97797   0.01418   0.75219   0.00000  Uiso   1.00
C622   C     0.98558   0.06868   0.75155   0.00000  Uiso   1.00
C623   C     0.96350   0.16250   0.64523   0.00000  Uiso   1.00
C624   C     0.89951   0.07045   0.53083   0.00000  Uiso   1.00
C625   C     0.94006   0.15053   0.58599   0.00000  Uiso   1.00
C626   C     0.69641   0.21515   0.94381   0.00000  Uiso   1.00
C627   C     0.71696   0.22912   0.50025   0.00000  Uiso   1.00
C628   C     0.79335   0.17023   0.50199   0.00000  Uiso   1.00
C629   C     0.76640   0.20833   0.52887   0.00000  Uiso   1.00
C630   C     0.76848   0.15122   0.94640   0.00000  Uiso   1.00
C631   C     0.84298   0.14697   0.52886   0.00000  Uiso   1.00
C632   C     0.84799   0.09350   0.51222   0.00000  Uiso   1.00
C633   C     0.80768   0.06951   0.96604   0.00000  Uiso   1.00
C634   C     0.78728   0.10363   0.92639   0.00000  Uiso   1.00
C635   C     0.89022   0.17574   0.56504   0.00000  Uiso   1.00
C636   C     0.94715   0.10042   0.56262   0.00000  Uiso   1.00
H637   H     0.93524   0.33062   0.75315   0.00000  Uiso   1.00
H638   H     0.87862   0.18179   0.91107   0.00000  Uiso   1.00
H639   H     0.84353   0.21429   0.78405   0.00000  Uiso   1.00
H640   H     0.90628   0.03223   0.51308   0.00000  Uiso   1.00
H641   H     0.99340   0.23454   0.92188   0.00000  Uiso   1.00
H642   H     0.78087   0.21928   0.57289   0.00000  Uiso   1.00
H643   H     0.69509   0.25697   0.52154   0.00000  Uiso   1.00
H644   H     0.73255   0.00269   0.75045   0.00000  Uiso   1.00
H645   H     0.72728   0.01198   0.56118   0.00000  Uiso   1.00
H646   H     0.76118   0.02503   0.66582   0.00000  Uiso   1.00
I647   I     0.80348   0.32156   0.93928   0.00000  Uiso   1.00
I648   I     0.89761   0.25927   0.58252   0.00000  Uiso   1.00
N649   N     0.81160   0.15223   0.73542   0.00000  Uiso   1.00
N650   N     0.85507   0.18110   0.76457   0.00000  Uiso   1.00
O651   O     0.96435   0.24629   0.75357   0.00000  Uiso   1.00
O652   O     0.73004   0.11906   0.58492   0.00000  Uiso   1.00
O653   O     0.69044   0.02066   0.57096   0.00000  Uiso   1.00
O654   O     0.85481   0.09359   0.66076   0.00000  Uiso   1.00
O655   O     0.84521   0.05455   0.74607   0.00000  Uiso   1.00
O656   O     0.75499   0.06268   0.67160   0.00000  Uiso   1.00
O657   O     0.88612   0.07793   0.89638   0.00000  Uiso   1.00
O658   O     0.79883   0.08162   0.82491   0.00000  Uiso   1.00
O659   O     0.85359   0.16987   0.87431   0.00000  Uiso   1.00
O660   O     0.72408   0.23704   0.74424   0.00000  Uiso   1.00
O661   O     0.98157   0.17358   0.83380   0.00000  Uiso   1.00
O662   O     0.74130   0.16433   0.82446   0.00000  Uiso   1.00
O663   O     0.94258   0.09629   0.75576   0.00000  Uiso   1.00
O664   O     0.70231   0.08704   0.74643   0.00000  Uiso   1.00
O665   O     0.92537   0.16901   0.67554   0.00000  Uiso   1.00
O666   O     0.68510   0.15976   0.66620   0.00000  Uiso   1.00
O667   O     0.68051   0.08213   0.99205   0.00000  Uiso   1.00
S668   S     0.68132   0.08193   0.55284   0.00000  Uiso   1.00
S669   S     0.81978   0.09086   0.70400   0.00000  Uiso   1.00
S670   S     0.83279   0.10700   0.87913   0.00000  Uiso   1.00
Zn671  Zn    0.93786   0.17284   0.75623   0.00000  Uiso   1.00
Zn672  Zn    0.72881   0.16049   0.74377   0.00000  Uiso   1.00
C673   C     0.01473   0.59804   0.74937   0.00000  Uiso   1.00
C674   C     0.05632   0.51091   0.91567   0.00000  Uiso   1.00
C675   C     0.02293   0.65263   0.75063   0.00000  Uiso   1.00
C676   C     0.03632   0.50241   0.85504   0.00000  Uiso   1.00
C677   C     0.31130   0.34751   0.75219   0.00000  Uiso   1.00
C678   C     0.31891   0.40201   0.75155   0.00000  Uiso   1.00
C679   C     0.29683   0.49583   0.64523   0.00000  Uiso   1.00
C680   C     0.23284   0.40378   0.53083   0.00000  Uiso   1.00
C681   C     0.27340   0.48386   0.58599   0.00000  Uiso   1.00
C682   C     0.02975   0.54848   0.94381   0.00000  Uiso   1.00
C683   C     0.05030   0.56246   0.50025   0.00000  Uiso   1.00
C684   C     0.12668   0.50356   0.50199   0.00000  Uiso   1.00
C685   C     0.09973   0.54167   0.52887   0.00000  Uiso   1.00
C686   C     0.10182   0.48455   0.94640   0.00000  Uiso   1.00
C687   C     0.17631   0.48031   0.52886   0.00000  Uiso   1.00
C688   C     0.18133   0.42683   0.51222   0.00000  Uiso   1.00
C689   C     0.14101   0.40285   0.96604   0.00000  Uiso   1.00
C690   C     0.12061   0.43696   0.92639   0.00000  Uiso   1.00
C691   C     0.22356   0.50908   0.56504   0.00000  Uiso   1.00
C692   C     0.28049   0.43375   0.56262   0.00000  Uiso   1.00
H693   H     0.26857   0.66395   0.75315   0.00000  Uiso   1.00
H694   H     0.21195   0.51512   0.91107   0.00000  Uiso   1.00
H695   H     0.17686   0.54762   0.78405   0.00000  Uiso   1.00
H696   H     0.23961   0.36556   0.51308   0.00000  Uiso   1.00
H697   H     0.32673   0.56788   0.92188   0.00000  Uiso   1.00
H698   H     0.11420   0.55261   0.57289   0.00000  Uiso   1.00
H699   H     0.02842   0.59031   0.52154   0.00000  Uiso   1.00
H700   H     0.06589   0.33603   0.75045   0.00000  Uiso   1.00
H701   H     0.06062   0.34531   0.56118   0.00000  Uiso   1.00
H702   H     0.09451   0.35837   0.66582   0.00000  Uiso   1.00
I703   I     0.13681   0.65490   0.93928   0.00000  Uiso   1.00
I704   I     0.23094   0.59261   0.58252   0.00000  Uiso   1.00
N705   N     0.14493   0.48556   0.73542   0.00000  Uiso   1.00
N706   N     0.18840   0.51444   0.76457   0.00000  Uiso   1.00
O707   O     0.29769   0.57963   0.75357   0.00000  Uiso   1.00
O708   O     0.06337   0.45239   0.58492   0.00000  Uiso   1.00
O709   O     0.02377   0.35399   0.57096   0.00000  Uiso   1.00
O710   O     0.18815   0.42692   0.66076   0.00000  Uiso   1.00
O711   O     0.17855   0.38788   0.74607   0.00000  Uiso   1.00
O712   O     0.08832   0.39601   0.67160   0.00000  Uiso   1.00
O713   O     0.21945   0.41126   0.89638   0.00000  Uiso   1.00
O714   O     0.13216   0.41495   0.82491   0.00000  Uiso   1.00
O715   O     0.18692   0.50321   0.87431   0.00000  Uiso   1.00
O716   O     0.05742   0.57038   0.74424   0.00000  Uiso   1.00
O717   O     0.31490   0.50691   0.83380   0.00000  Uiso   1.00
O718   O     0.07463   0.49766   0.82446   0.00000  Uiso   1.00
O719   O     0.27592   0.42962   0.75576   0.00000  Uiso   1.00
O720   O     0.03565   0.42037   0.74643   0.00000  Uiso   1.00
O721   O     0.25870   0.50234   0.67554   0.00000  Uiso   1.00
O722   O     0.01843   0.49309   0.66620   0.00000  Uiso   1.00
O723   O     0.01384   0.41546   0.99205   0.00000  Uiso   1.00
S724   S     0.01466   0.41526   0.55284   0.00000  Uiso   1.00
S725   S     0.15311   0.42419   0.70400   0.00000  Uiso   1.00
S726   S     0.16612   0.44033   0.87913   0.00000  Uiso   1.00
Zn727  Zn    0.27119   0.50618   0.75623   0.00000  Uiso   1.00
Zn728  Zn    0.06214   0.49382   0.74377   0.00000  Uiso   1.00
C729   C     0.34806   0.59804   0.74937   0.00000  Uiso   1.00
C730   C     0.38965   0.51091   0.91567   0.00000  Uiso   1.00
C731   C     0.35626   0.65263   0.75063   0.00000  Uiso   1.00
C732   C     0.36965   0.50241   0.85504   0.00000  Uiso   1.00
C733   C     0.64463   0.34751   0.75219   0.00000  Uiso   1.00
C734   C     0.65225   0.40201   0.75155   0.00000  Uiso   1.00
C735   C     0.63016   0.49583   0.64523   0.00000  Uiso   1.00
C736   C     0.56618   0.40378   0.53083   0.00000  Uiso   1.00
C737   C     0.60673   0.48386   0.58599   0.00000  Uiso   1.00
C738   C     0.36308   0.54848   0.94381   0.00000  Uiso   1.00
C739   C     0.38363   0.56246   0.50025   0.00000  Uiso   1.00
C740   C     0.46002   0.50356   0.50199   0.00000  Uiso   1.00
C741   C     0.43307   0.54167   0.52887   0.00000  Uiso   1.00
C742   C     0.43515   0.48455   0.94640   0.00000  Uiso   1.00
C743   C     0.50964   0.48031   0.52886   0.00000  Uiso   1.00
C744   C     0.51466   0.42683   0.51222   0.00000  Uiso   1.00
C745   C     0.47435   0.40285   0.96604   0.00000  Uiso   1.00
C746   C     0.45394   0.43696   0.92639   0.00000  Uiso   1.00
C747   C     0.55689   0.50908   0.56504   0.00000  Uiso   1.00
C748   C     0.61382   0.43375   0.56262   0.00000  Uiso   1.00
H749   H     0.60190   0.66395   0.75315   0.00000  Uiso   1.00
H750   H     0.54529   0.51512   0.91107   0.00000  Uiso   1.00
H751   H     0.51020   0.54762   0.78405   0.00000  Uiso   1.00
H752   H     0.57295   0.36556   0.51308   0.00000  Uiso   1.00
H753   H     0.66006   0.56788   0.92188   0.00000  Uiso   1.00
H754   H     0.44754   0.55261   0.57289   0.00000  Uiso   1.00
H755   H     0.36175   0.59031   0.52154   0.00000  Uiso   1.00
H756   H     0.39922   0.33603   0.75045   0.00000  Uiso   1.00
H757   H     0.39395   0.34531   0.56118   0.00000  Uiso   1.00
H758   H     0.42784   0.35837   0.66582   0.00000  Uiso   1.00
I759   I     0.47014   0.65490   0.93928   0.00000  Uiso   1.00
I760   I     0.56428   0.59261   0.58252   0.00000  Uiso   1.00
N761   N     0.47827   0.48556   0.73542   0.00000  Uiso   1.00
N762   N     0.52173   0.51444   0.76457   0.00000  Uiso   1.00
O763   O     0.63102   0.57963   0.75357   0.00000  Uiso   1.00
O764   O     0.39670   0.45239   0.58492   0.00000  Uiso   1.00
O765   O     0.35711   0.35399   0.57096   0.00000  Uiso   1.00
O766   O     0.52148   0.42692   0.66076   0.00000  Uiso   1.00
O767   O     0.51188   0.38788   0.74607   0.00000  Uiso   1.00
O768   O     0.42165   0.39601   0.67160   0.00000  Uiso   1.00
O769   O     0.55279   0.41126   0.89638   0.00000  Uiso   1.00
O770   O     0.46550   0.41495   0.82491   0.00000  Uiso   1.00
O771   O     0.52026   0.50321   0.87431   0.00000  Uiso   1.00
O772   O     0.39075   0.57038   0.74424   0.00000  Uiso   1.00
O773   O     0.64823   0.50691   0.83380   0.00000  Uiso   1.00
O774   O     0.40796   0.49766   0.82446   0.00000  Uiso   1.00
O775   O     0.60925   0.42962   0.75576   0.00000  Uiso   1.00
O776   O     0.36898   0.42037   0.74643   0.00000  Uiso   1.00
O777   O     0.59204   0.50234   0.67554   0.00000  Uiso   1.00
O778   O     0.35177   0.49309   0.66620   0.00000  Uiso   1.00
O779   O     0.34717   0.41546   0.99205   0.00000  Uiso   1.00
S780   S     0.34799   0.41526   0.55284   0.00000  Uiso   1.00
S781   S     0.48644   0.42419   0.70400   0.00000  Uiso   1.00
S782   S     0.49946   0.44033   0.87913   0.00000  Uiso   1.00
Zn783  Zn    0.60453   0.50618   0.75623   0.00000  Uiso   1.00
Zn784  Zn    0.39547   0.49382   0.74377   0.00000  Uiso   1.00
C785   C     0.68139   0.59804   0.74937   0.00000  Uiso   1.00
C786   C     0.72299   0.51091   0.91567   0.00000  Uiso   1.00
C787   C     0.68960   0.65263   0.75063   0.00000  Uiso   1.00
C788   C     0.70298   0.50241   0.85504   0.00000  Uiso   1.00
C789   C     0.97797   0.34751   0.75219   0.00000  Uiso   1.00
C790   C     0.98558   0.40201   0.75155   0.00000  Uiso   1.00
C791   C     0.96350   0.49583   0.64523   0.00000  Uiso   1.00
C792   C     0.89951   0.40378   0.53083   0.00000  Uiso   1.00
C793   C     0.94006   0.48386   0.58599   0.00000  Uiso   1.00
C794   C     0.69641   0.54848   0.94381   0.00000  Uiso   1.00
C795   C     0.71696   0.56246   0.50025   0.00000  Uiso   1.00
C796   C     0.79335   0.50356   0.50199   0.00000  Uiso   1.00
C797   C     0.76640   0.54167   0.52887   0.00000  Uiso   1.00
C798   C     0.76848   0.48455   0.94640   0.00000  Uiso   1.00
C799   C     0.84298   0.48031   0.52886   0.00000  Uiso   1.00
C800   C     0.84799   0.42683   0.51222   0.00000  Uiso   1.00
C801   C     0.80768   0.40285   0.96604   0.00000  Uiso   1.00
C802   C     0.78728   0.43696   0.92639   0.00000  Uiso   1.00
C803   C     0.89022   0.50908   0.56504   0.00000  Uiso   1.00
C804   C     0.94715   0.43375   0.56262   0.00000  Uiso   1.00
H805   H     0.93524   0.66395   0.75315   0.00000  Uiso   1.00
H806   H     0.87862   0.51512   0.91107   0.00000  Uiso   1.00
H807   H     0.84353   0.54762   0.78405   0.00000  Uiso   1.00
H808   H     0.90628   0.36556   0.51308   0.00000  Uiso   1.00
H809   H     0.99340   0.56788   0.92188   0.00000  Uiso   1.00
H810   H     0.78087   0.55261   0.57289   0.00000  Uiso   1.00
H811   H     0.69509   0.59031   0.52154   0.00000  Uiso   1.00
H812   H     0.73255   0.33603   0.75045   0.00000  Uiso   1.00
H813   H     0.72728   0.34531   0.56118   0.00000  Uiso   1.00
H814   H     0.76118   0.35837   0.66582   0.00000  Uiso   1.00
I815   I     0.80348   0.65490   0.93928   0.00000  Uiso   1.00
I816   I     0.89761   0.59261   0.58252   0.00000  Uiso   1.00
N817   N     0.81160   0.48556   0.73542   0.00000  Uiso   1.00
N818   N     0.85507   0.51444   0.76457   0.00000  Uiso   1.00
O819   O     0.96435   0.57963   0.75357   0.00000  Uiso   1.00
O820   O     0.73004   0.45239   0.58492   0.00000  Uiso   1.00
O821   O     0.69044   0.35399   0.57096   0.00000  Uiso   1.00
O822   O     0.85481   0.42692   0.66076   0.00000  Uiso   1.00
O823   O     0.84521   0.38788   0.74607   0.00000  Uiso   1.00
O824   O     0.75499   0.39601   0.67160   0.00000  Uiso   1.00
O825   O     0.88612   0.41126   0.89638   0.00000  Uiso   1.00
O826   O     0.79883   0.41495   0.82491   0.00000  Uiso   1.00
O827   O     0.85359   0.50321   0.87431   0.00000  Uiso   1.00
O828   O     0.72408   0.57038   0.74424   0.00000  Uiso   1.00
O829   O     0.98157   0.50691   0.83380   0.00000  Uiso   1.00
O830   O     0.74130   0.49766   0.82446   0.00000  Uiso   1.00
O831   O     0.94258   0.42962   0.75576   0.00000  Uiso   1.00
O832   O     0.70231   0.42037   0.74643   0.00000  Uiso   1.00
O833   O     0.92537   0.50234   0.67554   0.00000  Uiso   1.00
O834   O     0.68510   0.49309   0.66620   0.00000  Uiso   1.00
O835   O     0.68051   0.41546   0.99205   0.00000  Uiso   1.00
S836   S     0.68132   0.41526   0.55284   0.00000  Uiso   1.00
S837   S     0.81978   0.42419   0.70400   0.00000  Uiso   1.00
S838   S     0.83279   0.44033   0.87913   0.00000  Uiso   1.00
Zn839  Zn    0.93786   0.50618   0.75623   0.00000  Uiso   1.00
Zn840  Zn    0.72881   0.49382   0.74377   0.00000  Uiso   1.00
C841   C     0.01473   0.93137   0.74937   0.00000  Uiso   1.00
C842   C     0.05632   0.84424   0.91567   0.00000  Uiso   1.00
C843   C     0.02293   0.98596   0.75063   0.00000  Uiso   1.00
C844   C     0.03632   0.83574   0.85504   0.00000  Uiso   1.00
C845   C     0.31130   0.68085   0.75219   0.00000  Uiso   1.00
C846   C     0.31891   0.73534   0.75155   0.00000  Uiso   1.00
C847   C     0.29683   0.82917   0.64523   0.00000  Uiso   1.00
C848   C     0.23284   0.73712   0.53083   0.00000  Uiso   1.00
C849   C     0.27340   0.81720   0.58599   0.00000  Uiso   1.00
C850   C     0.02975   0.88182   0.94381   0.00000  Uiso   1.00
C851   C     0.05030   0.89579   0.50025   0.00000  Uiso   1.00
C852   C     0.12668   0.83689   0.50199   0.00000  Uiso   1.00
C853   C     0.09973   0.87500   0.52887   0.00000  Uiso   1.00
C854   C     0.10182   0.81788   0.94640   0.00000  Uiso   1.00
C855   C     0.17631   0.81364   0.52886   0.00000  Uiso   1.00
C856   C     0.18133   0.76017   0.51222   0.00000  Uiso   1.00
C857   C     0.14101   0.73618   0.96604   0.00000  Uiso   1.00
C858   C     0.12061   0.77030   0.92639   0.00000  Uiso   1.00
C859   C     0.22356   0.84241   0.56504   0.00000  Uiso   1.00
C860   C     0.28049   0.76708   0.56262   0.00000  Uiso   1.00
H861   H     0.26857   0.99728   0.75315   0.00000  Uiso   1.00
H862   H     0.21195   0.84845   0.91107   0.00000  Uiso   1.00
H863   H     0.17686   0.88095   0.78405   0.00000  Uiso   1.00
H864   H     0.23961   0.69889   0.51308   0.00000  Uiso   1.00
H865   H     0.32673   0.90121   0.92188   0.00000  Uiso   1.00
H866   H     0.11420   0.88595   0.57289   0.00000  Uiso   1.00
H867   H     0.02842   0.92364   0.52154   0.00000  Uiso   1.00
H868   H     0.06589   0.66936   0.75045   0.00000  Uiso   1.00
H869   H     0.06062   0.67864   0.56118   0.00000  Uiso   1.00
H870   H     0.09451   0.69170   0.66582   0.00000  Uiso   1.00
I871   I     0.13681   0.98823   0.93928   0.00000  Uiso   1.00
I872   I     0.23094   0.92594   0.58252   0.00000  Uiso   1.00
N873   N     0.14493   0.81890   0.73542   0.00000  Uiso   1.00
N874   N     0.18840   0.84777   0.76457   0.00000  Uiso   1.00
O875   O     0.29769   0.91296   0.75357   0.00000  Uiso   1.00
O876   O     0.06337   0.78572   0.58492   0.00000  Uiso   1.00
O877   O     0.02377   0.68732   0.57096   0.00000  Uiso   1.00
O878   O     0.18815   0.76026   0.66076   0.00000  Uiso   1.00
O879   O     0.17855   0.72121   0.74607   0.00000  Uiso   1.00
O880   O     0.08832   0.72935   0.67160   0.00000  Uiso   1.00
O881   O     0.21945   0.74460   0.89638   0.00000  Uiso   1.00
O882   O     0.13216   0.74829   0.82491   0.00000  Uiso   1.00
O883   O     0.18692   0.83654   0.87431   0.00000  Uiso   1.00
O884   O     0.05742   0.90371   0.74424   0.00000  Uiso   1.00
O885   O     0.31490   0.84024   0.83380   0.00000  Uiso   1.00
O886   O     0.07463   0.83099   0.82446   0.00000  Uiso   1.00
O887   O     0.27592   0.76296   0.75576   0.00000  Uiso   1.00
O888   O     0.03565   0.75371   0.74643   0.00000  Uiso   1.00
O889   O     0.25870   0.83567   0.67554   0.00000  Uiso   1.00
O890   O     0.01843   0.82642   0.66620   0.00000  Uiso   1.00
O891   O     0.01384   0.74879   0.99205   0.00000  Uiso   1.00
S892   S     0.01466   0.74860   0.55284   0.00000  Uiso   1.00
S893   S     0.15311   0.75753   0.70400   0.00000  Uiso   1.00
S894   S     0.16612   0.77366   0.87913   0.00000  Uiso   1.00
Zn895  Zn    0.27119   0.83951   0.75623   0.00000  Uiso   1.00
Zn896  Zn    0.06214   0.82716   0.74377   0.00000  Uiso   1.00
C897   C     0.34806   0.93137   0.74937   0.00000  Uiso   1.00
C898   C     0.38965   0.84424   0.91567   0.00000  Uiso   1.00
C899   C     0.35626   0.98596   0.75063   0.00000  Uiso   1.00
C900   C     0.36965   0.83574   0.85504   0.00000  Uiso   1.00
C901   C     0.64463   0.68085   0.75219   0.00000  Uiso   1.00
C902   C     0.65225   0.73534   0.75155   0.00000  Uiso   1.00
C903   C     0.63016   0.82917   0.64523   0.00000  Uiso   1.00
C904   C     0.56618   0.73712   0.53083   0.00000  Uiso   1.00
C905   C     0.60673   0.81720   0.58599   0.00000  Uiso   1.00
C906   C     0.36308   0.88182   0.94381   0.00000  Uiso   1.00
C907   C     0.38363   0.89579   0.50025   0.00000  Uiso   1.00
C908   C     0.46002   0.83689   0.50199   0.00000  Uiso   1.00
C909   C     0.43307   0.87500   0.52887   0.00000  Uiso   1.00
C910   C     0.43515   0.81788   0.94640   0.00000  Uiso   1.00
C911   C     0.50964   0.81364   0.52886   0.00000  Uiso   1.00
C912   C     0.51466   0.76017   0.51222   0.00000  Uiso   1.00
C913   C     0.47435   0.73618   0.96604   0.00000  Uiso   1.00
C914   C     0.45394   0.77030   0.92639   0.00000  Uiso   1.00
C915   C     0.55689   0.84241   0.56504   0.00000  Uiso   1.00
C916   C     0.61382   0.76708   0.56262   0.00000  Uiso   1.00
H917   H     0.60190   0.99728   0.75315   0.00000  Uiso   1.00
H918   H     0.54529   0.84845   0.91107   0.00000  Uiso   1.00
H919   H     0.51020   0.88095   0.78405   0.00000  Uiso   1.00
H920   H     0.57295   0.69889   0.51308   0.00000  Uiso   1.00
H921   H     0.66006   0.90121   0.92188   0.00000  Uiso   1.00
H922   H     0.44754   0.88595   0.57289   0.00000  Uiso   1.00
H923   H     0.36175   0.92364   0.52154   0.00000  Uiso   1.00
H924   H     0.39922   0.66936   0.75045   0.00000  Uiso   1.00
H925   H     0.39395   0.67864   0.56118   0.00000  Uiso   1.00
H926   H     0.42784   0.69170   0.66582   0.00000  Uiso   1.00
I927   I     0.47014   0.98823   0.93928   0.00000  Uiso   1.00
I928   I     0.56428   0.92594   0.58252   0.00000  Uiso   1.00
N929   N     0.47827   0.81890   0.73542   0.00000  Uiso   1.00
N930   N     0.52173   0.84777   0.76457   0.00000  Uiso   1.00
O931   O     0.63102   0.91296   0.75357   0.00000  Uiso   1.00
O932   O     0.39670   0.78572   0.58492   0.00000  Uiso   1.00
O933   O     0.35711   0.68732   0.57096   0.00000  Uiso   1.00
O934   O     0.52148   0.76026   0.66076   0.00000  Uiso   1.00
O935   O     0.51188   0.72121   0.74607   0.00000  Uiso   1.00
O936   O     0.42165   0.72935   0.67160   0.00000  Uiso   1.00
O937   O     0.55279   0.74460   0.89638   0.00000  Uiso   1.00
O938   O     0.46550   0.74829   0.82491   0.00000  Uiso   1.00
O939   O     0.52026   0.83654   0.87431   0.00000  Uiso   1.00
O940   O     0.39075   0.90371   0.74424   0.00000  Uiso   1.00
O941   O     0.64823   0.84024   0.83380   0.00000  Uiso   1.00
O942   O     0.40796   0.83099   0.82446   0.00000  Uiso   1.00
O943   O     0.60925   0.76296   0.75576   0.00000  Uiso   1.00
O944   O     0.36898   0.75371   0.74643   0.00000  Uiso   1.00
O945   O     0.59204   0.83567   0.67554   0.00000  Uiso   1.00
O946   O     0.35177   0.82642   0.66620   0.00000  Uiso   1.00
O947   O     0.34717   0.74879   0.99205   0.00000  Uiso   1.00
S948   S     0.34799   0.74860   0.55284   0.00000  Uiso   1.00
S949   S     0.48644   0.75753   0.70400   0.00000  Uiso   1.00
S950   S     0.49946   0.77366   0.87913   0.00000  Uiso   1.00
Zn951  Zn    0.60453   0.83951   0.75623   0.00000  Uiso   1.00
Zn952  Zn    0.39547   0.82716   0.74377   0.00000  Uiso   1.00
C953   C     0.68139   0.93137   0.74937   0.00000  Uiso   1.00
C954   C     0.72299   0.84424   0.91567   0.00000  Uiso   1.00
C955   C     0.68960   0.98596   0.75063   0.00000  Uiso   1.00
C956   C     0.70298   0.83574   0.85504   0.00000  Uiso   1.00
C957   C     0.97797   0.68085   0.75219   0.00000  Uiso   1.00
C958   C     0.98558   0.73534   0.75155   0.00000  Uiso   1.00
C959   C     0.96350   0.82917   0.64523   0.00000  Uiso   1.00
C960   C     0.89951   0.73712   0.53083   0.00000  Uiso   1.00
C961   C     0.94006   0.81720   0.58599   0.00000  Uiso   1.00
C962   C     0.69641   0.88182   0.94381   0.00000  Uiso   1.00
C963   C     0.71696   0.89579   0.50025   0.00000  Uiso   1.00
C964   C     0.79335   0.83689   0.50199   0.00000  Uiso   1.00
C965   C     0.76640   0.87500   0.52887   0.00000  Uiso   1.00
C966   C     0.76848   0.81788   0.94640   0.00000  Uiso   1.00
C967   C     0.84298   0.81364   0.52886   0.00000  Uiso   1.00
C968   C     0.84799   0.76017   0.51222   0.00000  Uiso   1.00
C969   C     0.80768   0.73618   0.96604   0.00000  Uiso   1.00
C970   C     0.78728   0.77030   0.92639   0.00000  Uiso   1.00
C971   C     0.89022   0.84241   0.56504   0.00000  Uiso   1.00
C972   C     0.94715   0.76708   0.56262   0.00000  Uiso   1.00
H973   H     0.93524   0.99728   0.75315   0.00000  Uiso   1.00
H974   H     0.87862   0.84845   0.91107   0.00000  Uiso   1.00
H975   H     0.84353   0.88095   0.78405   0.00000  Uiso   1.00
H976   H     0.90628   0.69889   0.51308   0.00000  Uiso   1.00
H977   H     0.99340   0.90121   0.92188   0.00000  Uiso   1.00
H978   H     0.78087   0.88595   0.57289   0.00000  Uiso   1.00
H979   H     0.69509   0.92364   0.52154   0.00000  Uiso   1.00
H980   H     0.73255   0.66936   0.75045   0.00000  Uiso   1.00
H981   H     0.72728   0.67864   0.56118   0.00000  Uiso   1.00
H982   H     0.76118   0.69170   0.66582   0.00000  Uiso   1.00
I983   I     0.80348   0.98823   0.93928   0.00000  Uiso   1.00
I984   I     0.89761   0.92594   0.58252   0.00000  Uiso   1.00
N985   N     0.81160   0.81890   0.73542   0.00000  Uiso   1.00
N986   N     0.85507   0.84777   0.76457   0.00000  Uiso   1.00
O987   O     0.96435   0.91296   0.75357   0.00000  Uiso   1.00
O988   O     0.73004   0.78572   0.58492   0.00000  Uiso   1.00
O989   O     0.69044   0.68732   0.57096   0.00000  Uiso   1.00
O990   O     0.85481   0.76026   0.66076   0.00000  Uiso   1.00
O991   O     0.84521   0.72121   0.74607   0.00000  Uiso   1.00
O992   O     0.75499   0.72935   0.67160   0.00000  Uiso   1.00
O993   O     0.88612   0.74460   0.89638   0.00000  Uiso   1.00
O994   O     0.79883   0.74829   0.82491   0.00000  Uiso   1.00
O995   O     0.85359   0.83654   0.87431   0.00000  Uiso   1.00
O996   O     0.72408   0.90371   0.74424   0.00000  Uiso   1.00
O997   O     0.98157   0.84024   0.83380   0.00000  Uiso   1.00
O998   O     0.74130   0.83099   0.82446   0.00000  Uiso   1.00
O999   O     0.94258   0.76296   0.75576   0.00000  Uiso   1.00
O1000  O     0.70231   0.75371   0.74643   0.00000  Uiso   1.00
O1001  O     0.92537   0.83567   0.67554   0.00000  Uiso   1.00
O1002  O     0.68510   0.82642   0.66620   0.00000  Uiso   1.00
O1003  O     0.68051   0.74879   0.99205   0.00000  Uiso   1.00
S1004  S     0.68132   0.74860   0.55284   0.00000  Uiso   1.00
S1005  S     0.81978   0.75753   0.70400   0.00000  Uiso   1.00
S1006  S     0.83279   0.77366   0.87913   0.00000  Uiso   1.00
Zn1007 Zn    0.93786   0.83951   0.75623   0.00000  Uiso   1.00
Zn1008 Zn    0.72881   0.82716   0.74377   0.00000  Uiso   1.00
loop_
_geom_bond_atom_site_label_1
_geom_bond_atom_site_label_2
_geom_bond_distance
_geom_bond_site_symmetry_2
_ccdc_geom_bond_type
C1     O44     1.294   .     A
C1     C3      1.401   .     S
C1     O147    1.290   1_455 S
C2     C4      1.470   .     S
C2     C14     1.417   .     A
C2     C10     1.407   .     A
C3     C285    1.331   1_455 S
C3     H196    1.086   .     S
C4     O46     1.310   .     A
C4     O157    1.309   1_455 S
C5     C6      1.402   .     S
C5     C395    1.331   1_545 S
C5     H357    1.087   1_545 S
C6     O47     1.295   .     A
C6     O104    1.290   .     S
C7     O49     1.307   .     A
C7     C9      1.456   .     S
C7     O106    1.305   .     S
C8     C20     1.386   .     A
C8     H24     1.081   .     S
C8     C16     1.393   .     A
C9     C20     1.407   .     A
C9     C19     1.400   .     A
C10    C515    1.391   .     S
C10    H137    1.084   1_455 S
C11    H27     1.081   .     S
C11    C13     1.391   .     A
C11    C514    1.391   1_554 S
C12    C15     1.410   .     A
C12    C13     1.405   .     A
C12    C518    1.416   1_554 S
C13    H26     1.081   .     S
C14    C18     1.418   .     A
C14    C516    1.416   .     S
C15    C19     1.409   .     A
C15    C16     1.424   .     A
C16    C521    1.401   1_554 S
C17    C18     1.390   .     A
C17    C520    1.401   .     S
C17    I367    2.134   1_545 S
C18    S54     1.761   .     S
C19    I32     2.146   .     S
C20    S108    1.760   .     S
H21    C173    1.087   .     S
H22    O43     0.991   .     S
H23    N34     1.029   .     S
H25    C66     1.084   .     S
H28    C339    1.086   1_545 S
H29    O37     0.991   .     S
H30    O40     0.991   .     S
I31    C185    2.134   .     S
N33    Zn56    2.044   .     S
N33    N34     1.285   .     D
N33    S53     1.747   .     S
N34    Zn55    2.044   .     S
O35    Zn55    1.963   .     S
O35    C57     1.290   .     S
O36    S52     1.499   .     D
O37    S52     1.679   .     S
O38    S53     1.495   .     D
O39    S53     1.500   .     D
O40    S53     1.671   .     S
O41    S54     1.505   .     D
O42    S54     1.492   .     D
O43    S54     1.680   .     S
O44    Zn56    1.974   .     S
O45    Zn55    1.975   .     S
O45    C60     1.309   .     S
O46    Zn56    1.951   .     S
O47    Zn55    1.974   .     S
O48    Zn56    1.963   .     S
O48    C118    1.290   1_455 S
O49    Zn55    1.951   .     S
O50    Zn56    1.975   .     S
O50    C119    1.305   1_455 S
O51    S556    1.502   .     S
S52    C132    1.760   1_455 S
S52    O555    1.502   1_554 S
C57    O100    1.294   .     A
C57    C59     1.401   .     S
C58    C60     1.470   .     S
C58    C70     1.417   .     A
C58    C66     1.407   .     A
C59    C173    1.331   .     S
C59    H252    1.086   .     S
C60    O102    1.310   .     A
C61    C62     1.402   .     S
C61    C451    1.331   1_545 S
C61    H413    1.087   1_545 S
C62    O103    1.295   .     A
C62    O160    1.290   .     S
C63    O105    1.307   .     A
C63    C65     1.456   .     S
C63    O162    1.305   .     S
C64    C76     1.386   .     A
C64    H80     1.081   .     S
C64    C72     1.393   .     A
C65    C76     1.407   .     A
C65    C75     1.400   .     A
C66    C571    1.391   .     S
C67    H83     1.081   .     S
C67    C69     1.391   .     A
C67    C570    1.391   1_554 S
C68    C71     1.410   .     A
C68    C69     1.405   .     A
C68    C574    1.416   1_554 S
C69    H82     1.081   .     S
C70    C74     1.418   .     A
C70    C572    1.416   .     S
C71    C75     1.409   .     A
C71    C72     1.424   .     A
C72    C577    1.401   1_554 S
C73    C74     1.390   .     A
C73    C576    1.401   .     S
C73    I423    2.134   1_545 S
C74    S110    1.761   .     S
C75    I88     2.146   .     S
C76    S164    1.760   .     S
H77    C229    1.087   .     S
H78    O99     0.991   .     S
H79    N90     1.029   .     S
H81    C122    1.084   .     S
H84    C395    1.086   1_545 S
H85    O93     0.991   .     S
H86    O96     0.991   .     S
I87    C241    2.134   .     S
N89    Zn112   2.044   .     S
N89    N90     1.285   .     D
N89    S109    1.747   .     S
N90    Zn111   2.044   .     S
O91    Zn111   1.963   .     S
O91    C113    1.290   .     S
O92    S108    1.499   .     D
O93    S108    1.679   .     S
O94    S109    1.495   .     D
O95    S109    1.500   .     D
O96    S109    1.671   .     S
O97    S110    1.505   .     D
O98    S110    1.492   .     D
O99    S110    1.680   .     S
O100   Zn112   1.974   .     S
O101   Zn111   1.975   .     S
O101   C116    1.309   .     S
O102   Zn112   1.951   .     S
O103   Zn111   1.974   .     S
O104   Zn112   1.963   .     S
O105   Zn111   1.951   .     S
O106   Zn112   1.975   .     S
O107   S612    1.502   .     S
S108   O611    1.502   1_554 S
C113   O156    1.294   .     A
C113   C115    1.401   .     S
C114   C116    1.470   .     S
C114   C126    1.417   .     A
C114   C122    1.407   .     A
C115   C229    1.331   .     S
C115   H308    1.086   .     S
C116   O158    1.310   .     A
C117   C118    1.402   .     S
C117   C339    1.331   1_645 S
C117   H469    1.087   1_545 S
C118   O159    1.295   .     A
C118   O48     1.290   1_655 S
C119   O161    1.307   .     A
C119   C121    1.456   .     S
C119   O50     1.305   1_655 S
C120   C132    1.386   .     A
C120   H136    1.081   .     S
C120   C128    1.393   .     A
C121   C132    1.407   .     A
C121   C131    1.400   .     A
C122   C627    1.391   .     S
C123   H139    1.081   .     S
C123   C125    1.391   .     A
C123   C626    1.391   1_554 S
C124   C127    1.410   .     A
C124   C125    1.405   .     A
C124   C630    1.416   1_554 S
C125   H138    1.081   .     S
C126   C130    1.418   .     A
C126   C628    1.416   .     S
C127   C131    1.409   .     A
C127   C128    1.424   .     A
C128   C633    1.401   1_554 S
C129   C130    1.390   .     A
C129   C632    1.401   .     S
C129   I479    2.134   1_545 S
C130   S166    1.761   .     S
C131   I144    2.146   .     S
C132   S52     1.760   1_655 S
H133   C285    1.087   .     S
H134   O155    0.991   .     S
H135   N146    1.029   .     S
H137   C10     1.084   1_655 S
H140   C451    1.086   1_545 S
H141   O149    0.991   .     S
H142   O152    0.991   .     S
I143   C297    2.134   .     S
N145   Zn168   2.044   .     S
N145   N146    1.285   .     D
N145   S165    1.747   .     S
N146   Zn167   2.044   .     S
O147   Zn167   1.963   .     S
O147   C1      1.290   1_655 S
O148   S164    1.499   .     D
O149   S164    1.679   .     S
O150   S165    1.495   .     D
O151   S165    1.500   .     D
O152   S165    1.671   .     S
O153   S166    1.505   .     D
O154   S166    1.492   .     D
O155   S166    1.680   .     S
O156   Zn168   1.974   .     S
O157   Zn167   1.975   .     S
O157   C4      1.309   1_655 S
O158   Zn168   1.951   .     S
O159   Zn167   1.974   .     S
O160   Zn168   1.963   .     S
O161   Zn167   1.951   .     S
O162   Zn168   1.975   .     S
O163   S668    1.502   .     S
S164   O667    1.502   1_554 S
C169   O212    1.294   .     A
C169   C171    1.401   .     S
C169   O315    1.290   1_455 S
C170   C172    1.470   .     S
C170   C182    1.417   .     A
C170   C178    1.407   .     A
C171   C453    1.331   1_455 S
C171   H364    1.086   .     S
C172   O214    1.310   .     A
C172   O325    1.309   1_455 S
C173   C174    1.402   .     S
C174   O215    1.295   .     A
C174   O272    1.290   .     S
C175   O217    1.307   .     A
C175   C177    1.456   .     S
C175   O274    1.305   .     S
C176   C188    1.386   .     A
C176   H192    1.081   .     S
C176   C184    1.393   .     A
C177   C188    1.407   .     A
C177   C187    1.400   .     A
C178   C683    1.391   .     S
C178   H305    1.084   1_455 S
C179   H195    1.081   .     S
C179   C181    1.391   .     A
C179   C682    1.391   1_554 S
C180   C183    1.410   .     A
C180   C181    1.405   .     A
C180   C686    1.416   1_554 S
C181   H194    1.081   .     S
C182   C186    1.418   .     A
C182   C684    1.416   .     S
C183   C187    1.409   .     A
C183   C184    1.424   .     A
C184   C689    1.401   1_554 S
C185   C186    1.390   .     A
C185   C688    1.401   .     S
C186   S222    1.761   .     S
C187   I200    2.146   .     S
C188   S276    1.760   .     S
H189   C341    1.087   .     S
H190   O211    0.991   .     S
H191   N202    1.029   .     S
H193   C234    1.084   .     S
H197   O205    0.991   .     S
H198   O208    0.991   .     S
I199   C353    2.134   .     S
N201   Zn224   2.044   .     S
N201   N202    1.285   .     D
N201   S221    1.747   .     S
N202   Zn223   2.044   .     S
O203   Zn223   1.963   .     S
O203   C225    1.290   .     S
O204   S220    1.499   .     D
O205   S220    1.679   .     S
O206   S221    1.495   .     D
O207   S221    1.500   .     D
O208   S221    1.671   .     S
O209   S222    1.505   .     D
O210   S222    1.492   .     D
O211   S222    1.680   .     S
O212   Zn224   1.974   .     S
O213   Zn223   1.975   .     S
O213   C228    1.309   .     S
O214   Zn224   1.951   .     S
O215   Zn223   1.974   .     S
O216   Zn224   1.963   .     S
O216   C286    1.290   1_455 S
O217   Zn223   1.951   .     S
O218   Zn224   1.975   .     S
O218   C287    1.305   1_455 S
O219   S724    1.502   .     S
S220   C300    1.760   1_455 S
S220   O723    1.502   1_554 S
C225   O268    1.294   .     A
C225   C227    1.401   .     S
C226   C228    1.470   .     S
C226   C238    1.417   .     A
C226   C234    1.407   .     A
C227   C341    1.331   .     S
C227   H420    1.086   .     S
C228   O270    1.310   .     A
C229   C230    1.402   .     S
C230   O271    1.295   .     A
C230   O328    1.290   .     S
C231   O273    1.307   .     A
C231   C233    1.456   .     S
C231   O330    1.305   .     S
C232   C244    1.386   .     A
C232   H248    1.081   .     S
C232   C240    1.393   .     A
C233   C244    1.407   .     A
C233   C243    1.400   .     A
C234   C739    1.391   .     S
C235   H251    1.081   .     S
C235   C237    1.391   .     A
C235   C738    1.391   1_554 S
C236   C239    1.410   .     A
C236   C237    1.405   .     A
C236   C742    1.416   1_554 S
C237   H250    1.081   .     S
C238   C242    1.418   .     A
C238   C740    1.416   .     S
C239   C243    1.409   .     A
C239   C240    1.424   .     A
C240   C745    1.401   1_554 S
C241   C242    1.390   .     A
C241   C744    1.401   .     S
C242   S278    1.761   .     S
C243   I256    2.146   .     S
C244   S332    1.760   .     S
H245   C397    1.087   .     S
H246   O267    0.991   .     S
H247   N258    1.029   .     S
H249   C290    1.084   .     S
H253   O261    0.991   .     S
H254   O264    0.991   .     S
I255   C409    2.134   .     S
N257   Zn280   2.044   .     S
N257   N258    1.285   .     D
N257   S277    1.747   .     S
N258   Zn279   2.044   .     S
O259   Zn279   1.963   .     S
O259   C281    1.290   .     S
O260   S276    1.499   .     D
O261   S276    1.679   .     S
O262   S277    1.495   .     D
O263   S277    1.500   .     D
O264   S277    1.671   .     S
O265   S278    1.505   .     D
O266   S278    1.492   .     D
O267   S278    1.680   .     S
O268   Zn280   1.974   .     S
O269   Zn279   1.975   .     S
O269   C284    1.309   .     S
O270   Zn280   1.951   .     S
O271   Zn279   1.974   .     S
O272   Zn280   1.963   .     S
O273   Zn279   1.951   .     S
O274   Zn280   1.975   .     S
O275   S780    1.502   .     S
S276   O779    1.502   1_554 S
C281   O324    1.294   .     A
C281   C283    1.401   .     S
C282   C284    1.470   .     S
C282   C294    1.417   .     A
C282   C290    1.407   .     A
C283   C397    1.331   .     S
C283   H476    1.086   .     S
C284   O326    1.310   .     A
C285   C286    1.402   .     S
C285   C3      1.331   1_655 S
C286   O327    1.295   .     A
C286   O216    1.290   1_655 S
C287   O329    1.307   .     A
C287   C289    1.456   .     S
C287   O218    1.305   1_655 S
C288   C300    1.386   .     A
C288   H304    1.081   .     S
C288   C296    1.393   .     A
C289   C300    1.407   .     A
C289   C299    1.400   .     A
C290   C795    1.391   .     S
C291   H307    1.081   .     S
C291   C293    1.391   .     A
C291   C794    1.391   1_554 S
C292   C295    1.410   .     A
C292   C293    1.405   .     A
C292   C798    1.416   1_554 S
C293   H306    1.081   .     S
C294   C298    1.418   .     A
C294   C796    1.416   .     S
C295   C299    1.409   .     A
C295   C296    1.424   .     A
C296   C801    1.401   1_554 S
C297   C298    1.390   .     A
C297   C800    1.401   .     S
C298   S334    1.761   .     S
C299   I312    2.146   .     S
C300   S220    1.760   1_655 S
H301   C453    1.087   .     S
H302   O323    0.991   .     S
H303   N314    1.029   .     S
H305   C178    1.084   1_655 S
H309   O317    0.991   .     S
H310   O320    0.991   .     S
I311   C465    2.134   .     S
N313   Zn336   2.044   .     S
N313   N314    1.285   .     D
N313   S333    1.747   .     S
N314   Zn335   2.044   .     S
O315   Zn335   1.963   .     S
O315   C169    1.290   1_655 S
O316   S332    1.499   .     D
O317   S332    1.679   .     S
O318   S333    1.495   .     D
O319   S333    1.500   .     D
O320   S333    1.671   .     S
O321   S334    1.505   .     D
O322   S334    1.492   .     D
O323   S334    1.680   .     S
O324   Zn336   1.974   .     S
O325   Zn335   1.975   .     S
O325   C172    1.309   1_655 S
O326   Zn336   1.951   .     S
O327   Zn335   1.974   .     S
O328   Zn336   1.963   .     S
O329   Zn335   1.951   .     S
O330   Zn336   1.975   .     S
O331   S836    1.502   .     S
S332   O835    1.502   1_554 S
C337   O380    1.294   .     A
C337   C339    1.401   .     S
C337   O483    1.290   1_455 S
C338   C340    1.470   .     S
C338   C350    1.417   .     A
C338   C346    1.407   .     A
C339   C117    1.331   1_465 S
C339   H28     1.086   1_565 S
C340   O382    1.310   .     A
C340   O493    1.309   1_455 S
C341   C342    1.402   .     S
C342   O383    1.295   .     A
C342   O440    1.290   .     S
C343   O385    1.307   .     A
C343   C345    1.456   .     S
C343   O442    1.305   .     S
C344   C356    1.386   .     A
C344   H360    1.081   .     S
C344   C352    1.393   .     A
C345   C356    1.407   .     A
C345   C355    1.400   .     A
C346   C851    1.391   .     S
C346   H473    1.084   1_455 S
C347   H363    1.081   .     S
C347   C349    1.391   .     A
C347   C850    1.391   1_554 S
C348   C351    1.410   .     A
C348   C349    1.405   .     A
C348   C854    1.416   1_554 S
C349   H362    1.081   .     S
C350   C354    1.418   .     A
C350   C852    1.416   .     S
C351   C355    1.409   .     A
C351   C352    1.424   .     A
C352   C857    1.401   1_554 S
C353   C354    1.390   .     A
C353   C856    1.401   .     S
C354   S390    1.761   .     S
C355   I368    2.146   .     S
C356   S444    1.760   .     S
H357   C5      1.087   1_565 S
H358   O379    0.991   .     S
H359   N370    1.029   .     S
H361   C402    1.084   .     S
H365   O373    0.991   .     S
H366   O376    0.991   .     S
I367   C17     2.134   1_565 S
N369   Zn392   2.044   .     S
N369   N370    1.285   .     D
N369   S389    1.747   .     S
N370   Zn391   2.044   .     S
O371   Zn391   1.963   .     S
O371   C393    1.290   .     S
O372   S388    1.499   .     D
O373   S388    1.679   .     S
O374   S389    1.495   .     D
O375   S389    1.500   .     D
O376   S389    1.671   .     S
O377   S390    1.505   .     D
O378   S390    1.492   .     D
O379   S390    1.680   .     S
O380   Zn392   1.974   .     S
O381   Zn391   1.975   .     S
O381   C396    1.309   .     S
O382   Zn392   1.951   .     S
O383   Zn391   1.974   .     S
O384   Zn392   1.963   .     S
O384   C454    1.290   1_455 S
O385   Zn391   1.951   .     S
O386   Zn392   1.975   .     S
O386   C455    1.305   1_455 S
O387   S892    1.502   .     S
S388   C468    1.760   1_455 S
S388   O891    1.502   1_554 S
C393   O436    1.294   .     A
C393   C395    1.401   .     S
C394   C396    1.470   .     S
C394   C406    1.417   .     A
C394   C402    1.407   .     A
C395   C5      1.331   1_565 S
C395   H84     1.086   1_565 S
C396   O438    1.310   .     A
C397   C398    1.402   .     S
C398   O439    1.295   .     A
C398   O496    1.290   .     S
C399   O441    1.307   .     A
C399   C401    1.456   .     S
C399   O498    1.305   .     S
C400   C412    1.386   .     A
C400   H416    1.081   .     S
C400   C408    1.393   .     A
C401   C412    1.407   .     A
C401   C411    1.400   .     A
C402   C907    1.391   .     S
C403   H419    1.081   .     S
C403   C405    1.391   .     A
C403   C906    1.391   1_554 S
C404   C407    1.410   .     A
C404   C405    1.405   .     A
C404   C910    1.416   1_554 S
C405   H418    1.081   .     S
C406   C410    1.418   .     A
C406   C908    1.416   .     S
C407   C411    1.409   .     A
C407   C408    1.424   .     A
C408   C913    1.401   1_554 S
C409   C410    1.390   .     A
C409   C912    1.401   .     S
C410   S446    1.761   .     S
C411   I424    2.146   .     S
C412   S500    1.760   .     S
H413   C61     1.087   1_565 S
H414   O435    0.991   .     S
H415   N426    1.029   .     S
H417   C458    1.084   .     S
H421   O429    0.991   .     S
H422   O432    0.991   .     S
I423   C73     2.134   1_565 S
N425   Zn448   2.044   .     S
N425   N426    1.285   .     D
N425   S445    1.747   .     S
N426   Zn447   2.044   .     S
O427   Zn447   1.963   .     S
O427   C449    1.290   .     S
O428   S444    1.499   .     D
O429   S444    1.679   .     S
O430   S445    1.495   .     D
O431   S445    1.500   .     D
O432   S445    1.671   .     S
O433   S446    1.505   .     D
O434   S446    1.492   .     D
O435   S446    1.680   .     S
O436   Zn448   1.974   .     S
O437   Zn447   1.975   .     S
O437   C452    1.309   .     S
O438   Zn448   1.951   .     S
O439   Zn447   1.974   .     S
O440   Zn448   1.963   .     S
O441   Zn447   1.951   .     S
O442   Zn448   1.975   .     S
O443   S948    1.502   .     S
S444   O947    1.502   1_554 S
C449   O492    1.294   .     A
C449   C451    1.401   .     S
C450   C452    1.470   .     S
C450   C462    1.417   .     A
C450   C458    1.407   .     A
C451   C61     1.331   1_565 S
C451   H140    1.086   1_565 S
C452   O494    1.310   .     A
C453   C454    1.402   .     S
C453   C171    1.331   1_655 S
C454   O495    1.295   .     A
C454   O384    1.290   1_655 S
C455   O497    1.307   .     A
C455   C457    1.456   .     S
C455   O386    1.305   1_655 S
C456   C468    1.386   .     A
C456   H472    1.081   .     S
C456   C464    1.393   .     A
C457   C468    1.407   .     A
C457   C467    1.400   .     A
C458   C963    1.391   .     S
C459   H475    1.081   .     S
C459   C461    1.391   .     A
C459   C962    1.391   1_554 S
C460   C463    1.410   .     A
C460   C461    1.405   .     A
C460   C966    1.416   1_554 S
C461   H474    1.081   .     S
C462   C466    1.418   .     A
C462   C964    1.416   .     S
C463   C467    1.409   .     A
C463   C464    1.424   .     A
C464   C969    1.401   1_554 S
C465   C466    1.390   .     A
C465   C968    1.401   .     S
C466   S502    1.761   .     S
C467   I480    2.146   .     S
C468   S388    1.760   1_655 S
H469   C117    1.087   1_565 S
H470   O491    0.991   .     S
H471   N482    1.029   .     S
H473   C346    1.084   1_655 S
H477   O485    0.991   .     S
H478   O488    0.991   .     S
I479   C129    2.134   1_565 S
N481   Zn504   2.044   .     S
N481   N482    1.285   .     D
N481   S501    1.747   .     S
N482   Zn503   2.044   .     S
O483   Zn503   1.963   .     S
O483   C337    1.290   1_655 S
O484   S500    1.499   .     D
O485   S500    1.679   .     S
O486   S501    1.495   .     D
O487   S501    1.500   .     D
O488   S501    1.671   .     S
O489   S502    1.505   .     D
O490   S502    1.492   .     D
O491   S502    1.680   .     S
O492   Zn504   1.974   .     S
O493   Zn503   1.975   .     S
O493   C340    1.309   1_655 S
O494   Zn504   1.951   .     S
O495   Zn503   1.974   .     S
O496   Zn504   1.963   .     S
O497   Zn503   1.951   .     S
O498   Zn504   1.975   .     S
O499   S1004   1.502   .     S
S500   O1003   1.502   1_554 S
C505   O548    1.294   .     A
C505   C507    1.401   .     S
C505   O651    1.290   1_455 S
C506   C508    1.470   .     S
C506   C518    1.417   .     A
C506   C514    1.407   .     A
C507   C789    1.331   1_455 S
C507   H700    1.086   .     S
C508   O550    1.310   .     A
C508   O661    1.309   1_455 S
C509   C510    1.402   .     S
C509   C899    1.331   1_545 S
C509   H861    1.087   1_545 S
C510   O551    1.295   .     A
C510   O608    1.290   .     S
C511   O553    1.307   .     A
C511   C513    1.456   .     S
C511   O610    1.305   .     S
C512   C524    1.386   .     A
C512   H528    1.081   .     S
C512   C520    1.393   .     A
C513   C524    1.407   .     A
C513   C523    1.400   .     A
C514   C11     1.391   1_556 S
C514   H641    1.084   1_455 S
C515   H531    1.081   .     S
C515   C517    1.391   .     A
C516   C519    1.410   .     A
C516   C517    1.405   .     A
C517   H530    1.081   .     S
C518   C522    1.418   .     A
C518   C12     1.416   1_556 S
C519   C523    1.409   .     A
C519   C520    1.424   .     A
C521   C522    1.390   .     A
C521   C16     1.401   1_556 S
C521   I871    2.134   1_545 S
C522   S558    1.761   .     S
C523   I536    2.146   .     S
C524   S612    1.760   .     S
H525   C677    1.087   .     S
H526   O547    0.991   .     S
H527   N538    1.029   .     S
H529   C570    1.084   .     S
H532   C843    1.086   1_545 S
H533   O541    0.991   .     S
H534   O544    0.991   .     S
I535   C689    2.134   .     S
N537   Zn560   2.044   .     S
N537   N538    1.285   .     D
N537   S557    1.747   .     S
N538   Zn559   2.044   .     S
O539   Zn559   1.963   .     S
O539   C561    1.290   .     S
O540   S556    1.499   .     D
O541   S556    1.679   .     S
O542   S557    1.495   .     D
O543   S557    1.500   .     D
O544   S557    1.671   .     S
O545   S558    1.505   .     D
O546   S558    1.492   .     D
O547   S558    1.680   .     S
O548   Zn560   1.974   .     S
O549   Zn559   1.975   .     S
O549   C564    1.309   .     S
O550   Zn560   1.951   .     S
O551   Zn559   1.974   .     S
O552   Zn560   1.963   .     S
O552   C622    1.290   1_455 S
O553   Zn559   1.951   .     S
O554   Zn560   1.975   .     S
O554   C623    1.305   1_455 S
O555   S52     1.502   1_556 S
S556   C636    1.760   1_455 S
C561   O604    1.294   .     A
C561   C563    1.401   .     S
C562   C564    1.470   .     S
C562   C574    1.417   .     A
C562   C570    1.407   .     A
C563   C677    1.331   .     S
C563   H756    1.086   .     S
C564   O606    1.310   .     A
C565   C566    1.402   .     S
C565   C955    1.331   1_545 S
C565   H917    1.087   1_545 S
C566   O607    1.295   .     A
C566   O664    1.290   .     S
C567   O609    1.307   .     A
C567   C569    1.456   .     S
C567   O666    1.305   .     S
C568   C580    1.386   .     A
C568   H584    1.081   .     S
C568   C576    1.393   .     A
C569   C580    1.407   .     A
C569   C579    1.400   .     A
C570   C67     1.391   1_556 S
C571   H587    1.081   .     S
C571   C573    1.391   .     A
C572   C575    1.410   .     A
C572   C573    1.405   .     A
C573   H586    1.081   .     S
C574   C578    1.418   .     A
C574   C68     1.416   1_556 S
C575   C579    1.409   .     A
C575   C576    1.424   .     A
C577   C578    1.390   .     A
C577   C72     1.401   1_556 S
C577   I927    2.134   1_545 S
C578   S614    1.761   .     S
C579   I592    2.146   .     S
C580   S668    1.760   .     S
H581   C733    1.087   .     S
H582   O603    0.991   .     S
H583   N594    1.029   .     S
H585   C626    1.084   .     S
H588   C899    1.086   1_545 S
H589   O597    0.991   .     S
H590   O600    0.991   .     S
I591   C745    2.134   .     S
N593   Zn616   2.044   .     S
N593   N594    1.285   .     D
N593   S613    1.747   .     S
N594   Zn615   2.044   .     S
O595   Zn615   1.963   .     S
O595   C617    1.290   .     S
O596   S612    1.499   .     D
O597   S612    1.679   .     S
O598   S613    1.495   .     D
O599   S613    1.500   .     D
O600   S613    1.671   .     S
O601   S614    1.505   .     D
O602   S614    1.492   .     D
O603   S614    1.680   .     S
O604   Zn616   1.974   .     S
O605   Zn615   1.975   .     S
O605   C620    1.309   .     S
O606   Zn616   1.951   .     S
O607   Zn615   1.974   .     S
O608   Zn616   1.963   .     S
O609   Zn615   1.951   .     S
O610   Zn616   1.975   .     S
O611   S108    1.502   1_556 S
C617   O660    1.294   .     A
C617   C619    1.401   .     S
C618   C620    1.470   .     S
C618   C630    1.417   .     A
C618   C626    1.407   .     A
C619   C733    1.331   .     S
C619   H812    1.086   .     S
C620   O662    1.310   .     A
C621   C622    1.402   .     S
C621   C843    1.331   1_645 S
C621   H973    1.087   1_545 S
C622   O663    1.295   .     A
C622   O552    1.290   1_655 S
C623   O665    1.307   .     A
C623   C625    1.456   .     S
C623   O554    1.305   1_655 S
C624   C636    1.386   .     A
C624   H640    1.081   .     S
C624   C632    1.393   .     A
C625   C636    1.407   .     A
C625   C635    1.400   .     A
C626   C123    1.391   1_556 S
C627   H643    1.081   .     S
C627   C629    1.391   .     A
C628   C631    1.410   .     A
C628   C629    1.405   .     A
C629   H642    1.081   .     S
C630   C634    1.418   .     A
C630   C124    1.416   1_556 S
C631   C635    1.409   .     A
C631   C632    1.424   .     A
C633   C634    1.390   .     A
C633   C128    1.401   1_556 S
C633   I983    2.134   1_545 S
C634   S670    1.761   .     S
C635   I648    2.146   .     S
C636   S556    1.760   1_655 S
H637   C789    1.087   .     S
H638   O659    0.991   .     S
H639   N650    1.029   .     S
H641   C514    1.084   1_655 S
H644   C955    1.086   1_545 S
H645   O653    0.991   .     S
H646   O656    0.991   .     S
I647   C801    2.134   .     S
N649   Zn672   2.044   .     S
N649   N650    1.285   .     D
N649   S669    1.747   .     S
N650   Zn671   2.044   .     S
O651   Zn671   1.963   .     S
O651   C505    1.290   1_655 S
O652   S668    1.499   .     D
O653   S668    1.679   .     S
O654   S669    1.495   .     D
O655   S669    1.500   .     D
O656   S669    1.671   .     S
O657   S670    1.505   .     D
O658   S670    1.492   .     D
O659   S670    1.680   .     S
O660   Zn672   1.974   .     S
O661   Zn671   1.975   .     S
O661   C508    1.309   1_655 S
O662   Zn672   1.951   .     S
O663   Zn671   1.974   .     S
O664   Zn672   1.963   .     S
O665   Zn671   1.951   .     S
O666   Zn672   1.975   .     S
O667   S164    1.502   1_556 S
C673   O716    1.294   .     A
C673   C675    1.401   .     S
C673   O819    1.290   1_455 S
C674   C676    1.470   .     S
C674   C686    1.417   .     A
C674   C682    1.407   .     A
C675   C957    1.331   1_455 S
C675   H868    1.086   .     S
C676   O718    1.310   .     A
C676   O829    1.309   1_455 S
C677   C678    1.402   .     S
C678   O719    1.295   .     A
C678   O776    1.290   .     S
C679   O721    1.307   .     A
C679   C681    1.456   .     S
C679   O778    1.305   .     S
C680   C692    1.386   .     A
C680   H696    1.081   .     S
C680   C688    1.393   .     A
C681   C692    1.407   .     A
C681   C691    1.400   .     A
C682   C179    1.391   1_556 S
C682   H809    1.084   1_455 S
C683   H699    1.081   .     S
C683   C685    1.391   .     A
C684   C687    1.410   .     A
C684   C685    1.405   .     A
C685   H698    1.081   .     S
C686   C690    1.418   .     A
C686   C180    1.416   1_556 S
C687   C691    1.409   .     A
C687   C688    1.424   .     A
C689   C690    1.390   .     A
C689   C184    1.401   1_556 S
C690   S726    1.761   .     S
C691   I704    2.146   .     S
C692   S780    1.760   .     S
H693   C845    1.087   .     S
H694   O715    0.991   .     S
H695   N706    1.029   .     S
H697   C738    1.084   .     S
H701   O709    0.991   .     S
H702   O712    0.991   .     S
I703   C857    2.134   .     S
N705   Zn728   2.044   .     S
N705   N706    1.285   .     D
N705   S725    1.747   .     S
N706   Zn727   2.044   .     S
O707   Zn727   1.963   .     S
O707   C729    1.290   .     S
O708   S724    1.499   .     D
O709   S724    1.679   .     S
O710   S725    1.495   .     D
O711   S725    1.500   .     D
O712   S725    1.671   .     S
O713   S726    1.505   .     D
O714   S726    1.492   .     D
O715   S726    1.680   .     S
O716   Zn728   1.974   .     S
O717   Zn727   1.975   .     S
O717   C732    1.309   .     S
O718   Zn728   1.951   .     S
O719   Zn727   1.974   .     S
O720   Zn728   1.963   .     S
O720   C790    1.290   1_455 S
O721   Zn727   1.951   .     S
O722   Zn728   1.975   .     S
O722   C791    1.305   1_455 S
O723   S220    1.502   1_556 S
S724   C804    1.760   1_455 S
C729   O772    1.294   .     A
C729   C731    1.401   .     S
C730   C732    1.470   .     S
C730   C742    1.417   .     A
C730   C738    1.407   .     A
C731   C845    1.331   .     S
C731   H924    1.086   .     S
C732   O774    1.310   .     A
C733   C734    1.402   .     S
C734   O775    1.295   .     A
C734   O832    1.290   .     S
C735   O777    1.307   .     A
C735   C737    1.456   .     S
C735   O834    1.305   .     S
C736   C748    1.386   .     A
C736   H752    1.081   .     S
C736   C744    1.393   .     A
C737   C748    1.407   .     A
C737   C747    1.400   .     A
C738   C235    1.391   1_556 S
C739   H755    1.081   .     S
C739   C741    1.391   .     A
C740   C743    1.410   .     A
C740   C741    1.405   .     A
C741   H754    1.081   .     S
C742   C746    1.418   .     A
C742   C236    1.416   1_556 S
C743   C747    1.409   .     A
C743   C744    1.424   .     A
C745   C746    1.390   .     A
C745   C240    1.401   1_556 S
C746   S782    1.761   .     S
C747   I760    2.146   .     S
C748   S836    1.760   .     S
H749   C901    1.087   .     S
H750   O771    0.991   .     S
H751   N762    1.029   .     S
H753   C794    1.084   .     S
H757   O765    0.991   .     S
H758   O768    0.991   .     S
I759   C913    2.134   .     S
N761   Zn784   2.044   .     S
N761   N762    1.285   .     D
N761   S781    1.747   .     S
N762   Zn783   2.044   .     S
O763   Zn783   1.963   .     S
O763   C785    1.290   .     S
O764   S780    1.499   .     D
O765   S780    1.679   .     S
O766   S781    1.495   .     D
O767   S781    1.500   .     D
O768   S781    1.671   .     S
O769   S782    1.505   .     D
O770   S782    1.492   .     D
O771   S782    1.680   .     S
O772   Zn784   1.974   .     S
O773   Zn783   1.975   .     S
O773   C788    1.309   .     S
O774   Zn784   1.951   .     S
O775   Zn783   1.974   .     S
O776   Zn784   1.963   .     S
O777   Zn783   1.951   .     S
O778   Zn784   1.975   .     S
O779   S276    1.502   1_556 S
C785   O828    1.294   .     A
C785   C787    1.401   .     S
C786   C788    1.470   .     S
C786   C798    1.417   .     A
C786   C794    1.407   .     A
C787   C901    1.331   .     S
C787   H980    1.086   .     S
C788   O830    1.310   .     A
C789   C790    1.402   .     S
C789   C507    1.331   1_655 S
C790   O831    1.295   .     A
C790   O720    1.290   1_655 S
C791   O833    1.307   .     A
C791   C793    1.456   .     S
C791   O722    1.305   1_655 S
C792   C804    1.386   .     A
C792   H808    1.081   .     S
C792   C800    1.393   .     A
C793   C804    1.407   .     A
C793   C803    1.400   .     A
C794   C291    1.391   1_556 S
C795   H811    1.081   .     S
C795   C797    1.391   .     A
C796   C799    1.410   .     A
C796   C797    1.405   .     A
C797   H810    1.081   .     S
C798   C802    1.418   .     A
C798   C292    1.416   1_556 S
C799   C803    1.409   .     A
C799   C800    1.424   .     A
C801   C802    1.390   .     A
C801   C296    1.401   1_556 S
C802   S838    1.761   .     S
C803   I816    2.146   .     S
C804   S724    1.760   1_655 S
H805   C957    1.087   .     S
H806   O827    0.991   .     S
H807   N818    1.029   .     S
H809   C682    1.084   1_655 S
H813   O821    0.991   .     S
H814   O824    0.991   .     S
I815   C969    2.134   .     S
N817   Zn840   2.044   .     S
N817   N818    1.285   .     D
N817   S837    1.747   .     S
N818   Zn839   2.044   .     S
O819   Zn839   1.963   .     S
O819   C673    1.290   1_655 S
O820   S836    1.499   .     D
O821   S836    1.679   .     S
O822   S837    1.495   .     D
O823   S837    1.500   .     D
O824   S837    1.671   .     S
O825   S838    1.505   .     D
O826   S838    1.492   .     D
O827   S838    1.680   .     S
O828   Zn840   1.974   .     S
O829   Zn839   1.975   .     S
O829   C676    1.309   1_655 S
O830   Zn840   1.951   .     S
O831   Zn839   1.974   .     S
O832   Zn840   1.963   .     S
O833   Zn839   1.951   .     S
O834   Zn840   1.975   .     S
O835   S332    1.502   1_556 S
C841   O884    1.294   .     A
C841   C843    1.401   .     S
C841   O987    1.290   1_455 S
C842   C844    1.470   .     S
C842   C854    1.417   .     A
C842   C850    1.407   .     A
C843   C621    1.331   1_465 S
C843   H532    1.086   1_565 S
C844   O886    1.310   .     A
C844   O997    1.309   1_455 S
C845   C846    1.402   .     S
C846   O887    1.295   .     A
C846   O944    1.290   .     S
C847   O889    1.307   .     A
C847   C849    1.456   .     S
C847   O946    1.305   .     S
C848   C860    1.386   .     A
C848   H864    1.081   .     S
C848   C856    1.393   .     A
C849   C860    1.407   .     A
C849   C859    1.400   .     A
C850   C347    1.391   1_556 S
C850   H977    1.084   1_455 S
C851   H867    1.081   .     S
C851   C853    1.391   .     A
C852   C855    1.410   .     A
C852   C853    1.405   .     A
C853   H866    1.081   .     S
C854   C858    1.418   .     A
C854   C348    1.416   1_556 S
C855   C859    1.409   .     A
C855   C856    1.424   .     A
C857   C858    1.390   .     A
C857   C352    1.401   1_556 S
C858   S894    1.761   .     S
C859   I872    2.146   .     S
C860   S948    1.760   .     S
H861   C509    1.087   1_565 S
H862   O883    0.991   .     S
H863   N874    1.029   .     S
H865   C906    1.084   .     S
H869   O877    0.991   .     S
H870   O880    0.991   .     S
I871   C521    2.134   1_565 S
N873   Zn896   2.044   .     S
N873   N874    1.285   .     D
N873   S893    1.747   .     S
N874   Zn895   2.044   .     S
O875   Zn895   1.963   .     S
O875   C897    1.290   .     S
O876   S892    1.499   .     D
O877   S892    1.679   .     S
O878   S893    1.495   .     D
O879   S893    1.500   .     D
O880   S893    1.671   .     S
O881   S894    1.505   .     D
O882   S894    1.492   .     D
O883   S894    1.680   .     S
O884   Zn896   1.974   .     S
O885   Zn895   1.975   .     S
O885   C900    1.309   .     S
O886   Zn896   1.951   .     S
O887   Zn895   1.974   .     S
O888   Zn896   1.963   .     S
O888   C958    1.290   1_455 S
O889   Zn895   1.951   .     S
O890   Zn896   1.975   .     S
O890   C959    1.305   1_455 S
O891   S388    1.502   1_556 S
S892   C972    1.760   1_455 S
C897   O940    1.294   .     A
C897   C899    1.401   .     S
C898   C900    1.470   .     S
C898   C910    1.417   .     A
C898   C906    1.407   .     A
C899   C509    1.331   1_565 S
C899   H588    1.086   1_565 S
C900   O942    1.310   .     A
C901   C902    1.402   .     S
C902   O943    1.295   .     A
C902   O1000   1.290   .     S
C903   O945    1.307   .     A
C903   C905    1.456   .     S
C903   O1002   1.305   .     S
C904   C916    1.386   .     A
C904   H920    1.081   .     S
C904   C912    1.393   .     A
C905   C916    1.407   .     A
C905   C915    1.400   .     A
C906   C403    1.391   1_556 S
C907   H923    1.081   .     S
C907   C909    1.391   .     A
C908   C911    1.410   .     A
C908   C909    1.405   .     A
C909   H922    1.081   .     S
C910   C914    1.418   .     A
C910   C404    1.416   1_556 S
C911   C915    1.409   .     A
C911   C912    1.424   .     A
C913   C914    1.390   .     A
C913   C408    1.401   1_556 S
C914   S950    1.761   .     S
C915   I928    2.146   .     S
C916   S1004   1.760   .     S
H917   C565    1.087   1_565 S
H918   O939    0.991   .     S
H919   N930    1.029   .     S
H921   C962    1.084   .     S
H925   O933    0.991   .     S
H926   O936    0.991   .     S
I927   C577    2.134   1_565 S
N929   Zn952   2.044   .     S
N929   N930    1.285   .     D
N929   S949    1.747   .     S
N930   Zn951   2.044   .     S
O931   Zn951   1.963   .     S
O931   C953    1.290   .     S
O932   S948    1.499   .     D
O933   S948    1.679   .     S
O934   S949    1.495   .     D
O935   S949    1.500   .     D
O936   S949    1.671   .     S
O937   S950    1.505   .     D
O938   S950    1.492   .     D
O939   S950    1.680   .     S
O940   Zn952   1.974   .     S
O941   Zn951   1.975   .     S
O941   C956    1.309   .     S
O942   Zn952   1.951   .     S
O943   Zn951   1.974   .     S
O944   Zn952   1.963   .     S
O945   Zn951   1.951   .     S
O946   Zn952   1.975   .     S
O947   S444    1.502   1_556 S
C953   O996    1.294   .     A
C953   C955    1.401   .     S
C954   C956    1.470   .     S
C954   C966    1.417   .     A
C954   C962    1.407   .     A
C955   C565    1.331   1_565 S
C955   H644    1.086   1_565 S
C956   O998    1.310   .     A
C957   C958    1.402   .     S
C957   C675    1.331   1_655 S
C958   O999    1.295   .     A
C958   O888    1.290   1_655 S
C959   O1001   1.307   .     A
C959   C961    1.456   .     S
C959   O890    1.305   1_655 S
C960   C972    1.386   .     A
C960   H976    1.081   .     S
C960   C968    1.393   .     A
C961   C972    1.407   .     A
C961   C971    1.400   .     A
C962   C459    1.391   1_556 S
C963   H979    1.081   .     S
C963   C965    1.391   .     A
C964   C967    1.410   .     A
C964   C965    1.405   .     A
C965   H978    1.081   .     S
C966   C970    1.418   .     A
C966   C460    1.416   1_556 S
C967   C971    1.409   .     A
C967   C968    1.424   .     A
C969   C970    1.390   .     A
C969   C464    1.401   1_556 S
C970   S1006   1.761   .     S
C971   I984    2.146   .     S
C972   S892    1.760   1_655 S
H973   C621    1.087   1_565 S
H974   O995    0.991   .     S
H975   N986    1.029   .     S
H977   C850    1.084   1_655 S
H981   O989    0.991   .     S
H982   O992    0.991   .     S
I983   C633    2.134   1_565 S
N985   Zn1008  2.044   .     S
N985   N986    1.285   .     D
N985   S1005   1.747   .     S
N986   Zn1007  2.044   .     S
O987   Zn1007  1.963   .     S
O987   C841    1.290   1_655 S
O988   S1004   1.499   .     D
O989   S1004   1.679   .     S
O990   S1005   1.495   .     D
O991   S1005   1.500   .     D
O992   S1005   1.671   .     S
O993   S1006   1.505   .     D
O994   S1006   1.492   .     D
O995   S1006   1.680   .     S
O996   Zn1008  1.974   .     S
O997   Zn1007  1.975   .     S
O997   C844    1.309   1_655 S
O998   Zn1008  1.951   .     S
O999   Zn1007  1.974   .     S
O1000  Zn1008  1.963   .     S
O1001  Zn1007  1.951   .     S
O1002  Zn1008  1.975   .     S
O1003  S500    1.502   1_556 S
