data_str_m1_o5_o17_pcu_sym.2
_audit_creation_date              2020-01-03
_audit_creation_method            'Materials Studio'
_symmetry_space_group_name_H-M    'P1'
_symmetry_Int_Tables_number       1
_symmetry_cell_setting            triclinic
loop_
_symmetry_equiv_pos_as_xyz
  x,y,z
_cell_length_a                    31.7263
_cell_length_b                    31.7720
_cell_length_c                    34.6003
_cell_angle_alpha                 90.0000
_cell_angle_beta                  90.0000
_cell_angle_gamma                 90.0302
loop_
_atom_site_label
_atom_site_type_symbol
_atom_site_fract_x
_atom_site_fract_y
_atom_site_fract_z
_atom_site_U_iso_or_equiv
_atom_site_adp_type
_atom_site_occupancy
C1     C     0.25000  -0.00000   0.35606   0.00000  Uiso   1.00
C2     C     0.33002   0.42000   0.75000   0.00000  Uiso   1.00
C3     C     0.43867   0.20264   0.02026   0.00000  Uiso   1.00
C4     C     0.32198   0.02874   0.97963   0.00000  Uiso   1.00
C5     C     0.17766   0.47304   0.02024   0.00000  Uiso   1.00
C6     C     0.43920   0.20251   0.97958   0.00000  Uiso   1.00
C7     C     0.06133   0.29736   0.02026   0.00000  Uiso   1.00
C8     C     0.05038   0.33135   0.39058   0.00000  Uiso   1.00
C9     C     0.40736   0.28839   0.59721   0.00000  Uiso   1.00
C10    C     0.22922   0.40058   0.40289   0.00000  Uiso   1.00
C11    C     0.34378   0.01106   0.61420   0.00000  Uiso   1.00
C12    C     0.44962   0.16865   0.39058   0.00000  Uiso   1.00
C13    C     0.41999   0.17000   0.25001   0.00000  Uiso   1.00
C14    C     0.09264   0.21162   0.59721   0.00000  Uiso   1.00
C15    C     0.27079   0.09942   0.40289   0.00000  Uiso   1.00
C16    C     0.15622   0.48895   0.61420   0.00000  Uiso   1.00
C17    C     0.30032   0.08139   0.89056   0.00000  Uiso   1.00
C18    C     0.15729   0.03823   0.09721   0.00000  Uiso   1.00
C19    C     0.47908   0.15060   0.90289   0.00000  Uiso   1.00
C20    C     0.09380   0.26095   0.11420   0.00000  Uiso   1.00
C21    C     0.19968   0.41861   0.89057   0.00000  Uiso   1.00
C22    C     0.34271   0.46176   0.09721   0.00000  Uiso   1.00
C23    C     0.02092   0.34940   0.90289   0.00000  Uiso   1.00
C24    C     0.08002   0.33000   0.75000   0.00000  Uiso   1.00
C25    C     0.40620   0.23907   0.11419   0.00000  Uiso   1.00
C26    C     0.37969   0.17026   0.46236   0.00000  Uiso   1.00
C27    C     0.10086   0.33035   0.55565   0.00000  Uiso   1.00
C28    C     0.37178   0.04255   0.44494   0.00000  Uiso   1.00
C29    C     0.12013   0.43904   0.53834   0.00000  Uiso   1.00
C30    C     0.12032   0.32974   0.46236   0.00000  Uiso   1.00
C31    C     0.39915   0.16965   0.55566   0.00000  Uiso   1.00
C32    C     0.12822   0.45744   0.44494   0.00000  Uiso   1.00
C33    C     0.37987   0.06095   0.53834   0.00000  Uiso   1.00
C34    C     0.12977   0.42013   0.96236   0.00000  Uiso   1.00
C35    C     0.33001   0.41999   0.24998   0.00000  Uiso   1.00
C36    C     0.35073   0.08050   0.05565   0.00000  Uiso   1.00
C37    C     0.12183   0.29239   0.94494   0.00000  Uiso   1.00
C38    C     0.37006   0.18919   0.03834   0.00000  Uiso   1.00
C39    C     0.37022   0.07989   0.96236   0.00000  Uiso   1.00
C40    C     0.14928   0.41949   0.05564   0.00000  Uiso   1.00
C41    C     0.37817   0.20760   0.94494   0.00000  Uiso   1.00
C42    C     0.12995   0.31080   0.03834   0.00000  Uiso   1.00
C43    C     0.16998   0.08000   0.75000   0.00000  Uiso   1.00
C44    C     0.08001   0.33000   0.25001   0.00000  Uiso   1.00
C45    C     0.41998   0.17000   0.75000   0.00000  Uiso   1.00
C46    C     0.16999   0.42000   0.75001   0.00000  Uiso   1.00
C47    C     0.33002   0.08000   0.25000   0.00000  Uiso   1.00
C48    C     0.41999   0.33001   0.74998   0.00000  Uiso   1.00
C49    C     0.25000  -0.00000   0.64414   0.00000  Uiso   1.00
C50    C     0.08002   0.17000   0.25000   0.00000  Uiso   1.00
C51    C     0.33001   0.08000   0.75001   0.00000  Uiso   1.00
C52    C     0.16998   0.42000   0.25000   0.00000  Uiso   1.00
C53    C     0.08001   0.16999   0.74998   0.00000  Uiso   1.00
C54    C     0.41998   0.33000   0.25000   0.00000  Uiso   1.00
C55    C     0.13832   0.38835   0.25000   0.00000  Uiso   1.00
C56    C     0.36167   0.11166   0.75002   0.00000  Uiso   1.00
C57    C     0.11168   0.13835   0.25000   0.00000  Uiso   1.00
C58    C     0.38833   0.36166   0.74998   0.00000  Uiso   1.00
C59    C     0.36168   0.11165   0.25000   0.00000  Uiso   1.00
C60    C     0.00000   0.25000   0.35596   0.00000  Uiso   1.00
C61    C     0.13833   0.38834   0.75002   0.00000  Uiso   1.00
C62    C     0.38832   0.36165   0.25000   0.00000  Uiso   1.00
C63    C     0.11167   0.13834   0.74998   0.00000  Uiso   1.00
C64    C     0.13832   0.11165   0.75000   0.00000  Uiso   1.00
C65    C     0.36167   0.38834   0.24998   0.00000  Uiso   1.00
C66    C     0.11168   0.36165   0.75000   0.00000  Uiso   1.00
C67    C     0.38833   0.13834   0.25002   0.00000  Uiso   1.00
C68    C     0.36168   0.38835   0.75000   0.00000  Uiso   1.00
C69    C     0.13833   0.11166   0.24998   0.00000  Uiso   1.00
C70    C     0.38832   0.13835   0.75000   0.00000  Uiso   1.00
C71    C     0.00000   0.25000   0.64384   0.00000  Uiso   1.00
C72    C     0.11167   0.36166   0.25002   0.00000  Uiso   1.00
C73    C     0.03366   0.26873   0.41846   0.00000  Uiso   1.00
C74    C     0.46185   0.24602   0.58061   0.00000  Uiso   1.00
C75    C     0.22643   0.46979   0.41893   0.00000  Uiso   1.00
C76    C     0.28192   0.02158   0.58194   0.00000  Uiso   1.00
C77    C     0.46634   0.23127   0.41846   0.00000  Uiso   1.00
C78    C     0.03815   0.25398   0.58061   0.00000  Uiso   1.00
C79    C     0.27357   0.03020   0.41893   0.00000  Uiso   1.00
C80    C     0.21808   0.47842   0.58194   0.00000  Uiso   1.00
C81    C     0.28364   0.01876   0.91846   0.00000  Uiso   1.00
C82    C    -0.00000   0.25000   0.85606   0.00000  Uiso   1.00
C83    C     0.21185   0.49596   0.08061   0.00000  Uiso   1.00
C84    C     0.47639   0.21982   0.91893   0.00000  Uiso   1.00
C85    C     0.03195   0.27154   0.08194   0.00000  Uiso   1.00
C86    C     0.21635   0.48124   0.91846   0.00000  Uiso   1.00
C87    C     0.28815   0.00404   0.08061   0.00000  Uiso   1.00
C88    C     0.02361   0.28018   0.91893   0.00000  Uiso   1.00
C89    C     0.46805   0.22847   0.08194   0.00000  Uiso   1.00
C90    C     0.00000   0.25000   0.39832   0.00000  Uiso   1.00
C91    C     0.00000   0.25000   0.60117   0.00000  Uiso   1.00
C92    C     0.25000  -0.00000   0.39860   0.00000  Uiso   1.00
C93    C     0.00000   0.25000   0.14414   0.00000  Uiso   1.00
C94    C     0.25000  -0.00000   0.60188   0.00000  Uiso   1.00
C95    C     0.25000   0.00000   0.89832   0.00000  Uiso   1.00
C96    C     0.25000  -0.00000   0.10117   0.00000  Uiso   1.00
C97    C    -0.00000   0.25000   0.89860   0.00000  Uiso   1.00
C98    C     0.00000   0.25000   0.10188   0.00000  Uiso   1.00
C99    C     0.46432   0.23451   0.45904   0.00000  Uiso   1.00
C100   C     0.03703   0.26083   0.54039   0.00000  Uiso   1.00
C101   C     0.27857   0.02594   0.45937   0.00000  Uiso   1.00
C102   C     0.21897   0.47644   0.54110   0.00000  Uiso   1.00
C103   C     0.03568   0.26549   0.45904   0.00000  Uiso   1.00
C104   C     0.25000  -0.00000   0.85596   0.00000  Uiso   1.00
C105   C     0.46297   0.23917   0.54039   0.00000  Uiso   1.00
C106   C     0.22143   0.47406   0.45937   0.00000  Uiso   1.00
C107   C     0.28103   0.02356   0.54110   0.00000  Uiso   1.00
C108   C     0.21433   0.48447   0.95904   0.00000  Uiso   1.00
C109   C     0.28702   0.01088   0.04039   0.00000  Uiso   1.00
C110   C     0.02860   0.27591   0.95936   0.00000  Uiso   1.00
C111   C     0.46894   0.22648   0.04110   0.00000  Uiso   1.00
C112   C     0.28566   0.01553   0.95904   0.00000  Uiso   1.00
C113   C     0.21299   0.48912   0.04039   0.00000  Uiso   1.00
C114   C     0.47140   0.22409   0.95936   0.00000  Uiso   1.00
C115   C     0.25000  -0.00000   0.14384   0.00000  Uiso   1.00
C116   C     0.03106   0.27352   0.04109   0.00000  Uiso   1.00
C117   C     0.00000   0.25000   0.47934   0.00000  Uiso   1.00
C118   C     0.00000   0.25000   0.51997   0.00000  Uiso   1.00
C119   C     0.25000  -0.00000   0.47990   0.00000  Uiso   1.00
C120   C     0.25000  -0.00000   0.52072   0.00000  Uiso   1.00
C121   C     0.25000   0.00000   0.97934   0.00000  Uiso   1.00
C122   C     0.25000   0.00000   0.01997   0.00000  Uiso   1.00
C123   C     0.00000   0.25000   0.97989   0.00000  Uiso   1.00
C124   C     0.00000   0.25000   0.02072   0.00000  Uiso   1.00
C125   C     0.42799   0.22135   0.47963   0.00000  Uiso   1.00
C126   C     0.16999   0.08001   0.24998   0.00000  Uiso   1.00
C127   C     0.07238   0.27685   0.52024   0.00000  Uiso   1.00
C128   C     0.31074   0.04756   0.47958   0.00000  Uiso   1.00
C129   C     0.18873   0.45257   0.52026   0.00000  Uiso   1.00
C130   C     0.07201   0.27865   0.47963   0.00000  Uiso   1.00
C131   C     0.42762   0.22315   0.52024   0.00000  Uiso   1.00
C132   C     0.18926   0.45243   0.47958   0.00000  Uiso   1.00
C133   C     0.31127   0.04743   0.52026   0.00000  Uiso   1.00
C134   C     0.17802   0.47126   0.97963   0.00000  Uiso   1.00
C135   C     0.32234   0.02696   0.02024   0.00000  Uiso   1.00
C136   C     0.06080   0.29749   0.97958   0.00000  Uiso   1.00
H137   H     0.03927   0.34759   0.41723   0.00000  Uiso   1.00
H138   H     0.35262   0.48931   0.59028   0.00000  Uiso   1.00
H139   H     0.33252   0.49261   0.63939   0.00000  Uiso   1.00
H140   H     0.37280   0.02773   0.62346   0.00000  Uiso   1.00
H141   H     0.46074   0.15242   0.41722   0.00000  Uiso   1.00
H142   H     0.47512   0.16869   0.36857   0.00000  Uiso   1.00
H143   H     0.42301   0.15006   0.37869   0.00000  Uiso   1.00
H144   H     0.09960   0.20307   0.56668   0.00000  Uiso   1.00
H145   H     0.07083   0.18813   0.61030   0.00000  Uiso   1.00
H146   H     0.12272   0.21027   0.61350   0.00000  Uiso   1.00
H147   H     0.27048   0.11033   0.43343   0.00000  Uiso   1.00
H148   H     0.02487   0.33131   0.36858   0.00000  Uiso   1.00
H149   H     0.23793   0.09580   0.39210   0.00000  Uiso   1.00
H150   H     0.28619   0.12431   0.38538   0.00000  Uiso   1.00
H151   H     0.14738   0.01070   0.59028   0.00000  Uiso   1.00
H152   H     0.16748   0.00740   0.63939   0.00000  Uiso   1.00
H153   H     0.12720   0.47229   0.62345   0.00000  Uiso   1.00
H154   H     0.28919   0.09762   0.91720   0.00000  Uiso   1.00
H155   H     0.27481   0.08132   0.86855   0.00000  Uiso   1.00
H156   H     0.32691   0.09999   0.87865   0.00000  Uiso   1.00
H157   H     0.15031   0.04676   0.06668   0.00000  Uiso   1.00
H158   H     0.17906   0.06175   0.11030   0.00000  Uiso   1.00
H159   H     0.07699   0.34994   0.37868   0.00000  Uiso   1.00
H160   H     0.12721   0.03952   0.11351   0.00000  Uiso   1.00
H161   H     0.47937   0.13969   0.93343   0.00000  Uiso   1.00
H162   H     0.01195   0.15418   0.89210   0.00000  Uiso   1.00
H163   H     0.46365   0.12574   0.88538   0.00000  Uiso   1.00
H164   H     0.10262   0.23919   0.09027   0.00000  Uiso   1.00
H165   H     0.08251   0.24251   0.13938   0.00000  Uiso   1.00
H166   H     0.12283   0.27758   0.12346   0.00000  Uiso   1.00
H167   H     0.21083   0.40239   0.91720   0.00000  Uiso   1.00
H168   H     0.22516   0.41868   0.86854   0.00000  Uiso   1.00
H169   H     0.17307   0.40001   0.87868   0.00000  Uiso   1.00
H170   H     0.40039   0.29693   0.56668   0.00000  Uiso   1.00
H171   H     0.34969   0.45323   0.06667   0.00000  Uiso   1.00
H172   H     0.32093   0.43824   0.11029   0.00000  Uiso   1.00
H173   H     0.37279   0.46046   0.11350   0.00000  Uiso   1.00
H174   H     0.02062   0.36031   0.93343   0.00000  Uiso   1.00
H175   H     0.48805   0.34582   0.89210   0.00000  Uiso   1.00
H176   H     0.03635   0.37426   0.88538   0.00000  Uiso   1.00
H177   H     0.39739   0.26082   0.09026   0.00000  Uiso   1.00
H178   H     0.41749   0.25752   0.13937   0.00000  Uiso   1.00
H179   H     0.37716   0.22245   0.12345   0.00000  Uiso   1.00
H180   H     0.40712   0.14881   0.46641   0.00000  Uiso   1.00
H181   H     0.42918   0.31187   0.61029   0.00000  Uiso   1.00
H182   H     0.36409   0.16095   0.43497   0.00000  Uiso   1.00
H183   H     0.35629   0.16547   0.48576   0.00000  Uiso   1.00
H184   H     0.08151   0.32854   0.58230   0.00000  Uiso   1.00
H185   H     0.08527   0.35212   0.53495   0.00000  Uiso   1.00
H186   H     0.13163   0.34438   0.56372   0.00000  Uiso   1.00
H187   H     0.35950   0.02468   0.41979   0.00000  Uiso   1.00
H188   H     0.38357   0.01986   0.46691   0.00000  Uiso   1.00
H189   H     0.39913   0.06129   0.43477   0.00000  Uiso   1.00
H190   H     0.11698   0.47391   0.53627   0.00000  Uiso   1.00
H191   H     0.10413   0.42912   0.56534   0.00000  Uiso   1.00
H192   H     0.37729   0.28974   0.61351   0.00000  Uiso   1.00
H193   H     0.10314   0.42362   0.51421   0.00000  Uiso   1.00
H194   H     0.09289   0.35119   0.46641   0.00000  Uiso   1.00
H195   H     0.13592   0.33905   0.43497   0.00000  Uiso   1.00
H196   H     0.14372   0.33452   0.48576   0.00000  Uiso   1.00
H197   H     0.41850   0.17147   0.58229   0.00000  Uiso   1.00
H198   H     0.41474   0.14788   0.53495   0.00000  Uiso   1.00
H199   H     0.36838   0.15561   0.56373   0.00000  Uiso   1.00
H200   H     0.14050   0.47530   0.41979   0.00000  Uiso   1.00
H201   H     0.11644   0.48013   0.46691   0.00000  Uiso   1.00
H202   H     0.10088   0.43869   0.43478   0.00000  Uiso   1.00
H203   H     0.22954   0.38966   0.43343   0.00000  Uiso   1.00
H204   H     0.38302   0.02609   0.53628   0.00000  Uiso   1.00
H205   H     0.39587   0.07088   0.56534   0.00000  Uiso   1.00
H206   H     0.39686   0.07638   0.51421   0.00000  Uiso   1.00
H207   H     0.15722   0.39870   0.96639   0.00000  Uiso   1.00
H208   H     0.11417   0.41080   0.93497   0.00000  Uiso   1.00
H209   H     0.10638   0.41531   0.98576   0.00000  Uiso   1.00
H210   H     0.33136   0.07866   0.08228   0.00000  Uiso   1.00
H211   H     0.33513   0.10225   0.03493   0.00000  Uiso   1.00
H212   H     0.38148   0.09457   0.06375   0.00000  Uiso   1.00
H213   H     0.10954   0.27455   0.91979   0.00000  Uiso   1.00
H214   H     0.26208   0.40420   0.39210   0.00000  Uiso   1.00
H215   H     0.13358   0.26969   0.96691   0.00000  Uiso   1.00
H216   H     0.14921   0.31110   0.93478   0.00000  Uiso   1.00
H217   H     0.36694   0.22406   0.03626   0.00000  Uiso   1.00
H218   H     0.35404   0.17929   0.06534   0.00000  Uiso   1.00
H219   H     0.35305   0.17378   0.01421   0.00000  Uiso   1.00
H220   H     0.34277   0.10131   0.96641   0.00000  Uiso   1.00
H221   H     0.38581   0.08922   0.93497   0.00000  Uiso   1.00
H222   H     0.39361   0.08471   0.98576   0.00000  Uiso   1.00
H223   H     0.16865   0.42133   0.08227   0.00000  Uiso   1.00
H224   H     0.16487   0.39774   0.03492   0.00000  Uiso   1.00
H225   H     0.21382   0.37569   0.38538   0.00000  Uiso   1.00
H226   H     0.11853   0.40542   0.06374   0.00000  Uiso   1.00
H227   H     0.39046   0.22544   0.91979   0.00000  Uiso   1.00
H228   H     0.36642   0.23031   0.96691   0.00000  Uiso   1.00
H229   H     0.35079   0.18889   0.93479   0.00000  Uiso   1.00
H230   H     0.13306   0.27593   0.03626   0.00000  Uiso   1.00
H231   H     0.14596   0.32071   0.06533   0.00000  Uiso   1.00
H232   H     0.14695   0.32621   0.01420   0.00000  Uiso   1.00
O233   O     0.25000  -0.00000   0.25000   0.00000  Uiso   1.00
O234   O     0.25000   0.46538   0.66251   0.00000  Uiso   1.00
O235   O     0.46539   0.25000   0.33749   0.00000  Uiso   1.00
O236   O     0.03462   0.25000   0.66251   0.00000  Uiso   1.00
O237   O     0.00000   0.21539   0.83749   0.00000  Uiso   1.00
O238   O     0.00000   0.28462   0.16251   0.00000  Uiso   1.00
O239   O     0.28462  -0.00000   0.83749   0.00000  Uiso   1.00
O240   O     0.21539  -0.00000   0.16251   0.00000  Uiso   1.00
O241   O     0.00000   0.28462   0.83749   0.00000  Uiso   1.00
O242   O     0.00000   0.21539   0.16251   0.00000  Uiso   1.00
O243   O     0.21539  -0.00000   0.83749   0.00000  Uiso   1.00
O244   O     0.25000  -0.00000   0.75000   0.00000  Uiso   1.00
O245   O     0.28462  -0.00000   0.16251   0.00000  Uiso   1.00
O246   O     0.20127   0.08332   0.27298   0.00000  Uiso   1.00
O247   O     0.29874   0.41668   0.72702   0.00000  Uiso   1.00
O248   O     0.41668   0.20126   0.27298   0.00000  Uiso   1.00
O249   O     0.08332   0.29874   0.72702   0.00000  Uiso   1.00
O250   O     0.29874   0.41668   0.27298   0.00000  Uiso   1.00
O251   O     0.20127   0.08332   0.72702   0.00000  Uiso   1.00
O252   O     0.08332   0.29874   0.27298   0.00000  Uiso   1.00
O253   O     0.41668   0.20126   0.72702   0.00000  Uiso   1.00
O254   O     0.20127   0.41668   0.72702   0.00000  Uiso   1.00
O255   O     0.00000   0.25000   0.25000   0.00000  Uiso   1.00
O256   O     0.29874   0.08332   0.27298   0.00000  Uiso   1.00
O257   O     0.41668   0.29873   0.72702   0.00000  Uiso   1.00
O258   O     0.08332   0.20127   0.27298   0.00000  Uiso   1.00
O259   O     0.29874   0.08332   0.72702   0.00000  Uiso   1.00
O260   O     0.20127   0.41668   0.27298   0.00000  Uiso   1.00
O261   O     0.08332   0.20127   0.72702   0.00000  Uiso   1.00
O262   O     0.41668   0.29873   0.27298   0.00000  Uiso   1.00
O263   O     0.45127   0.33332   0.77298   0.00000  Uiso   1.00
O264   O     0.04874   0.16668   0.22702   0.00000  Uiso   1.00
O265   O     0.16668   0.45127   0.77298   0.00000  Uiso   1.00
O266   O     0.00000   0.25000   0.75000   0.00000  Uiso   1.00
O267   O     0.33332   0.04873   0.22702   0.00000  Uiso   1.00
O268   O     0.04874   0.16668   0.77298   0.00000  Uiso   1.00
O269   O     0.45127   0.33332   0.22702   0.00000  Uiso   1.00
O270   O     0.33332   0.04873   0.77298   0.00000  Uiso   1.00
O271   O     0.16668   0.45127   0.22702   0.00000  Uiso   1.00
O272   O     0.45127   0.16668   0.22702   0.00000  Uiso   1.00
O273   O     0.04874   0.33332   0.77298   0.00000  Uiso   1.00
O274   O     0.16668   0.04873   0.22702   0.00000  Uiso   1.00
O275   O     0.33332   0.45126   0.77298   0.00000  Uiso   1.00
O276   O     0.04874   0.33332   0.22702   0.00000  Uiso   1.00
O277   O     0.25000   0.46538   0.33749   0.00000  Uiso   1.00
O278   O     0.45127   0.16668   0.77298   0.00000  Uiso   1.00
O279   O     0.33332   0.45126   0.22702   0.00000  Uiso   1.00
O280   O     0.16668   0.04873   0.77298   0.00000  Uiso   1.00
O281   O     0.06475   0.29010   0.39830   0.00000  Uiso   1.00
O282   O     0.42372   0.24723   0.60003   0.00000  Uiso   1.00
O283   O     0.20604   0.43820   0.39864   0.00000  Uiso   1.00
O284   O     0.31365   0.04136   0.60269   0.00000  Uiso   1.00
O285   O     0.43526   0.20990   0.39830   0.00000  Uiso   1.00
O286   O     0.07628   0.25278   0.60003   0.00000  Uiso   1.00
O287   O     0.29397   0.06180   0.39864   0.00000  Uiso   1.00
O288   O     0.25000   0.03461   0.66251   0.00000  Uiso   1.00
O289   O     0.18635   0.45864   0.60269   0.00000  Uiso   1.00
O290   O     0.31471   0.04015   0.89829   0.00000  Uiso   1.00
O291   O     0.17373   0.49710   0.10003   0.00000  Uiso   1.00
O292   O     0.45595   0.18826   0.89863   0.00000  Uiso   1.00
O293   O     0.06370   0.29129   0.10269   0.00000  Uiso   1.00
O294   O     0.18528   0.45985   0.89829   0.00000  Uiso   1.00
O295   O     0.32628   0.00289   0.10003   0.00000  Uiso   1.00
O296   O     0.04405   0.31174   0.89863   0.00000  Uiso   1.00
O297   O     0.43630   0.20872   0.10269   0.00000  Uiso   1.00
O298   O     0.39075   0.21328   0.45983   0.00000  Uiso   1.00
O299   O     0.03462   0.25000   0.33749   0.00000  Uiso   1.00
O300   O     0.10823   0.29000   0.53968   0.00000  Uiso   1.00
O301   O     0.34124   0.07050   0.46013   0.00000  Uiso   1.00
O302   O     0.16232   0.42488   0.53967   0.00000  Uiso   1.00
O303   O     0.10925   0.28672   0.45983   0.00000  Uiso   1.00
O304   O     0.39178   0.21000   0.53968   0.00000  Uiso   1.00
O305   O     0.15876   0.42949   0.46013   0.00000  Uiso   1.00
O306   O     0.33768   0.07512   0.53967   0.00000  Uiso   1.00
O307   O     0.14079   0.46316   0.95983   0.00000  Uiso   1.00
O308   O     0.35816   0.04017   0.03968   0.00000  Uiso   1.00
O309   O     0.09133   0.32039   0.96012   0.00000  Uiso   1.00
O310   O     0.46539   0.25000   0.66251   0.00000  Uiso   1.00
O311   O     0.41223   0.17498   0.03967   0.00000  Uiso   1.00
O312   O     0.35921   0.03686   0.95983   0.00000  Uiso   1.00
O313   O     0.14184   0.45983   0.03968   0.00000  Uiso   1.00
O314   O     0.40867   0.17961   0.96013   0.00000  Uiso   1.00
O315   O     0.08778   0.32502   0.03967   0.00000  Uiso   1.00
O316   O     0.25000   0.03461   0.33749   0.00000  Uiso   1.00
Zn317  Zn    0.20053  -0.00000   0.21730   0.00000  Uiso   1.00
Zn318  Zn    0.04948   0.25000   0.28270   0.00000  Uiso   1.00
Zn319  Zn    0.25000   0.45052   0.71730   0.00000  Uiso   1.00
Zn320  Zn    0.25000   0.04947   0.28270   0.00000  Uiso   1.00
Zn321  Zn    0.04948   0.25000   0.71730   0.00000  Uiso   1.00
Zn322  Zn    0.45053   0.25000   0.28270   0.00000  Uiso   1.00
Zn323  Zn    0.25000   0.04947   0.71730   0.00000  Uiso   1.00
Zn324  Zn    0.25000   0.45052   0.28270   0.00000  Uiso   1.00
Zn325  Zn    0.29948  -0.00000   0.78270   0.00000  Uiso   1.00
Zn326  Zn    0.00000   0.20052   0.21730   0.00000  Uiso   1.00
Zn327  Zn    0.00000   0.29947   0.78270   0.00000  Uiso   1.00
Zn328  Zn    0.29948  -0.00000   0.21730   0.00000  Uiso   1.00
Zn329  Zn    0.20053  -0.00000   0.78270   0.00000  Uiso   1.00
Zn330  Zn    0.00000   0.29948   0.21730   0.00000  Uiso   1.00
Zn331  Zn    0.00000   0.20052   0.78270   0.00000  Uiso   1.00
Zn332  Zn    0.45053   0.25000   0.71730   0.00000  Uiso   1.00
C333   C     0.75000  -0.00000   0.35606   0.00000  Uiso   1.00
C334   C     0.83002   0.42000   0.75000   0.00000  Uiso   1.00
C335   C     0.93867   0.20264   0.02026   0.00000  Uiso   1.00
C336   C     0.82198   0.02874   0.97963   0.00000  Uiso   1.00
C337   C     0.67766   0.47304   0.02024   0.00000  Uiso   1.00
C338   C     0.93920   0.20251   0.97958   0.00000  Uiso   1.00
C339   C     0.56133   0.29736   0.02026   0.00000  Uiso   1.00
C340   C     0.55038   0.33135   0.39058   0.00000  Uiso   1.00
C341   C     0.90736   0.28839   0.59721   0.00000  Uiso   1.00
C342   C     0.72922   0.40058   0.40289   0.00000  Uiso   1.00
C343   C     0.84378   0.01106   0.61420   0.00000  Uiso   1.00
C344   C     0.94962   0.16865   0.39058   0.00000  Uiso   1.00
C345   C     0.91999   0.17000   0.25001   0.00000  Uiso   1.00
C346   C     0.59264   0.21162   0.59721   0.00000  Uiso   1.00
C347   C     0.77079   0.09942   0.40289   0.00000  Uiso   1.00
C348   C     0.65622   0.48895   0.61420   0.00000  Uiso   1.00
C349   C     0.80032   0.08139   0.89056   0.00000  Uiso   1.00
C350   C     0.65729   0.03823   0.09721   0.00000  Uiso   1.00
C351   C     0.97908   0.15060   0.90289   0.00000  Uiso   1.00
C352   C     0.59380   0.26095   0.11420   0.00000  Uiso   1.00
C353   C     0.69968   0.41861   0.89057   0.00000  Uiso   1.00
C354   C     0.84271   0.46176   0.09721   0.00000  Uiso   1.00
C355   C     0.52092   0.34940   0.90289   0.00000  Uiso   1.00
C356   C     0.58002   0.33000   0.75000   0.00000  Uiso   1.00
C357   C     0.90620   0.23907   0.11419   0.00000  Uiso   1.00
C358   C     0.87969   0.17026   0.46236   0.00000  Uiso   1.00
C359   C     0.60086   0.33035   0.55565   0.00000  Uiso   1.00
C360   C     0.87178   0.04255   0.44494   0.00000  Uiso   1.00
C361   C     0.62013   0.43904   0.53834   0.00000  Uiso   1.00
C362   C     0.62032   0.32974   0.46236   0.00000  Uiso   1.00
C363   C     0.89915   0.16965   0.55566   0.00000  Uiso   1.00
C364   C     0.62822   0.45744   0.44494   0.00000  Uiso   1.00
C365   C     0.87987   0.06095   0.53834   0.00000  Uiso   1.00
C366   C     0.62977   0.42013   0.96236   0.00000  Uiso   1.00
C367   C     0.83001   0.41999   0.24998   0.00000  Uiso   1.00
C368   C     0.85073   0.08050   0.05565   0.00000  Uiso   1.00
C369   C     0.62183   0.29239   0.94494   0.00000  Uiso   1.00
C370   C     0.87006   0.18919   0.03834   0.00000  Uiso   1.00
C371   C     0.87022   0.07989   0.96236   0.00000  Uiso   1.00
C372   C     0.64928   0.41949   0.05564   0.00000  Uiso   1.00
C373   C     0.87817   0.20760   0.94494   0.00000  Uiso   1.00
C374   C     0.62995   0.31080   0.03834   0.00000  Uiso   1.00
C375   C     0.66998   0.08000   0.75000   0.00000  Uiso   1.00
C376   C     0.58001   0.33000   0.25001   0.00000  Uiso   1.00
C377   C     0.91998   0.17000   0.75000   0.00000  Uiso   1.00
C378   C     0.66999   0.42000   0.75001   0.00000  Uiso   1.00
C379   C     0.83002   0.08000   0.25000   0.00000  Uiso   1.00
C380   C     0.91999   0.33001   0.74998   0.00000  Uiso   1.00
C381   C     0.75000  -0.00000   0.64414   0.00000  Uiso   1.00
C382   C     0.58002   0.17000   0.25000   0.00000  Uiso   1.00
C383   C     0.83001   0.08000   0.75001   0.00000  Uiso   1.00
C384   C     0.66998   0.42000   0.25000   0.00000  Uiso   1.00
C385   C     0.58001   0.16999   0.74998   0.00000  Uiso   1.00
C386   C     0.91998   0.33000   0.25000   0.00000  Uiso   1.00
C387   C     0.63832   0.38835   0.25000   0.00000  Uiso   1.00
C388   C     0.86167   0.11166   0.75002   0.00000  Uiso   1.00
C389   C     0.61168   0.13835   0.25000   0.00000  Uiso   1.00
C390   C     0.88833   0.36166   0.74998   0.00000  Uiso   1.00
C391   C     0.86168   0.11165   0.25000   0.00000  Uiso   1.00
C392   C     0.50000   0.25000   0.35596   0.00000  Uiso   1.00
C393   C     0.63833   0.38834   0.75002   0.00000  Uiso   1.00
C394   C     0.88832   0.36165   0.25000   0.00000  Uiso   1.00
C395   C     0.61167   0.13834   0.74998   0.00000  Uiso   1.00
C396   C     0.63832   0.11165   0.75000   0.00000  Uiso   1.00
C397   C     0.86167   0.38834   0.24998   0.00000  Uiso   1.00
C398   C     0.61168   0.36165   0.75000   0.00000  Uiso   1.00
C399   C     0.88833   0.13834   0.25002   0.00000  Uiso   1.00
C400   C     0.86168   0.38835   0.75000   0.00000  Uiso   1.00
C401   C     0.63833   0.11166   0.24998   0.00000  Uiso   1.00
C402   C     0.88832   0.13835   0.75000   0.00000  Uiso   1.00
C403   C     0.50000   0.25000   0.64384   0.00000  Uiso   1.00
C404   C     0.61167   0.36166   0.25002   0.00000  Uiso   1.00
C405   C     0.53366   0.26873   0.41846   0.00000  Uiso   1.00
C406   C     0.96185   0.24602   0.58061   0.00000  Uiso   1.00
C407   C     0.72643   0.46979   0.41893   0.00000  Uiso   1.00
C408   C     0.78192   0.02158   0.58194   0.00000  Uiso   1.00
C409   C     0.96634   0.23127   0.41846   0.00000  Uiso   1.00
C410   C     0.53815   0.25398   0.58061   0.00000  Uiso   1.00
C411   C     0.77357   0.03020   0.41893   0.00000  Uiso   1.00
C412   C     0.71808   0.47842   0.58194   0.00000  Uiso   1.00
C413   C     0.78364   0.01876   0.91846   0.00000  Uiso   1.00
C414   C     0.50000   0.25000   0.85606   0.00000  Uiso   1.00
C415   C     0.71185   0.49596   0.08061   0.00000  Uiso   1.00
C416   C     0.97639   0.21982   0.91893   0.00000  Uiso   1.00
C417   C     0.53195   0.27154   0.08194   0.00000  Uiso   1.00
C418   C     0.71635   0.48124   0.91846   0.00000  Uiso   1.00
C419   C     0.78815   0.00404   0.08061   0.00000  Uiso   1.00
C420   C     0.52361   0.28018   0.91893   0.00000  Uiso   1.00
C421   C     0.96805   0.22847   0.08194   0.00000  Uiso   1.00
C422   C     0.50000   0.25000   0.39832   0.00000  Uiso   1.00
C423   C     0.50000   0.25000   0.60117   0.00000  Uiso   1.00
C424   C     0.75000  -0.00000   0.39860   0.00000  Uiso   1.00
C425   C     0.50000   0.25000   0.14414   0.00000  Uiso   1.00
C426   C     0.75000  -0.00000   0.60188   0.00000  Uiso   1.00
C427   C     0.75000   0.00000   0.89832   0.00000  Uiso   1.00
C428   C     0.75000  -0.00000   0.10117   0.00000  Uiso   1.00
C429   C     0.50000   0.25000   0.89860   0.00000  Uiso   1.00
C430   C     0.50000   0.25000   0.10188   0.00000  Uiso   1.00
C431   C     0.96432   0.23451   0.45904   0.00000  Uiso   1.00
C432   C     0.53703   0.26083   0.54039   0.00000  Uiso   1.00
C433   C     0.77857   0.02594   0.45937   0.00000  Uiso   1.00
C434   C     0.71897   0.47644   0.54110   0.00000  Uiso   1.00
C435   C     0.53568   0.26549   0.45904   0.00000  Uiso   1.00
C436   C     0.75000  -0.00000   0.85596   0.00000  Uiso   1.00
C437   C     0.96297   0.23917   0.54039   0.00000  Uiso   1.00
C438   C     0.72143   0.47406   0.45937   0.00000  Uiso   1.00
C439   C     0.78103   0.02356   0.54110   0.00000  Uiso   1.00
C440   C     0.71433   0.48447   0.95904   0.00000  Uiso   1.00
C441   C     0.78702   0.01088   0.04039   0.00000  Uiso   1.00
C442   C     0.52860   0.27591   0.95936   0.00000  Uiso   1.00
C443   C     0.96894   0.22648   0.04110   0.00000  Uiso   1.00
C444   C     0.78566   0.01553   0.95904   0.00000  Uiso   1.00
C445   C     0.71299   0.48912   0.04039   0.00000  Uiso   1.00
C446   C     0.97140   0.22409   0.95936   0.00000  Uiso   1.00
C447   C     0.75000  -0.00000   0.14384   0.00000  Uiso   1.00
C448   C     0.53106   0.27352   0.04109   0.00000  Uiso   1.00
C449   C     0.50000   0.25000   0.47934   0.00000  Uiso   1.00
C450   C     0.50000   0.25000   0.51997   0.00000  Uiso   1.00
C451   C     0.75000  -0.00000   0.47990   0.00000  Uiso   1.00
C452   C     0.75000  -0.00000   0.52072   0.00000  Uiso   1.00
C453   C     0.75000   0.00000   0.97934   0.00000  Uiso   1.00
C454   C     0.75000   0.00000   0.01997   0.00000  Uiso   1.00
C455   C     0.50000   0.25000   0.97989   0.00000  Uiso   1.00
C456   C     0.50000   0.25000   0.02072   0.00000  Uiso   1.00
C457   C     0.92799   0.22135   0.47963   0.00000  Uiso   1.00
C458   C     0.66999   0.08001   0.24998   0.00000  Uiso   1.00
C459   C     0.57238   0.27685   0.52024   0.00000  Uiso   1.00
C460   C     0.81074   0.04756   0.47958   0.00000  Uiso   1.00
C461   C     0.68873   0.45257   0.52026   0.00000  Uiso   1.00
C462   C     0.57201   0.27865   0.47963   0.00000  Uiso   1.00
C463   C     0.92762   0.22315   0.52024   0.00000  Uiso   1.00
C464   C     0.68926   0.45243   0.47958   0.00000  Uiso   1.00
C465   C     0.81127   0.04743   0.52026   0.00000  Uiso   1.00
C466   C     0.67802   0.47126   0.97963   0.00000  Uiso   1.00
C467   C     0.82234   0.02696   0.02024   0.00000  Uiso   1.00
C468   C     0.56080   0.29749   0.97958   0.00000  Uiso   1.00
H469   H     0.53927   0.34759   0.41723   0.00000  Uiso   1.00
H470   H     0.85262   0.48931   0.59028   0.00000  Uiso   1.00
H471   H     0.83252   0.49261   0.63939   0.00000  Uiso   1.00
H472   H     0.87280   0.02773   0.62346   0.00000  Uiso   1.00
H473   H     0.96074   0.15242   0.41722   0.00000  Uiso   1.00
H474   H     0.97512   0.16869   0.36857   0.00000  Uiso   1.00
H475   H     0.92301   0.15006   0.37869   0.00000  Uiso   1.00
H476   H     0.59960   0.20307   0.56668   0.00000  Uiso   1.00
H477   H     0.57083   0.18813   0.61030   0.00000  Uiso   1.00
H478   H     0.62272   0.21027   0.61350   0.00000  Uiso   1.00
H479   H     0.77048   0.11033   0.43343   0.00000  Uiso   1.00
H480   H     0.52487   0.33131   0.36858   0.00000  Uiso   1.00
H481   H     0.73793   0.09580   0.39210   0.00000  Uiso   1.00
H482   H     0.78619   0.12431   0.38538   0.00000  Uiso   1.00
H483   H     0.64738   0.01070   0.59028   0.00000  Uiso   1.00
H484   H     0.66748   0.00740   0.63939   0.00000  Uiso   1.00
H485   H     0.62720   0.47229   0.62345   0.00000  Uiso   1.00
H486   H     0.78919   0.09762   0.91720   0.00000  Uiso   1.00
H487   H     0.77481   0.08132   0.86855   0.00000  Uiso   1.00
H488   H     0.82691   0.09999   0.87865   0.00000  Uiso   1.00
H489   H     0.65031   0.04676   0.06668   0.00000  Uiso   1.00
H490   H     0.67906   0.06175   0.11030   0.00000  Uiso   1.00
H491   H     0.57699   0.34994   0.37868   0.00000  Uiso   1.00
H492   H     0.62721   0.03952   0.11351   0.00000  Uiso   1.00
H493   H     0.97937   0.13969   0.93343   0.00000  Uiso   1.00
H494   H     0.51195   0.15418   0.89210   0.00000  Uiso   1.00
H495   H     0.96365   0.12574   0.88538   0.00000  Uiso   1.00
H496   H     0.60262   0.23919   0.09027   0.00000  Uiso   1.00
H497   H     0.58251   0.24251   0.13938   0.00000  Uiso   1.00
H498   H     0.62283   0.27758   0.12346   0.00000  Uiso   1.00
H499   H     0.71083   0.40239   0.91720   0.00000  Uiso   1.00
H500   H     0.72516   0.41868   0.86854   0.00000  Uiso   1.00
H501   H     0.67307   0.40001   0.87868   0.00000  Uiso   1.00
H502   H     0.90039   0.29693   0.56668   0.00000  Uiso   1.00
H503   H     0.84969   0.45323   0.06667   0.00000  Uiso   1.00
H504   H     0.82093   0.43824   0.11029   0.00000  Uiso   1.00
H505   H     0.87279   0.46046   0.11350   0.00000  Uiso   1.00
H506   H     0.52062   0.36031   0.93343   0.00000  Uiso   1.00
H507   H     0.98805   0.34582   0.89210   0.00000  Uiso   1.00
H508   H     0.53635   0.37426   0.88538   0.00000  Uiso   1.00
H509   H     0.89739   0.26082   0.09026   0.00000  Uiso   1.00
H510   H     0.91749   0.25752   0.13937   0.00000  Uiso   1.00
H511   H     0.87716   0.22245   0.12345   0.00000  Uiso   1.00
H512   H     0.90712   0.14881   0.46641   0.00000  Uiso   1.00
H513   H     0.92918   0.31187   0.61029   0.00000  Uiso   1.00
H514   H     0.86409   0.16095   0.43497   0.00000  Uiso   1.00
H515   H     0.85629   0.16547   0.48576   0.00000  Uiso   1.00
H516   H     0.58151   0.32854   0.58230   0.00000  Uiso   1.00
H517   H     0.58527   0.35212   0.53495   0.00000  Uiso   1.00
H518   H     0.63163   0.34438   0.56372   0.00000  Uiso   1.00
H519   H     0.85950   0.02468   0.41979   0.00000  Uiso   1.00
H520   H     0.88357   0.01986   0.46691   0.00000  Uiso   1.00
H521   H     0.89913   0.06129   0.43477   0.00000  Uiso   1.00
H522   H     0.61698   0.47391   0.53627   0.00000  Uiso   1.00
H523   H     0.60413   0.42912   0.56534   0.00000  Uiso   1.00
H524   H     0.87729   0.28974   0.61351   0.00000  Uiso   1.00
H525   H     0.60314   0.42362   0.51421   0.00000  Uiso   1.00
H526   H     0.59289   0.35119   0.46641   0.00000  Uiso   1.00
H527   H     0.63592   0.33905   0.43497   0.00000  Uiso   1.00
H528   H     0.64372   0.33452   0.48576   0.00000  Uiso   1.00
H529   H     0.91850   0.17147   0.58229   0.00000  Uiso   1.00
H530   H     0.91474   0.14788   0.53495   0.00000  Uiso   1.00
H531   H     0.86838   0.15561   0.56373   0.00000  Uiso   1.00
H532   H     0.64050   0.47530   0.41979   0.00000  Uiso   1.00
H533   H     0.61644   0.48013   0.46691   0.00000  Uiso   1.00
H534   H     0.60088   0.43869   0.43478   0.00000  Uiso   1.00
H535   H     0.72954   0.38966   0.43343   0.00000  Uiso   1.00
H536   H     0.88302   0.02609   0.53628   0.00000  Uiso   1.00
H537   H     0.89587   0.07088   0.56534   0.00000  Uiso   1.00
H538   H     0.89686   0.07638   0.51421   0.00000  Uiso   1.00
H539   H     0.65722   0.39870   0.96639   0.00000  Uiso   1.00
H540   H     0.61417   0.41080   0.93497   0.00000  Uiso   1.00
H541   H     0.60638   0.41531   0.98576   0.00000  Uiso   1.00
H542   H     0.83136   0.07866   0.08228   0.00000  Uiso   1.00
H543   H     0.83513   0.10225   0.03493   0.00000  Uiso   1.00
H544   H     0.88148   0.09457   0.06375   0.00000  Uiso   1.00
H545   H     0.60954   0.27455   0.91979   0.00000  Uiso   1.00
H546   H     0.76208   0.40420   0.39210   0.00000  Uiso   1.00
H547   H     0.63358   0.26969   0.96691   0.00000  Uiso   1.00
H548   H     0.64921   0.31110   0.93478   0.00000  Uiso   1.00
H549   H     0.86694   0.22406   0.03626   0.00000  Uiso   1.00
H550   H     0.85404   0.17929   0.06534   0.00000  Uiso   1.00
H551   H     0.85305   0.17378   0.01421   0.00000  Uiso   1.00
H552   H     0.84277   0.10131   0.96641   0.00000  Uiso   1.00
H553   H     0.88581   0.08922   0.93497   0.00000  Uiso   1.00
H554   H     0.89361   0.08471   0.98576   0.00000  Uiso   1.00
H555   H     0.66865   0.42133   0.08227   0.00000  Uiso   1.00
H556   H     0.66487   0.39774   0.03492   0.00000  Uiso   1.00
H557   H     0.71382   0.37569   0.38538   0.00000  Uiso   1.00
H558   H     0.61853   0.40542   0.06374   0.00000  Uiso   1.00
H559   H     0.89046   0.22544   0.91979   0.00000  Uiso   1.00
H560   H     0.86642   0.23031   0.96691   0.00000  Uiso   1.00
H561   H     0.85079   0.18889   0.93479   0.00000  Uiso   1.00
H562   H     0.63306   0.27593   0.03626   0.00000  Uiso   1.00
H563   H     0.64596   0.32071   0.06533   0.00000  Uiso   1.00
H564   H     0.64695   0.32621   0.01420   0.00000  Uiso   1.00
O565   O     0.75000  -0.00000   0.25000   0.00000  Uiso   1.00
O566   O     0.75000   0.46538   0.66251   0.00000  Uiso   1.00
O567   O     0.96539   0.25000   0.33749   0.00000  Uiso   1.00
O568   O     0.53462   0.25000   0.66251   0.00000  Uiso   1.00
O569   O     0.50000   0.21539   0.83749   0.00000  Uiso   1.00
O570   O     0.50000   0.28462   0.16251   0.00000  Uiso   1.00
O571   O     0.78462  -0.00000   0.83749   0.00000  Uiso   1.00
O572   O     0.71539  -0.00000   0.16251   0.00000  Uiso   1.00
O573   O     0.50000   0.28462   0.83749   0.00000  Uiso   1.00
O574   O     0.50000   0.21539   0.16251   0.00000  Uiso   1.00
O575   O     0.71539  -0.00000   0.83749   0.00000  Uiso   1.00
O576   O     0.75000  -0.00000   0.75000   0.00000  Uiso   1.00
O577   O     0.78462  -0.00000   0.16251   0.00000  Uiso   1.00
O578   O     0.70127   0.08332   0.27298   0.00000  Uiso   1.00
O579   O     0.79874   0.41668   0.72702   0.00000  Uiso   1.00
O580   O     0.91668   0.20126   0.27298   0.00000  Uiso   1.00
O581   O     0.58332   0.29874   0.72702   0.00000  Uiso   1.00
O582   O     0.79874   0.41668   0.27298   0.00000  Uiso   1.00
O583   O     0.70127   0.08332   0.72702   0.00000  Uiso   1.00
O584   O     0.58332   0.29874   0.27298   0.00000  Uiso   1.00
O585   O     0.91668   0.20126   0.72702   0.00000  Uiso   1.00
O586   O     0.70127   0.41668   0.72702   0.00000  Uiso   1.00
O587   O     0.50000   0.25000   0.25000   0.00000  Uiso   1.00
O588   O     0.79874   0.08332   0.27298   0.00000  Uiso   1.00
O589   O     0.91668   0.29873   0.72702   0.00000  Uiso   1.00
O590   O     0.58332   0.20127   0.27298   0.00000  Uiso   1.00
O591   O     0.79874   0.08332   0.72702   0.00000  Uiso   1.00
O592   O     0.70127   0.41668   0.27298   0.00000  Uiso   1.00
O593   O     0.58332   0.20127   0.72702   0.00000  Uiso   1.00
O594   O     0.91668   0.29873   0.27298   0.00000  Uiso   1.00
O595   O     0.95127   0.33332   0.77298   0.00000  Uiso   1.00
O596   O     0.54874   0.16668   0.22702   0.00000  Uiso   1.00
O597   O     0.66668   0.45127   0.77298   0.00000  Uiso   1.00
O598   O     0.50000   0.25000   0.75000   0.00000  Uiso   1.00
O599   O     0.83332   0.04873   0.22702   0.00000  Uiso   1.00
O600   O     0.54874   0.16668   0.77298   0.00000  Uiso   1.00
O601   O     0.95127   0.33332   0.22702   0.00000  Uiso   1.00
O602   O     0.83332   0.04873   0.77298   0.00000  Uiso   1.00
O603   O     0.66668   0.45127   0.22702   0.00000  Uiso   1.00
O604   O     0.95127   0.16668   0.22702   0.00000  Uiso   1.00
O605   O     0.54874   0.33332   0.77298   0.00000  Uiso   1.00
O606   O     0.66668   0.04873   0.22702   0.00000  Uiso   1.00
O607   O     0.83332   0.45126   0.77298   0.00000  Uiso   1.00
O608   O     0.54874   0.33332   0.22702   0.00000  Uiso   1.00
O609   O     0.75000   0.46538   0.33749   0.00000  Uiso   1.00
O610   O     0.95127   0.16668   0.77298   0.00000  Uiso   1.00
O611   O     0.83332   0.45126   0.22702   0.00000  Uiso   1.00
O612   O     0.66668   0.04873   0.77298   0.00000  Uiso   1.00
O613   O     0.56475   0.29010   0.39830   0.00000  Uiso   1.00
O614   O     0.92372   0.24723   0.60003   0.00000  Uiso   1.00
O615   O     0.70604   0.43820   0.39864   0.00000  Uiso   1.00
O616   O     0.81365   0.04136   0.60269   0.00000  Uiso   1.00
O617   O     0.93526   0.20990   0.39830   0.00000  Uiso   1.00
O618   O     0.57628   0.25278   0.60003   0.00000  Uiso   1.00
O619   O     0.79397   0.06180   0.39864   0.00000  Uiso   1.00
O620   O     0.75000   0.03461   0.66251   0.00000  Uiso   1.00
O621   O     0.68635   0.45864   0.60269   0.00000  Uiso   1.00
O622   O     0.81471   0.04015   0.89829   0.00000  Uiso   1.00
O623   O     0.67373   0.49710   0.10003   0.00000  Uiso   1.00
O624   O     0.95595   0.18826   0.89863   0.00000  Uiso   1.00
O625   O     0.56370   0.29129   0.10269   0.00000  Uiso   1.00
O626   O     0.68528   0.45985   0.89829   0.00000  Uiso   1.00
O627   O     0.82628   0.00289   0.10003   0.00000  Uiso   1.00
O628   O     0.54405   0.31174   0.89863   0.00000  Uiso   1.00
O629   O     0.93630   0.20872   0.10269   0.00000  Uiso   1.00
O630   O     0.89075   0.21328   0.45983   0.00000  Uiso   1.00
O631   O     0.53462   0.25000   0.33749   0.00000  Uiso   1.00
O632   O     0.60823   0.29000   0.53968   0.00000  Uiso   1.00
O633   O     0.84124   0.07050   0.46013   0.00000  Uiso   1.00
O634   O     0.66232   0.42488   0.53967   0.00000  Uiso   1.00
O635   O     0.60925   0.28672   0.45983   0.00000  Uiso   1.00
O636   O     0.89178   0.21000   0.53968   0.00000  Uiso   1.00
O637   O     0.65876   0.42949   0.46013   0.00000  Uiso   1.00
O638   O     0.83768   0.07512   0.53967   0.00000  Uiso   1.00
O639   O     0.64079   0.46316   0.95983   0.00000  Uiso   1.00
O640   O     0.85816   0.04017   0.03968   0.00000  Uiso   1.00
O641   O     0.59133   0.32039   0.96012   0.00000  Uiso   1.00
O642   O     0.96539   0.25000   0.66251   0.00000  Uiso   1.00
O643   O     0.91223   0.17498   0.03967   0.00000  Uiso   1.00
O644   O     0.85921   0.03686   0.95983   0.00000  Uiso   1.00
O645   O     0.64184   0.45983   0.03968   0.00000  Uiso   1.00
O646   O     0.90867   0.17961   0.96013   0.00000  Uiso   1.00
O647   O     0.58778   0.32502   0.03967   0.00000  Uiso   1.00
O648   O     0.75000   0.03461   0.33749   0.00000  Uiso   1.00
Zn649  Zn    0.70053  -0.00000   0.21730   0.00000  Uiso   1.00
Zn650  Zn    0.54948   0.25000   0.28270   0.00000  Uiso   1.00
Zn651  Zn    0.75000   0.45052   0.71730   0.00000  Uiso   1.00
Zn652  Zn    0.75000   0.04947   0.28270   0.00000  Uiso   1.00
Zn653  Zn    0.54948   0.25000   0.71730   0.00000  Uiso   1.00
Zn654  Zn    0.95053   0.25000   0.28270   0.00000  Uiso   1.00
Zn655  Zn    0.75000   0.04947   0.71730   0.00000  Uiso   1.00
Zn656  Zn    0.75000   0.45052   0.28270   0.00000  Uiso   1.00
Zn657  Zn    0.79948  -0.00000   0.78270   0.00000  Uiso   1.00
Zn658  Zn    0.50000   0.20052   0.21730   0.00000  Uiso   1.00
Zn659  Zn    0.50000   0.29947   0.78270   0.00000  Uiso   1.00
Zn660  Zn    0.79948  -0.00000   0.21730   0.00000  Uiso   1.00
Zn661  Zn    0.70053  -0.00000   0.78270   0.00000  Uiso   1.00
Zn662  Zn    0.50000   0.29948   0.21730   0.00000  Uiso   1.00
Zn663  Zn    0.50000   0.20052   0.78270   0.00000  Uiso   1.00
Zn664  Zn    0.95053   0.25000   0.71730   0.00000  Uiso   1.00
C665   C     0.25000   0.50000   0.35606   0.00000  Uiso   1.00
C666   C     0.33002   0.92000   0.75000   0.00000  Uiso   1.00
C667   C     0.43867   0.70264   0.02026   0.00000  Uiso   1.00
C668   C     0.32198   0.52874   0.97963   0.00000  Uiso   1.00
C669   C     0.17766   0.97304   0.02024   0.00000  Uiso   1.00
C670   C     0.43920   0.70251   0.97958   0.00000  Uiso   1.00
C671   C     0.06133   0.79736   0.02026   0.00000  Uiso   1.00
C672   C     0.05038   0.83135   0.39058   0.00000  Uiso   1.00
C673   C     0.40736   0.78839   0.59721   0.00000  Uiso   1.00
C674   C     0.22922   0.90058   0.40289   0.00000  Uiso   1.00
C675   C     0.34378   0.51106   0.61420   0.00000  Uiso   1.00
C676   C     0.44962   0.66865   0.39058   0.00000  Uiso   1.00
C677   C     0.41999   0.67000   0.25001   0.00000  Uiso   1.00
C678   C     0.09264   0.71162   0.59721   0.00000  Uiso   1.00
C679   C     0.27079   0.59942   0.40289   0.00000  Uiso   1.00
C680   C     0.15622   0.98895   0.61420   0.00000  Uiso   1.00
C681   C     0.30032   0.58139   0.89056   0.00000  Uiso   1.00
C682   C     0.15729   0.53823   0.09721   0.00000  Uiso   1.00
C683   C     0.47908   0.65060   0.90289   0.00000  Uiso   1.00
C684   C     0.09380   0.76095   0.11420   0.00000  Uiso   1.00
C685   C     0.19968   0.91861   0.89057   0.00000  Uiso   1.00
C686   C     0.34271   0.96176   0.09721   0.00000  Uiso   1.00
C687   C     0.02092   0.84940   0.90289   0.00000  Uiso   1.00
C688   C     0.08002   0.83000   0.75000   0.00000  Uiso   1.00
C689   C     0.40620   0.73907   0.11419   0.00000  Uiso   1.00
C690   C     0.37969   0.67026   0.46236   0.00000  Uiso   1.00
C691   C     0.10086   0.83035   0.55565   0.00000  Uiso   1.00
C692   C     0.37178   0.54255   0.44494   0.00000  Uiso   1.00
C693   C     0.12013   0.93904   0.53834   0.00000  Uiso   1.00
C694   C     0.12032   0.82974   0.46236   0.00000  Uiso   1.00
C695   C     0.39915   0.66965   0.55566   0.00000  Uiso   1.00
C696   C     0.12822   0.95744   0.44494   0.00000  Uiso   1.00
C697   C     0.37987   0.56095   0.53834   0.00000  Uiso   1.00
C698   C     0.12977   0.92013   0.96236   0.00000  Uiso   1.00
C699   C     0.33001   0.91999   0.24998   0.00000  Uiso   1.00
C700   C     0.35073   0.58050   0.05565   0.00000  Uiso   1.00
C701   C     0.12183   0.79239   0.94494   0.00000  Uiso   1.00
C702   C     0.37006   0.68919   0.03834   0.00000  Uiso   1.00
C703   C     0.37022   0.57989   0.96236   0.00000  Uiso   1.00
C704   C     0.14928   0.91949   0.05564   0.00000  Uiso   1.00
C705   C     0.37817   0.70760   0.94494   0.00000  Uiso   1.00
C706   C     0.12995   0.81080   0.03834   0.00000  Uiso   1.00
C707   C     0.16998   0.58000   0.75000   0.00000  Uiso   1.00
C708   C     0.08001   0.83000   0.25001   0.00000  Uiso   1.00
C709   C     0.41998   0.67000   0.75000   0.00000  Uiso   1.00
C710   C     0.16999   0.92000   0.75001   0.00000  Uiso   1.00
C711   C     0.33002   0.58000   0.25000   0.00000  Uiso   1.00
C712   C     0.41999   0.83001   0.74998   0.00000  Uiso   1.00
C713   C     0.25000   0.50000   0.64414   0.00000  Uiso   1.00
C714   C     0.08002   0.67000   0.25000   0.00000  Uiso   1.00
C715   C     0.33001   0.58000   0.75001   0.00000  Uiso   1.00
C716   C     0.16998   0.92000   0.25000   0.00000  Uiso   1.00
C717   C     0.08001   0.66999   0.74998   0.00000  Uiso   1.00
C718   C     0.41998   0.83000   0.25000   0.00000  Uiso   1.00
C719   C     0.13832   0.88835   0.25000   0.00000  Uiso   1.00
C720   C     0.36167   0.61166   0.75002   0.00000  Uiso   1.00
C721   C     0.11168   0.63835   0.25000   0.00000  Uiso   1.00
C722   C     0.38833   0.86166   0.74998   0.00000  Uiso   1.00
C723   C     0.36168   0.61165   0.25000   0.00000  Uiso   1.00
C724   C     0.00000   0.75000   0.35596   0.00000  Uiso   1.00
C725   C     0.13833   0.88834   0.75002   0.00000  Uiso   1.00
C726   C     0.38832   0.86165   0.25000   0.00000  Uiso   1.00
C727   C     0.11167   0.63834   0.74998   0.00000  Uiso   1.00
C728   C     0.13832   0.61165   0.75000   0.00000  Uiso   1.00
C729   C     0.36167   0.88834   0.24998   0.00000  Uiso   1.00
C730   C     0.11168   0.86165   0.75000   0.00000  Uiso   1.00
C731   C     0.38833   0.63834   0.25002   0.00000  Uiso   1.00
C732   C     0.36168   0.88835   0.75000   0.00000  Uiso   1.00
C733   C     0.13833   0.61166   0.24998   0.00000  Uiso   1.00
C734   C     0.38832   0.63835   0.75000   0.00000  Uiso   1.00
C735   C     0.00000   0.75000   0.64384   0.00000  Uiso   1.00
C736   C     0.11167   0.86166   0.25002   0.00000  Uiso   1.00
C737   C     0.03366   0.76873   0.41846   0.00000  Uiso   1.00
C738   C     0.46185   0.74602   0.58061   0.00000  Uiso   1.00
C739   C     0.22643   0.96979   0.41893   0.00000  Uiso   1.00
C740   C     0.28192   0.52158   0.58194   0.00000  Uiso   1.00
C741   C     0.46634   0.73127   0.41846   0.00000  Uiso   1.00
C742   C     0.03815   0.75398   0.58061   0.00000  Uiso   1.00
C743   C     0.27357   0.53020   0.41893   0.00000  Uiso   1.00
C744   C     0.21808   0.97842   0.58194   0.00000  Uiso   1.00
C745   C     0.28364   0.51876   0.91846   0.00000  Uiso   1.00
C746   C    -0.00000   0.75000   0.85606   0.00000  Uiso   1.00
C747   C     0.21185   0.99596   0.08061   0.00000  Uiso   1.00
C748   C     0.47639   0.71982   0.91893   0.00000  Uiso   1.00
C749   C     0.03195   0.77154   0.08194   0.00000  Uiso   1.00
C750   C     0.21635   0.98124   0.91846   0.00000  Uiso   1.00
C751   C     0.28815   0.50404   0.08061   0.00000  Uiso   1.00
C752   C     0.02361   0.78018   0.91893   0.00000  Uiso   1.00
C753   C     0.46805   0.72847   0.08194   0.00000  Uiso   1.00
C754   C     0.00000   0.75000   0.39832   0.00000  Uiso   1.00
C755   C     0.00000   0.75000   0.60117   0.00000  Uiso   1.00
C756   C     0.25000   0.50000   0.39860   0.00000  Uiso   1.00
C757   C     0.00000   0.75000   0.14414   0.00000  Uiso   1.00
C758   C     0.25000   0.50000   0.60188   0.00000  Uiso   1.00
C759   C     0.25000   0.50000   0.89832   0.00000  Uiso   1.00
C760   C     0.25000   0.50000   0.10117   0.00000  Uiso   1.00
C761   C    -0.00000   0.75000   0.89860   0.00000  Uiso   1.00
C762   C     0.00000   0.75000   0.10188   0.00000  Uiso   1.00
C763   C     0.46432   0.73451   0.45904   0.00000  Uiso   1.00
C764   C     0.03703   0.76083   0.54039   0.00000  Uiso   1.00
C765   C     0.27857   0.52594   0.45937   0.00000  Uiso   1.00
C766   C     0.21897   0.97644   0.54110   0.00000  Uiso   1.00
C767   C     0.03568   0.76549   0.45904   0.00000  Uiso   1.00
C768   C     0.25000   0.50000   0.85596   0.00000  Uiso   1.00
C769   C     0.46297   0.73917   0.54039   0.00000  Uiso   1.00
C770   C     0.22143   0.97406   0.45937   0.00000  Uiso   1.00
C771   C     0.28103   0.52356   0.54110   0.00000  Uiso   1.00
C772   C     0.21433   0.98447   0.95904   0.00000  Uiso   1.00
C773   C     0.28702   0.51088   0.04039   0.00000  Uiso   1.00
C774   C     0.02860   0.77591   0.95936   0.00000  Uiso   1.00
C775   C     0.46894   0.72648   0.04110   0.00000  Uiso   1.00
C776   C     0.28566   0.51553   0.95904   0.00000  Uiso   1.00
C777   C     0.21299   0.98912   0.04039   0.00000  Uiso   1.00
C778   C     0.47140   0.72409   0.95936   0.00000  Uiso   1.00
C779   C     0.25000   0.50000   0.14384   0.00000  Uiso   1.00
C780   C     0.03106   0.77352   0.04109   0.00000  Uiso   1.00
C781   C     0.00000   0.75000   0.47934   0.00000  Uiso   1.00
C782   C     0.00000   0.75000   0.51997   0.00000  Uiso   1.00
C783   C     0.25000   0.50000   0.47990   0.00000  Uiso   1.00
C784   C     0.25000   0.50000   0.52072   0.00000  Uiso   1.00
C785   C     0.25000   0.50000   0.97934   0.00000  Uiso   1.00
C786   C     0.25000   0.50000   0.01997   0.00000  Uiso   1.00
C787   C     0.00000   0.75000   0.97989   0.00000  Uiso   1.00
C788   C     0.00000   0.75000   0.02072   0.00000  Uiso   1.00
C789   C     0.42799   0.72135   0.47963   0.00000  Uiso   1.00
C790   C     0.16999   0.58001   0.24998   0.00000  Uiso   1.00
C791   C     0.07238   0.77685   0.52024   0.00000  Uiso   1.00
C792   C     0.31074   0.54756   0.47958   0.00000  Uiso   1.00
C793   C     0.18873   0.95257   0.52026   0.00000  Uiso   1.00
C794   C     0.07201   0.77865   0.47963   0.00000  Uiso   1.00
C795   C     0.42762   0.72315   0.52024   0.00000  Uiso   1.00
C796   C     0.18926   0.95243   0.47958   0.00000  Uiso   1.00
C797   C     0.31127   0.54743   0.52026   0.00000  Uiso   1.00
C798   C     0.17802   0.97126   0.97963   0.00000  Uiso   1.00
C799   C     0.32234   0.52696   0.02024   0.00000  Uiso   1.00
C800   C     0.06080   0.79749   0.97958   0.00000  Uiso   1.00
H801   H     0.03927   0.84759   0.41723   0.00000  Uiso   1.00
H802   H     0.35262   0.98931   0.59028   0.00000  Uiso   1.00
H803   H     0.33252   0.99261   0.63939   0.00000  Uiso   1.00
H804   H     0.37280   0.52773   0.62346   0.00000  Uiso   1.00
H805   H     0.46074   0.65242   0.41722   0.00000  Uiso   1.00
H806   H     0.47512   0.66869   0.36857   0.00000  Uiso   1.00
H807   H     0.42301   0.65006   0.37869   0.00000  Uiso   1.00
H808   H     0.09960   0.70307   0.56668   0.00000  Uiso   1.00
H809   H     0.07083   0.68813   0.61030   0.00000  Uiso   1.00
H810   H     0.12272   0.71027   0.61350   0.00000  Uiso   1.00
H811   H     0.27048   0.61033   0.43343   0.00000  Uiso   1.00
H812   H     0.02487   0.83131   0.36858   0.00000  Uiso   1.00
H813   H     0.23793   0.59580   0.39210   0.00000  Uiso   1.00
H814   H     0.28619   0.62431   0.38538   0.00000  Uiso   1.00
H815   H     0.14738   0.51070   0.59028   0.00000  Uiso   1.00
H816   H     0.16748   0.50740   0.63939   0.00000  Uiso   1.00
H817   H     0.12720   0.97229   0.62345   0.00000  Uiso   1.00
H818   H     0.28919   0.59762   0.91720   0.00000  Uiso   1.00
H819   H     0.27481   0.58132   0.86855   0.00000  Uiso   1.00
H820   H     0.32691   0.59999   0.87865   0.00000  Uiso   1.00
H821   H     0.15031   0.54676   0.06668   0.00000  Uiso   1.00
H822   H     0.17906   0.56175   0.11030   0.00000  Uiso   1.00
H823   H     0.07699   0.84994   0.37868   0.00000  Uiso   1.00
H824   H     0.12721   0.53952   0.11351   0.00000  Uiso   1.00
H825   H     0.47937   0.63969   0.93343   0.00000  Uiso   1.00
H826   H     0.01195   0.65418   0.89210   0.00000  Uiso   1.00
H827   H     0.46365   0.62574   0.88538   0.00000  Uiso   1.00
H828   H     0.10262   0.73919   0.09027   0.00000  Uiso   1.00
H829   H     0.08251   0.74251   0.13938   0.00000  Uiso   1.00
H830   H     0.12283   0.77758   0.12346   0.00000  Uiso   1.00
H831   H     0.21083   0.90239   0.91720   0.00000  Uiso   1.00
H832   H     0.22516   0.91868   0.86854   0.00000  Uiso   1.00
H833   H     0.17307   0.90001   0.87868   0.00000  Uiso   1.00
H834   H     0.40039   0.79693   0.56668   0.00000  Uiso   1.00
H835   H     0.34969   0.95323   0.06667   0.00000  Uiso   1.00
H836   H     0.32093   0.93824   0.11029   0.00000  Uiso   1.00
H837   H     0.37279   0.96046   0.11350   0.00000  Uiso   1.00
H838   H     0.02062   0.86031   0.93343   0.00000  Uiso   1.00
H839   H     0.48805   0.84582   0.89210   0.00000  Uiso   1.00
H840   H     0.03635   0.87426   0.88538   0.00000  Uiso   1.00
H841   H     0.39739   0.76082   0.09026   0.00000  Uiso   1.00
H842   H     0.41749   0.75752   0.13937   0.00000  Uiso   1.00
H843   H     0.37716   0.72245   0.12345   0.00000  Uiso   1.00
H844   H     0.40712   0.64881   0.46641   0.00000  Uiso   1.00
H845   H     0.42918   0.81187   0.61029   0.00000  Uiso   1.00
H846   H     0.36409   0.66095   0.43497   0.00000  Uiso   1.00
H847   H     0.35629   0.66547   0.48576   0.00000  Uiso   1.00
H848   H     0.08151   0.82854   0.58230   0.00000  Uiso   1.00
H849   H     0.08527   0.85212   0.53495   0.00000  Uiso   1.00
H850   H     0.13163   0.84438   0.56372   0.00000  Uiso   1.00
H851   H     0.35950   0.52468   0.41979   0.00000  Uiso   1.00
H852   H     0.38357   0.51986   0.46691   0.00000  Uiso   1.00
H853   H     0.39913   0.56129   0.43477   0.00000  Uiso   1.00
H854   H     0.11698   0.97391   0.53627   0.00000  Uiso   1.00
H855   H     0.10413   0.92912   0.56534   0.00000  Uiso   1.00
H856   H     0.37729   0.78974   0.61351   0.00000  Uiso   1.00
H857   H     0.10314   0.92362   0.51421   0.00000  Uiso   1.00
H858   H     0.09289   0.85119   0.46641   0.00000  Uiso   1.00
H859   H     0.13592   0.83905   0.43497   0.00000  Uiso   1.00
H860   H     0.14372   0.83452   0.48576   0.00000  Uiso   1.00
H861   H     0.41850   0.67147   0.58229   0.00000  Uiso   1.00
H862   H     0.41474   0.64788   0.53495   0.00000  Uiso   1.00
H863   H     0.36838   0.65561   0.56373   0.00000  Uiso   1.00
H864   H     0.14050   0.97530   0.41979   0.00000  Uiso   1.00
H865   H     0.11644   0.98013   0.46691   0.00000  Uiso   1.00
H866   H     0.10088   0.93869   0.43478   0.00000  Uiso   1.00
H867   H     0.22954   0.88966   0.43343   0.00000  Uiso   1.00
H868   H     0.38302   0.52609   0.53628   0.00000  Uiso   1.00
H869   H     0.39587   0.57088   0.56534   0.00000  Uiso   1.00
H870   H     0.39686   0.57638   0.51421   0.00000  Uiso   1.00
H871   H     0.15722   0.89870   0.96639   0.00000  Uiso   1.00
H872   H     0.11417   0.91080   0.93497   0.00000  Uiso   1.00
H873   H     0.10638   0.91531   0.98576   0.00000  Uiso   1.00
H874   H     0.33136   0.57866   0.08228   0.00000  Uiso   1.00
H875   H     0.33513   0.60225   0.03493   0.00000  Uiso   1.00
H876   H     0.38148   0.59457   0.06375   0.00000  Uiso   1.00
H877   H     0.10954   0.77455   0.91979   0.00000  Uiso   1.00
H878   H     0.26208   0.90420   0.39210   0.00000  Uiso   1.00
H879   H     0.13358   0.76969   0.96691   0.00000  Uiso   1.00
H880   H     0.14921   0.81110   0.93478   0.00000  Uiso   1.00
H881   H     0.36694   0.72406   0.03626   0.00000  Uiso   1.00
H882   H     0.35404   0.67929   0.06534   0.00000  Uiso   1.00
H883   H     0.35305   0.67378   0.01421   0.00000  Uiso   1.00
H884   H     0.34277   0.60131   0.96641   0.00000  Uiso   1.00
H885   H     0.38581   0.58922   0.93497   0.00000  Uiso   1.00
H886   H     0.39361   0.58471   0.98576   0.00000  Uiso   1.00
H887   H     0.16865   0.92133   0.08227   0.00000  Uiso   1.00
H888   H     0.16487   0.89774   0.03492   0.00000  Uiso   1.00
H889   H     0.21382   0.87569   0.38538   0.00000  Uiso   1.00
H890   H     0.11853   0.90542   0.06374   0.00000  Uiso   1.00
H891   H     0.39046   0.72544   0.91979   0.00000  Uiso   1.00
H892   H     0.36642   0.73031   0.96691   0.00000  Uiso   1.00
H893   H     0.35079   0.68889   0.93479   0.00000  Uiso   1.00
H894   H     0.13306   0.77593   0.03626   0.00000  Uiso   1.00
H895   H     0.14596   0.82071   0.06533   0.00000  Uiso   1.00
H896   H     0.14695   0.82621   0.01420   0.00000  Uiso   1.00
O897   O     0.25000   0.50000   0.25000   0.00000  Uiso   1.00
O898   O     0.25000   0.96538   0.66251   0.00000  Uiso   1.00
O899   O     0.46539   0.75000   0.33749   0.00000  Uiso   1.00
O900   O     0.03462   0.75000   0.66251   0.00000  Uiso   1.00
O901   O     0.00000   0.71539   0.83749   0.00000  Uiso   1.00
O902   O     0.00000   0.78462   0.16251   0.00000  Uiso   1.00
O903   O     0.28462   0.50000   0.83749   0.00000  Uiso   1.00
O904   O     0.21539   0.50000   0.16251   0.00000  Uiso   1.00
O905   O     0.00000   0.78462   0.83749   0.00000  Uiso   1.00
O906   O     0.00000   0.71539   0.16251   0.00000  Uiso   1.00
O907   O     0.21539   0.50000   0.83749   0.00000  Uiso   1.00
O908   O     0.25000   0.50000   0.75000   0.00000  Uiso   1.00
O909   O     0.28462   0.50000   0.16251   0.00000  Uiso   1.00
O910   O     0.20127   0.58332   0.27298   0.00000  Uiso   1.00
O911   O     0.29874   0.91668   0.72702   0.00000  Uiso   1.00
O912   O     0.41668   0.70126   0.27298   0.00000  Uiso   1.00
O913   O     0.08332   0.79874   0.72702   0.00000  Uiso   1.00
O914   O     0.29874   0.91668   0.27298   0.00000  Uiso   1.00
O915   O     0.20127   0.58332   0.72702   0.00000  Uiso   1.00
O916   O     0.08332   0.79874   0.27298   0.00000  Uiso   1.00
O917   O     0.41668   0.70126   0.72702   0.00000  Uiso   1.00
O918   O     0.20127   0.91668   0.72702   0.00000  Uiso   1.00
O919   O     0.00000   0.75000   0.25000   0.00000  Uiso   1.00
O920   O     0.29874   0.58332   0.27298   0.00000  Uiso   1.00
O921   O     0.41668   0.79873   0.72702   0.00000  Uiso   1.00
O922   O     0.08332   0.70127   0.27298   0.00000  Uiso   1.00
O923   O     0.29874   0.58332   0.72702   0.00000  Uiso   1.00
O924   O     0.20127   0.91668   0.27298   0.00000  Uiso   1.00
O925   O     0.08332   0.70127   0.72702   0.00000  Uiso   1.00
O926   O     0.41668   0.79873   0.27298   0.00000  Uiso   1.00
O927   O     0.45127   0.83332   0.77298   0.00000  Uiso   1.00
O928   O     0.04874   0.66668   0.22702   0.00000  Uiso   1.00
O929   O     0.16668   0.95127   0.77298   0.00000  Uiso   1.00
O930   O     0.00000   0.75000   0.75000   0.00000  Uiso   1.00
O931   O     0.33332   0.54873   0.22702   0.00000  Uiso   1.00
O932   O     0.04874   0.66668   0.77298   0.00000  Uiso   1.00
O933   O     0.45127   0.83332   0.22702   0.00000  Uiso   1.00
O934   O     0.33332   0.54873   0.77298   0.00000  Uiso   1.00
O935   O     0.16668   0.95127   0.22702   0.00000  Uiso   1.00
O936   O     0.45127   0.66668   0.22702   0.00000  Uiso   1.00
O937   O     0.04874   0.83332   0.77298   0.00000  Uiso   1.00
O938   O     0.16668   0.54873   0.22702   0.00000  Uiso   1.00
O939   O     0.33332   0.95126   0.77298   0.00000  Uiso   1.00
O940   O     0.04874   0.83332   0.22702   0.00000  Uiso   1.00
O941   O     0.25000   0.96538   0.33749   0.00000  Uiso   1.00
O942   O     0.45127   0.66668   0.77298   0.00000  Uiso   1.00
O943   O     0.33332   0.95126   0.22702   0.00000  Uiso   1.00
O944   O     0.16668   0.54873   0.77298   0.00000  Uiso   1.00
O945   O     0.06475   0.79010   0.39830   0.00000  Uiso   1.00
O946   O     0.42372   0.74723   0.60003   0.00000  Uiso   1.00
O947   O     0.20604   0.93820   0.39864   0.00000  Uiso   1.00
O948   O     0.31365   0.54136   0.60269   0.00000  Uiso   1.00
O949   O     0.43526   0.70990   0.39830   0.00000  Uiso   1.00
O950   O     0.07628   0.75278   0.60003   0.00000  Uiso   1.00
O951   O     0.29397   0.56180   0.39864   0.00000  Uiso   1.00
O952   O     0.25000   0.53461   0.66251   0.00000  Uiso   1.00
O953   O     0.18635   0.95864   0.60269   0.00000  Uiso   1.00
O954   O     0.31471   0.54015   0.89829   0.00000  Uiso   1.00
O955   O     0.17373   0.99710   0.10003   0.00000  Uiso   1.00
O956   O     0.45595   0.68826   0.89863   0.00000  Uiso   1.00
O957   O     0.06370   0.79129   0.10269   0.00000  Uiso   1.00
O958   O     0.18528   0.95985   0.89829   0.00000  Uiso   1.00
O959   O     0.32628   0.50289   0.10003   0.00000  Uiso   1.00
O960   O     0.04405   0.81174   0.89863   0.00000  Uiso   1.00
O961   O     0.43630   0.70872   0.10269   0.00000  Uiso   1.00
O962   O     0.39075   0.71328   0.45983   0.00000  Uiso   1.00
O963   O     0.03462   0.75000   0.33749   0.00000  Uiso   1.00
O964   O     0.10823   0.79000   0.53968   0.00000  Uiso   1.00
O965   O     0.34124   0.57050   0.46013   0.00000  Uiso   1.00
O966   O     0.16232   0.92488   0.53967   0.00000  Uiso   1.00
O967   O     0.10925   0.78672   0.45983   0.00000  Uiso   1.00
O968   O     0.39178   0.71000   0.53968   0.00000  Uiso   1.00
O969   O     0.15876   0.92949   0.46013   0.00000  Uiso   1.00
O970   O     0.33768   0.57512   0.53967   0.00000  Uiso   1.00
O971   O     0.14079   0.96316   0.95983   0.00000  Uiso   1.00
O972   O     0.35816   0.54017   0.03968   0.00000  Uiso   1.00
O973   O     0.09133   0.82039   0.96012   0.00000  Uiso   1.00
O974   O     0.46539   0.75000   0.66251   0.00000  Uiso   1.00
O975   O     0.41223   0.67498   0.03967   0.00000  Uiso   1.00
O976   O     0.35921   0.53686   0.95983   0.00000  Uiso   1.00
O977   O     0.14184   0.95983   0.03968   0.00000  Uiso   1.00
O978   O     0.40867   0.67961   0.96013   0.00000  Uiso   1.00
O979   O     0.08778   0.82502   0.03967   0.00000  Uiso   1.00
O980   O     0.25000   0.53461   0.33749   0.00000  Uiso   1.00
Zn981  Zn    0.20053   0.50000   0.21730   0.00000  Uiso   1.00
Zn982  Zn    0.04948   0.75000   0.28270   0.00000  Uiso   1.00
Zn983  Zn    0.25000   0.95052   0.71730   0.00000  Uiso   1.00
Zn984  Zn    0.25000   0.54947   0.28270   0.00000  Uiso   1.00
Zn985  Zn    0.04948   0.75000   0.71730   0.00000  Uiso   1.00
Zn986  Zn    0.45053   0.75000   0.28270   0.00000  Uiso   1.00
Zn987  Zn    0.25000   0.54947   0.71730   0.00000  Uiso   1.00
Zn988  Zn    0.25000   0.95052   0.28270   0.00000  Uiso   1.00
Zn989  Zn    0.29948   0.50000   0.78270   0.00000  Uiso   1.00
Zn990  Zn    0.00000   0.70052   0.21730   0.00000  Uiso   1.00
Zn991  Zn    0.00000   0.79947   0.78270   0.00000  Uiso   1.00
Zn992  Zn    0.29948   0.50000   0.21730   0.00000  Uiso   1.00
Zn993  Zn    0.20053   0.50000   0.78270   0.00000  Uiso   1.00
Zn994  Zn    0.00000   0.79948   0.21730   0.00000  Uiso   1.00
Zn995  Zn    0.00000   0.70052   0.78270   0.00000  Uiso   1.00
Zn996  Zn    0.45053   0.75000   0.71730   0.00000  Uiso   1.00
C997   C     0.75000   0.50000   0.35606   0.00000  Uiso   1.00
C998   C     0.83002   0.92000   0.75000   0.00000  Uiso   1.00
C999   C     0.93867   0.70264   0.02026   0.00000  Uiso   1.00
C1000  C     0.82198   0.52874   0.97963   0.00000  Uiso   1.00
C1001  C     0.67766   0.97304   0.02024   0.00000  Uiso   1.00
C1002  C     0.93920   0.70251   0.97958   0.00000  Uiso   1.00
C1003  C     0.56133   0.79736   0.02026   0.00000  Uiso   1.00
C1004  C     0.55038   0.83135   0.39058   0.00000  Uiso   1.00
C1005  C     0.90736   0.78839   0.59721   0.00000  Uiso   1.00
C1006  C     0.72922   0.90058   0.40289   0.00000  Uiso   1.00
C1007  C     0.84378   0.51106   0.61420   0.00000  Uiso   1.00
C1008  C     0.94962   0.66865   0.39058   0.00000  Uiso   1.00
C1009  C     0.91999   0.67000   0.25001   0.00000  Uiso   1.00
C1010  C     0.59264   0.71162   0.59721   0.00000  Uiso   1.00
C1011  C     0.77079   0.59942   0.40289   0.00000  Uiso   1.00
C1012  C     0.65622   0.98895   0.61420   0.00000  Uiso   1.00
C1013  C     0.80032   0.58139   0.89056   0.00000  Uiso   1.00
C1014  C     0.65729   0.53823   0.09721   0.00000  Uiso   1.00
C1015  C     0.97908   0.65060   0.90289   0.00000  Uiso   1.00
C1016  C     0.59380   0.76095   0.11420   0.00000  Uiso   1.00
C1017  C     0.69968   0.91861   0.89057   0.00000  Uiso   1.00
C1018  C     0.84271   0.96176   0.09721   0.00000  Uiso   1.00
C1019  C     0.52092   0.84940   0.90289   0.00000  Uiso   1.00
C1020  C     0.58002   0.83000   0.75000   0.00000  Uiso   1.00
C1021  C     0.90620   0.73907   0.11419   0.00000  Uiso   1.00
C1022  C     0.87969   0.67026   0.46236   0.00000  Uiso   1.00
C1023  C     0.60086   0.83035   0.55565   0.00000  Uiso   1.00
C1024  C     0.87178   0.54255   0.44494   0.00000  Uiso   1.00
C1025  C     0.62013   0.93904   0.53834   0.00000  Uiso   1.00
C1026  C     0.62032   0.82974   0.46236   0.00000  Uiso   1.00
C1027  C     0.89915   0.66965   0.55566   0.00000  Uiso   1.00
C1028  C     0.62822   0.95744   0.44494   0.00000  Uiso   1.00
C1029  C     0.87987   0.56095   0.53834   0.00000  Uiso   1.00
C1030  C     0.62977   0.92013   0.96236   0.00000  Uiso   1.00
C1031  C     0.83001   0.91999   0.24998   0.00000  Uiso   1.00
C1032  C     0.85073   0.58050   0.05565   0.00000  Uiso   1.00
C1033  C     0.62183   0.79239   0.94494   0.00000  Uiso   1.00
C1034  C     0.87006   0.68919   0.03834   0.00000  Uiso   1.00
C1035  C     0.87022   0.57989   0.96236   0.00000  Uiso   1.00
C1036  C     0.64928   0.91949   0.05564   0.00000  Uiso   1.00
C1037  C     0.87817   0.70760   0.94494   0.00000  Uiso   1.00
C1038  C     0.62995   0.81080   0.03834   0.00000  Uiso   1.00
C1039  C     0.66998   0.58000   0.75000   0.00000  Uiso   1.00
C1040  C     0.58001   0.83000   0.25001   0.00000  Uiso   1.00
C1041  C     0.91998   0.67000   0.75000   0.00000  Uiso   1.00
C1042  C     0.66999   0.92000   0.75001   0.00000  Uiso   1.00
C1043  C     0.83002   0.58000   0.25000   0.00000  Uiso   1.00
C1044  C     0.91999   0.83001   0.74998   0.00000  Uiso   1.00
C1045  C     0.75000   0.50000   0.64414   0.00000  Uiso   1.00
C1046  C     0.58002   0.67000   0.25000   0.00000  Uiso   1.00
C1047  C     0.83001   0.58000   0.75001   0.00000  Uiso   1.00
C1048  C     0.66998   0.92000   0.25000   0.00000  Uiso   1.00
C1049  C     0.58001   0.66999   0.74998   0.00000  Uiso   1.00
C1050  C     0.91998   0.83000   0.25000   0.00000  Uiso   1.00
C1051  C     0.63832   0.88835   0.25000   0.00000  Uiso   1.00
C1052  C     0.86167   0.61166   0.75002   0.00000  Uiso   1.00
C1053  C     0.61168   0.63835   0.25000   0.00000  Uiso   1.00
C1054  C     0.88833   0.86166   0.74998   0.00000  Uiso   1.00
C1055  C     0.86168   0.61165   0.25000   0.00000  Uiso   1.00
C1056  C     0.50000   0.75000   0.35596   0.00000  Uiso   1.00
C1057  C     0.63833   0.88834   0.75002   0.00000  Uiso   1.00
C1058  C     0.88832   0.86165   0.25000   0.00000  Uiso   1.00
C1059  C     0.61167   0.63834   0.74998   0.00000  Uiso   1.00
C1060  C     0.63832   0.61165   0.75000   0.00000  Uiso   1.00
C1061  C     0.86167   0.88834   0.24998   0.00000  Uiso   1.00
C1062  C     0.61168   0.86165   0.75000   0.00000  Uiso   1.00
C1063  C     0.88833   0.63834   0.25002   0.00000  Uiso   1.00
C1064  C     0.86168   0.88835   0.75000   0.00000  Uiso   1.00
C1065  C     0.63833   0.61166   0.24998   0.00000  Uiso   1.00
C1066  C     0.88832   0.63835   0.75000   0.00000  Uiso   1.00
C1067  C     0.50000   0.75000   0.64384   0.00000  Uiso   1.00
C1068  C     0.61167   0.86166   0.25002   0.00000  Uiso   1.00
C1069  C     0.53366   0.76873   0.41846   0.00000  Uiso   1.00
C1070  C     0.96185   0.74602   0.58061   0.00000  Uiso   1.00
C1071  C     0.72643   0.96979   0.41893   0.00000  Uiso   1.00
C1072  C     0.78192   0.52158   0.58194   0.00000  Uiso   1.00
C1073  C     0.96634   0.73127   0.41846   0.00000  Uiso   1.00
C1074  C     0.53815   0.75398   0.58061   0.00000  Uiso   1.00
C1075  C     0.77357   0.53020   0.41893   0.00000  Uiso   1.00
C1076  C     0.71808   0.97842   0.58194   0.00000  Uiso   1.00
C1077  C     0.78364   0.51876   0.91846   0.00000  Uiso   1.00
C1078  C     0.50000   0.75000   0.85606   0.00000  Uiso   1.00
C1079  C     0.71185   0.99596   0.08061   0.00000  Uiso   1.00
C1080  C     0.97639   0.71982   0.91893   0.00000  Uiso   1.00
C1081  C     0.53195   0.77154   0.08194   0.00000  Uiso   1.00
C1082  C     0.71635   0.98124   0.91846   0.00000  Uiso   1.00
C1083  C     0.78815   0.50404   0.08061   0.00000  Uiso   1.00
C1084  C     0.52361   0.78018   0.91893   0.00000  Uiso   1.00
C1085  C     0.96805   0.72847   0.08194   0.00000  Uiso   1.00
C1086  C     0.50000   0.75000   0.39832   0.00000  Uiso   1.00
C1087  C     0.50000   0.75000   0.60117   0.00000  Uiso   1.00
C1088  C     0.75000   0.50000   0.39860   0.00000  Uiso   1.00
C1089  C     0.50000   0.75000   0.14414   0.00000  Uiso   1.00
C1090  C     0.75000   0.50000   0.60188   0.00000  Uiso   1.00
C1091  C     0.75000   0.50000   0.89832   0.00000  Uiso   1.00
C1092  C     0.75000   0.50000   0.10117   0.00000  Uiso   1.00
C1093  C     0.50000   0.75000   0.89860   0.00000  Uiso   1.00
C1094  C     0.50000   0.75000   0.10188   0.00000  Uiso   1.00
C1095  C     0.96432   0.73451   0.45904   0.00000  Uiso   1.00
C1096  C     0.53703   0.76083   0.54039   0.00000  Uiso   1.00
C1097  C     0.77857   0.52594   0.45937   0.00000  Uiso   1.00
C1098  C     0.71897   0.97644   0.54110   0.00000  Uiso   1.00
C1099  C     0.53568   0.76549   0.45904   0.00000  Uiso   1.00
C1100  C     0.75000   0.50000   0.85596   0.00000  Uiso   1.00
C1101  C     0.96297   0.73917   0.54039   0.00000  Uiso   1.00
C1102  C     0.72143   0.97406   0.45937   0.00000  Uiso   1.00
C1103  C     0.78103   0.52356   0.54110   0.00000  Uiso   1.00
C1104  C     0.71433   0.98447   0.95904   0.00000  Uiso   1.00
C1105  C     0.78702   0.51088   0.04039   0.00000  Uiso   1.00
C1106  C     0.52860   0.77591   0.95936   0.00000  Uiso   1.00
C1107  C     0.96894   0.72648   0.04110   0.00000  Uiso   1.00
C1108  C     0.78566   0.51553   0.95904   0.00000  Uiso   1.00
C1109  C     0.71299   0.98912   0.04039   0.00000  Uiso   1.00
C1110  C     0.97140   0.72409   0.95936   0.00000  Uiso   1.00
C1111  C     0.75000   0.50000   0.14384   0.00000  Uiso   1.00
C1112  C     0.53106   0.77352   0.04109   0.00000  Uiso   1.00
C1113  C     0.50000   0.75000   0.47934   0.00000  Uiso   1.00
C1114  C     0.50000   0.75000   0.51997   0.00000  Uiso   1.00
C1115  C     0.75000   0.50000   0.47990   0.00000  Uiso   1.00
C1116  C     0.75000   0.50000   0.52072   0.00000  Uiso   1.00
C1117  C     0.75000   0.50000   0.97934   0.00000  Uiso   1.00
C1118  C     0.75000   0.50000   0.01997   0.00000  Uiso   1.00
C1119  C     0.50000   0.75000   0.97989   0.00000  Uiso   1.00
C1120  C     0.50000   0.75000   0.02072   0.00000  Uiso   1.00
C1121  C     0.92799   0.72135   0.47963   0.00000  Uiso   1.00
C1122  C     0.66999   0.58001   0.24998   0.00000  Uiso   1.00
C1123  C     0.57238   0.77685   0.52024   0.00000  Uiso   1.00
C1124  C     0.81074   0.54756   0.47958   0.00000  Uiso   1.00
C1125  C     0.68873   0.95257   0.52026   0.00000  Uiso   1.00
C1126  C     0.57201   0.77865   0.47963   0.00000  Uiso   1.00
C1127  C     0.92762   0.72315   0.52024   0.00000  Uiso   1.00
C1128  C     0.68926   0.95243   0.47958   0.00000  Uiso   1.00
C1129  C     0.81127   0.54743   0.52026   0.00000  Uiso   1.00
C1130  C     0.67802   0.97126   0.97963   0.00000  Uiso   1.00
C1131  C     0.82234   0.52696   0.02024   0.00000  Uiso   1.00
C1132  C     0.56080   0.79749   0.97958   0.00000  Uiso   1.00
H1133  H     0.53927   0.84759   0.41723   0.00000  Uiso   1.00
H1134  H     0.85262   0.98931   0.59028   0.00000  Uiso   1.00
H1135  H     0.83252   0.99261   0.63939   0.00000  Uiso   1.00
H1136  H     0.87280   0.52773   0.62346   0.00000  Uiso   1.00
H1137  H     0.96074   0.65242   0.41722   0.00000  Uiso   1.00
H1138  H     0.97512   0.66869   0.36857   0.00000  Uiso   1.00
H1139  H     0.92301   0.65006   0.37869   0.00000  Uiso   1.00
H1140  H     0.59960   0.70307   0.56668   0.00000  Uiso   1.00
H1141  H     0.57083   0.68813   0.61030   0.00000  Uiso   1.00
H1142  H     0.62272   0.71027   0.61350   0.00000  Uiso   1.00
H1143  H     0.77048   0.61033   0.43343   0.00000  Uiso   1.00
H1144  H     0.52487   0.83131   0.36858   0.00000  Uiso   1.00
H1145  H     0.73793   0.59580   0.39210   0.00000  Uiso   1.00
H1146  H     0.78619   0.62431   0.38538   0.00000  Uiso   1.00
H1147  H     0.64738   0.51070   0.59028   0.00000  Uiso   1.00
H1148  H     0.66748   0.50740   0.63939   0.00000  Uiso   1.00
H1149  H     0.62720   0.97229   0.62345   0.00000  Uiso   1.00
H1150  H     0.78919   0.59762   0.91720   0.00000  Uiso   1.00
H1151  H     0.77481   0.58132   0.86855   0.00000  Uiso   1.00
H1152  H     0.82691   0.59999   0.87865   0.00000  Uiso   1.00
H1153  H     0.65031   0.54676   0.06668   0.00000  Uiso   1.00
H1154  H     0.67906   0.56175   0.11030   0.00000  Uiso   1.00
H1155  H     0.57699   0.84994   0.37868   0.00000  Uiso   1.00
H1156  H     0.62721   0.53952   0.11351   0.00000  Uiso   1.00
H1157  H     0.97937   0.63969   0.93343   0.00000  Uiso   1.00
H1158  H     0.51195   0.65418   0.89210   0.00000  Uiso   1.00
H1159  H     0.96365   0.62574   0.88538   0.00000  Uiso   1.00
H1160  H     0.60262   0.73919   0.09027   0.00000  Uiso   1.00
H1161  H     0.58251   0.74251   0.13938   0.00000  Uiso   1.00
H1162  H     0.62283   0.77758   0.12346   0.00000  Uiso   1.00
H1163  H     0.71083   0.90239   0.91720   0.00000  Uiso   1.00
H1164  H     0.72516   0.91868   0.86854   0.00000  Uiso   1.00
H1165  H     0.67307   0.90001   0.87868   0.00000  Uiso   1.00
H1166  H     0.90039   0.79693   0.56668   0.00000  Uiso   1.00
H1167  H     0.84969   0.95323   0.06667   0.00000  Uiso   1.00
H1168  H     0.82093   0.93824   0.11029   0.00000  Uiso   1.00
H1169  H     0.87279   0.96046   0.11350   0.00000  Uiso   1.00
H1170  H     0.52062   0.86031   0.93343   0.00000  Uiso   1.00
H1171  H     0.98805   0.84582   0.89210   0.00000  Uiso   1.00
H1172  H     0.53635   0.87426   0.88538   0.00000  Uiso   1.00
H1173  H     0.89739   0.76082   0.09026   0.00000  Uiso   1.00
H1174  H     0.91749   0.75752   0.13937   0.00000  Uiso   1.00
H1175  H     0.87716   0.72245   0.12345   0.00000  Uiso   1.00
H1176  H     0.90712   0.64881   0.46641   0.00000  Uiso   1.00
H1177  H     0.92918   0.81187   0.61029   0.00000  Uiso   1.00
H1178  H     0.86409   0.66095   0.43497   0.00000  Uiso   1.00
H1179  H     0.85629   0.66547   0.48576   0.00000  Uiso   1.00
H1180  H     0.58151   0.82854   0.58230   0.00000  Uiso   1.00
H1181  H     0.58527   0.85212   0.53495   0.00000  Uiso   1.00
H1182  H     0.63163   0.84438   0.56372   0.00000  Uiso   1.00
H1183  H     0.85950   0.52468   0.41979   0.00000  Uiso   1.00
H1184  H     0.88357   0.51986   0.46691   0.00000  Uiso   1.00
H1185  H     0.89913   0.56129   0.43477   0.00000  Uiso   1.00
H1186  H     0.61698   0.97391   0.53627   0.00000  Uiso   1.00
H1187  H     0.60413   0.92912   0.56534   0.00000  Uiso   1.00
H1188  H     0.87729   0.78974   0.61351   0.00000  Uiso   1.00
H1189  H     0.60314   0.92362   0.51421   0.00000  Uiso   1.00
H1190  H     0.59289   0.85119   0.46641   0.00000  Uiso   1.00
H1191  H     0.63592   0.83905   0.43497   0.00000  Uiso   1.00
H1192  H     0.64372   0.83452   0.48576   0.00000  Uiso   1.00
H1193  H     0.91850   0.67147   0.58229   0.00000  Uiso   1.00
H1194  H     0.91474   0.64788   0.53495   0.00000  Uiso   1.00
H1195  H     0.86838   0.65561   0.56373   0.00000  Uiso   1.00
H1196  H     0.64050   0.97530   0.41979   0.00000  Uiso   1.00
H1197  H     0.61644   0.98013   0.46691   0.00000  Uiso   1.00
H1198  H     0.60088   0.93869   0.43478   0.00000  Uiso   1.00
H1199  H     0.72954   0.88966   0.43343   0.00000  Uiso   1.00
H1200  H     0.88302   0.52609   0.53628   0.00000  Uiso   1.00
H1201  H     0.89587   0.57088   0.56534   0.00000  Uiso   1.00
H1202  H     0.89686   0.57638   0.51421   0.00000  Uiso   1.00
H1203  H     0.65722   0.89870   0.96639   0.00000  Uiso   1.00
H1204  H     0.61417   0.91080   0.93497   0.00000  Uiso   1.00
H1205  H     0.60638   0.91531   0.98576   0.00000  Uiso   1.00
H1206  H     0.83136   0.57866   0.08228   0.00000  Uiso   1.00
H1207  H     0.83513   0.60225   0.03493   0.00000  Uiso   1.00
H1208  H     0.88148   0.59457   0.06375   0.00000  Uiso   1.00
H1209  H     0.60954   0.77455   0.91979   0.00000  Uiso   1.00
H1210  H     0.76208   0.90420   0.39210   0.00000  Uiso   1.00
H1211  H     0.63358   0.76969   0.96691   0.00000  Uiso   1.00
H1212  H     0.64921   0.81110   0.93478   0.00000  Uiso   1.00
H1213  H     0.86694   0.72406   0.03626   0.00000  Uiso   1.00
H1214  H     0.85404   0.67929   0.06534   0.00000  Uiso   1.00
H1215  H     0.85305   0.67378   0.01421   0.00000  Uiso   1.00
H1216  H     0.84277   0.60131   0.96641   0.00000  Uiso   1.00
H1217  H     0.88581   0.58922   0.93497   0.00000  Uiso   1.00
H1218  H     0.89361   0.58471   0.98576   0.00000  Uiso   1.00
H1219  H     0.66865   0.92133   0.08227   0.00000  Uiso   1.00
H1220  H     0.66487   0.89774   0.03492   0.00000  Uiso   1.00
H1221  H     0.71382   0.87569   0.38538   0.00000  Uiso   1.00
H1222  H     0.61853   0.90542   0.06374   0.00000  Uiso   1.00
H1223  H     0.89046   0.72544   0.91979   0.00000  Uiso   1.00
H1224  H     0.86642   0.73031   0.96691   0.00000  Uiso   1.00
H1225  H     0.85079   0.68889   0.93479   0.00000  Uiso   1.00
H1226  H     0.63306   0.77593   0.03626   0.00000  Uiso   1.00
H1227  H     0.64596   0.82071   0.06533   0.00000  Uiso   1.00
H1228  H     0.64695   0.82621   0.01420   0.00000  Uiso   1.00
O1229  O     0.75000   0.50000   0.25000   0.00000  Uiso   1.00
O1230  O     0.75000   0.96538   0.66251   0.00000  Uiso   1.00
O1231  O     0.96539   0.75000   0.33749   0.00000  Uiso   1.00
O1232  O     0.53462   0.75000   0.66251   0.00000  Uiso   1.00
O1233  O     0.50000   0.71539   0.83749   0.00000  Uiso   1.00
O1234  O     0.50000   0.78462   0.16251   0.00000  Uiso   1.00
O1235  O     0.78462   0.50000   0.83749   0.00000  Uiso   1.00
O1236  O     0.71539   0.50000   0.16251   0.00000  Uiso   1.00
O1237  O     0.50000   0.78462   0.83749   0.00000  Uiso   1.00
O1238  O     0.50000   0.71539   0.16251   0.00000  Uiso   1.00
O1239  O     0.71539   0.50000   0.83749   0.00000  Uiso   1.00
O1240  O     0.75000   0.50000   0.75000   0.00000  Uiso   1.00
O1241  O     0.78462   0.50000   0.16251   0.00000  Uiso   1.00
O1242  O     0.70127   0.58332   0.27298   0.00000  Uiso   1.00
O1243  O     0.79874   0.91668   0.72702   0.00000  Uiso   1.00
O1244  O     0.91668   0.70126   0.27298   0.00000  Uiso   1.00
O1245  O     0.58332   0.79874   0.72702   0.00000  Uiso   1.00
O1246  O     0.79874   0.91668   0.27298   0.00000  Uiso   1.00
O1247  O     0.70127   0.58332   0.72702   0.00000  Uiso   1.00
O1248  O     0.58332   0.79874   0.27298   0.00000  Uiso   1.00
O1249  O     0.91668   0.70126   0.72702   0.00000  Uiso   1.00
O1250  O     0.70127   0.91668   0.72702   0.00000  Uiso   1.00
O1251  O     0.50000   0.75000   0.25000   0.00000  Uiso   1.00
O1252  O     0.79874   0.58332   0.27298   0.00000  Uiso   1.00
O1253  O     0.91668   0.79873   0.72702   0.00000  Uiso   1.00
O1254  O     0.58332   0.70127   0.27298   0.00000  Uiso   1.00
O1255  O     0.79874   0.58332   0.72702   0.00000  Uiso   1.00
O1256  O     0.70127   0.91668   0.27298   0.00000  Uiso   1.00
O1257  O     0.58332   0.70127   0.72702   0.00000  Uiso   1.00
O1258  O     0.91668   0.79873   0.27298   0.00000  Uiso   1.00
O1259  O     0.95127   0.83332   0.77298   0.00000  Uiso   1.00
O1260  O     0.54874   0.66668   0.22702   0.00000  Uiso   1.00
O1261  O     0.66668   0.95127   0.77298   0.00000  Uiso   1.00
O1262  O     0.50000   0.75000   0.75000   0.00000  Uiso   1.00
O1263  O     0.83332   0.54873   0.22702   0.00000  Uiso   1.00
O1264  O     0.54874   0.66668   0.77298   0.00000  Uiso   1.00
O1265  O     0.95127   0.83332   0.22702   0.00000  Uiso   1.00
O1266  O     0.83332   0.54873   0.77298   0.00000  Uiso   1.00
O1267  O     0.66668   0.95127   0.22702   0.00000  Uiso   1.00
O1268  O     0.95127   0.66668   0.22702   0.00000  Uiso   1.00
O1269  O     0.54874   0.83332   0.77298   0.00000  Uiso   1.00
O1270  O     0.66668   0.54873   0.22702   0.00000  Uiso   1.00
O1271  O     0.83332   0.95126   0.77298   0.00000  Uiso   1.00
O1272  O     0.54874   0.83332   0.22702   0.00000  Uiso   1.00
O1273  O     0.75000   0.96538   0.33749   0.00000  Uiso   1.00
O1274  O     0.95127   0.66668   0.77298   0.00000  Uiso   1.00
O1275  O     0.83332   0.95126   0.22702   0.00000  Uiso   1.00
O1276  O     0.66668   0.54873   0.77298   0.00000  Uiso   1.00
O1277  O     0.56475   0.79010   0.39830   0.00000  Uiso   1.00
O1278  O     0.92372   0.74723   0.60003   0.00000  Uiso   1.00
O1279  O     0.70604   0.93820   0.39864   0.00000  Uiso   1.00
O1280  O     0.81365   0.54136   0.60269   0.00000  Uiso   1.00
O1281  O     0.93526   0.70990   0.39830   0.00000  Uiso   1.00
O1282  O     0.57628   0.75278   0.60003   0.00000  Uiso   1.00
O1283  O     0.79397   0.56180   0.39864   0.00000  Uiso   1.00
O1284  O     0.75000   0.53461   0.66251   0.00000  Uiso   1.00
O1285  O     0.68635   0.95864   0.60269   0.00000  Uiso   1.00
O1286  O     0.81471   0.54015   0.89829   0.00000  Uiso   1.00
O1287  O     0.67373   0.99710   0.10003   0.00000  Uiso   1.00
O1288  O     0.95595   0.68826   0.89863   0.00000  Uiso   1.00
O1289  O     0.56370   0.79129   0.10269   0.00000  Uiso   1.00
O1290  O     0.68528   0.95985   0.89829   0.00000  Uiso   1.00
O1291  O     0.82628   0.50289   0.10003   0.00000  Uiso   1.00
O1292  O     0.54405   0.81174   0.89863   0.00000  Uiso   1.00
O1293  O     0.93630   0.70872   0.10269   0.00000  Uiso   1.00
O1294  O     0.89075   0.71328   0.45983   0.00000  Uiso   1.00
O1295  O     0.53462   0.75000   0.33749   0.00000  Uiso   1.00
O1296  O     0.60823   0.79000   0.53968   0.00000  Uiso   1.00
O1297  O     0.84124   0.57050   0.46013   0.00000  Uiso   1.00
O1298  O     0.66232   0.92488   0.53967   0.00000  Uiso   1.00
O1299  O     0.60925   0.78672   0.45983   0.00000  Uiso   1.00
O1300  O     0.89178   0.71000   0.53968   0.00000  Uiso   1.00
O1301  O     0.65876   0.92949   0.46013   0.00000  Uiso   1.00
O1302  O     0.83768   0.57512   0.53967   0.00000  Uiso   1.00
O1303  O     0.64079   0.96316   0.95983   0.00000  Uiso   1.00
O1304  O     0.85816   0.54017   0.03968   0.00000  Uiso   1.00
O1305  O     0.59133   0.82039   0.96012   0.00000  Uiso   1.00
O1306  O     0.96539   0.75000   0.66251   0.00000  Uiso   1.00
O1307  O     0.91223   0.67498   0.03967   0.00000  Uiso   1.00
O1308  O     0.85921   0.53686   0.95983   0.00000  Uiso   1.00
O1309  O     0.64184   0.95983   0.03968   0.00000  Uiso   1.00
O1310  O     0.90867   0.67961   0.96013   0.00000  Uiso   1.00
O1311  O     0.58778   0.82502   0.03967   0.00000  Uiso   1.00
O1312  O     0.75000   0.53461   0.33749   0.00000  Uiso   1.00
Zn1313 Zn    0.70053   0.50000   0.21730   0.00000  Uiso   1.00
Zn1314 Zn    0.54948   0.75000   0.28270   0.00000  Uiso   1.00
Zn1315 Zn    0.75000   0.95052   0.71730   0.00000  Uiso   1.00
Zn1316 Zn    0.75000   0.54947   0.28270   0.00000  Uiso   1.00
Zn1317 Zn    0.54948   0.75000   0.71730   0.00000  Uiso   1.00
Zn1318 Zn    0.95053   0.75000   0.28270   0.00000  Uiso   1.00
Zn1319 Zn    0.75000   0.54947   0.71730   0.00000  Uiso   1.00
Zn1320 Zn    0.75000   0.95052   0.28270   0.00000  Uiso   1.00
Zn1321 Zn    0.79948   0.50000   0.78270   0.00000  Uiso   1.00
Zn1322 Zn    0.50000   0.70052   0.21730   0.00000  Uiso   1.00
Zn1323 Zn    0.50000   0.79947   0.78270   0.00000  Uiso   1.00
Zn1324 Zn    0.79948   0.50000   0.21730   0.00000  Uiso   1.00
Zn1325 Zn    0.70053   0.50000   0.78270   0.00000  Uiso   1.00
Zn1326 Zn    0.50000   0.79948   0.21730   0.00000  Uiso   1.00
Zn1327 Zn    0.50000   0.70052   0.78270   0.00000  Uiso   1.00
Zn1328 Zn    0.95053   0.75000   0.71730   0.00000  Uiso   1.00
loop_
_geom_bond_atom_site_label_1
_geom_bond_atom_site_label_2
_geom_bond_distance
_geom_bond_site_symmetry_2
_ccdc_geom_bond_type
C1     O941    1.274   1_545 A
C1     C92     1.472   .     S
C1     O316    1.274   .     S
C2     C68     1.422   .     S
C2     O275    1.277   .     A
C2     O247    1.276   .     A
C3     C111    1.420   .     A
C3     O311    1.388   .     S
C3     C6      1.408   1_554 S
C4     O312    1.389   .     S
C4     C112    1.418   .     A
C4     C135    1.406   1_556 S
C5     C113    1.415   .     A
C5     O313    1.385   .     S
C5     C134    1.406   1_554 S
C6     C114    1.415   .     A
C6     O314    1.386   .     S
C6     C3      1.408   1_556 S
C7     C116    1.420   .     A
C7     O315    1.388   .     S
C7     C136    1.408   1_554 S
C8     H159    1.109   .     S
C8     H148    1.111   .     S
C8     H137    1.114   .     S
C8     O281    1.413   .     S
C9     O282    1.411   .     S
C9     H181    1.114   .     S
C9     H170    1.113   .     S
C9     H192    1.109   .     S
C10    H225    1.109   .     S
C10    H203    1.112   .     S
C10    H214    1.114   .     S
C10    O283    1.411   .     S
C11    O284    1.414   .     S
C11    H140    1.109   .     S
C11    H802    1.114   1_545 S
C11    H803    1.109   1_545 S
C12    H141    1.114   .     S
C12    H143    1.109   .     S
C12    H142    1.111   .     S
C12    O285    1.413   .     S
C13    O248    1.277   .     A
C13    O272    1.276   .     A
C13    C67     1.421   .     S
C14    H146    1.109   .     S
C14    H144    1.113   .     S
C14    O286    1.411   .     S
C14    H145    1.114   .     S
C15    O287    1.411   .     S
C15    H149    1.114   .     S
C15    H147    1.112   .     S
C15    H150    1.109   .     S
C16    O289    1.414   .     S
C16    H153    1.109   .     S
C16    H815    1.114   .     S
C16    H816    1.109   .     S
C17    H155    1.111   .     S
C17    O290    1.413   .     S
C17    H154    1.114   .     S
C17    H156    1.109   .     S
C18    H157    1.113   .     S
C18    H158    1.114   .     S
C18    H160    1.109   .     S
C18    O955    1.411   1_545 S
C19    O292    1.411   .     S
C19    H163    1.109   .     S
C19    H161    1.112   .     S
C19    H494    1.114   .     S
C20    H165    1.109   .     S
C20    O293    1.414   .     S
C20    H164    1.114   .     S
C20    H166    1.109   .     S
C21    H168    1.111   .     S
C21    H169    1.109   .     S
C21    H167    1.114   .     S
C21    O294    1.413   .     S
C22    H173    1.109   .     S
C22    H171    1.113   .     S
C22    H172    1.114   .     S
C22    O959    1.411   .     S
C23    H176    1.109   .     S
C23    O296    1.411   .     S
C23    H174    1.112   .     S
C23    H507    1.114   1_455 S
C24    O249    1.277   .     A
C24    C66     1.421   .     S
C24    O273    1.276   .     A
C25    H178    1.109   .     S
C25    O297    1.414   .     S
C25    H177    1.114   .     S
C25    H179    1.109   .     S
C26    H182    1.109   .     S
C26    H183    1.109   .     S
C26    H180    1.114   .     S
C26    O298    1.414   .     S
C27    H185    1.112   .     S
C27    O300    1.416   .     S
C27    H184    1.109   .     S
C27    H186    1.109   .     S
C28    H187    1.109   .     S
C28    O301    1.416   .     S
C28    H189    1.109   .     S
C28    H188    1.112   .     S
C29    H193    1.108   .     S
C29    H191    1.109   .     S
C29    O302    1.413   .     S
C29    H190    1.115   .     S
C30    H195    1.109   .     S
C30    O303    1.414   .     S
C30    H196    1.109   .     S
C30    H194    1.114   .     S
C31    H198    1.112   .     S
C31    H199    1.109   .     S
C31    H197    1.109   .     S
C31    O304    1.416   .     S
C32    H201    1.112   .     S
C32    O305    1.416   .     S
C32    H202    1.109   .     S
C32    H200    1.109   .     S
C33    H205    1.109   .     S
C33    O306    1.413   .     S
C33    H204    1.115   .     S
C33    H206    1.108   .     S
C34    H207    1.114   .     S
C34    H208    1.109   .     S
C34    O307    1.414   .     S
C34    H209    1.109   .     S
C35    O250    1.276   .     A
C35    C65     1.422   .     S
C35    O279    1.277   .     A
C36    H212    1.109   .     S
C36    O308    1.416   .     S
C36    H211    1.112   .     S
C36    H210    1.109   .     S
C37    H216    1.109   .     S
C37    H213    1.109   .     S
C37    H215    1.112   .     S
C37    O309    1.416   .     S
C38    H218    1.109   .     S
C38    H219    1.108   .     S
C38    H217    1.115   .     S
C38    O311    1.413   .     S
C39    H220    1.114   .     S
C39    H222    1.109   .     S
C39    H221    1.109   .     S
C39    O312    1.414   .     S
C40    H226    1.109   .     S
C40    O313    1.416   .     S
C40    H223    1.109   .     S
C40    H224    1.112   .     S
C41    H228    1.112   .     S
C41    H227    1.109   .     S
C41    H229    1.109   .     S
C41    O314    1.416   .     S
C42    H231    1.109   .     S
C42    H232    1.108   .     S
C42    H230    1.115   .     S
C42    O315    1.413   .     S
C43    O251    1.276   .     A
C43    C64     1.422   .     S
C43    O280    1.277   .     A
C44    O276    1.276   .     A
C44    C72     1.421   .     S
C44    O252    1.277   .     A
C45    C70     1.421   .     S
C45    O278    1.276   .     A
C45    O253    1.277   .     A
C46    O265    1.277   .     A
C46    O254    1.276   .     A
C46    C61     1.421   .     S
C47    O267    1.277   .     A
C47    O256    1.276   .     A
C47    C59     1.421   .     S
C48    O263    1.276   .     A
C48    O257    1.277   .     A
C48    C58     1.422   .     S
C49    O288    1.270   .     A
C49    C94     1.462   .     S
C49    O898    1.270   1_545 S
C50    C57     1.422   .     S
C50    O258    1.277   .     A
C50    O264    1.276   .     A
C51    O270    1.277   .     A
C51    O259    1.276   .     A
C51    C56     1.421   .     S
C52    O260    1.276   .     A
C52    C55     1.421   .     S
C52    O271    1.277   .     A
C53    O261    1.277   .     A
C53    C63     1.422   .     S
C53    O268    1.276   .     A
C54    O269    1.276   .     A
C54    C62     1.422   .     S
C54    O262    1.277   .     A
C55    C72     1.197   .     T
C56    C70     1.197   .     T
C57    C69     1.198   .     T
C58    C68     1.198   .     T
C59    C67     1.197   .     T
C60    C90     1.466   .     S
C60    O299    1.271   .     A
C60    O567    1.271   1_455 S
C61    C66     1.197   .     T
C62    C65     1.198   .     T
C63    C64     1.198   .     T
C69    C126    1.422   .     S
C71    C91     1.476   .     S
C71    O236    1.274   .     A
C71    O642    1.274   1_455 S
C73    C90     1.407   .     A
C73    C103    1.409   .     A
C73    O281    1.386   .     S
C74    C105    1.409   .     A
C74    O282    1.384   .     S
C74    C423    1.410   .     S
C75    C106    1.415   .     A
C75    O283    1.385   .     S
C75    C756    1.405   .     A
C76    C107    1.415   .     A
C76    O284    1.387   .     S
C76    C94     1.404   .     S
C77    O285    1.386   .     S
C77    C99     1.409   .     A
C77    C422    1.407   .     S
C78    O286    1.384   .     S
C78    C100    1.409   .     A
C78    C91     1.410   .     A
C79    O287    1.385   .     S
C79    C101    1.415   .     A
C79    C92     1.405   .     S
C80    C102    1.415   .     A
C80    C758    1.404   .     A
C80    O289    1.387   .     S
C81    C95     1.407   .     A
C81    O290    1.386   .     S
C81    C112    1.409   .     A
C82    C97     1.472   .     S
C82    O237    1.274   .     S
C82    O241    1.274   .     S
C83    O291    1.384   .     S
C83    C760    1.410   .     A
C83    C113    1.409   .     A
C84    C114    1.415   .     A
C84    O292    1.385   .     S
C84    C429    1.405   .     A
C85    C116    1.415   .     A
C85    O293    1.387   .     S
C85    C98     1.404   .     A
C86    C108    1.409   .     A
C86    O294    1.386   .     S
C86    C759    1.407   .     S
C87    C109    1.409   .     A
C87    O295    1.384   .     S
C87    C96     1.410   .     S
C88    C110    1.415   .     A
C88    O296    1.385   .     S
C88    C97     1.405   .     S
C89    O297    1.387   .     S
C89    C111    1.415   .     A
C89    C430    1.404   .     S
C90    C409    1.407   1_455 S
C91    C406    1.410   1_455 S
C92    C739    1.405   1_545 A
C93    C98     1.462   .     S
C93    O238    1.270   .     S
C93    O242    1.270   .     S
C94    C744    1.404   1_545 A
C95    C104    1.466   .     S
C95    C750    1.407   1_545 S
C96    C747    1.410   1_545 A
C96    C115    1.476   .     S
C97    C416    1.405   1_455 A
C98    C421    1.404   1_455 S
C99    C125    1.418   .     A
C99    C449    1.420   .     S
C100   C127    1.415   .     A
C100   C118    1.413   .     A
C101   C128    1.415   .     A
C101   C119    1.416   .     S
C102   C784    1.423   .     A
C102   C129    1.420   .     A
C103   C117    1.420   .     A
C103   C130    1.418   .     A
C104   O243    1.271   .     A
C104   O239    1.271   .     A
C105   C131    1.415   .     A
C105   C450    1.413   .     S
C106   C132    1.415   .     A
C106   C783    1.416   .     A
C107   C133    1.420   .     A
C107   C120    1.423   .     S
C108   C134    1.418   .     A
C108   C785    1.420   .     S
C109   C135    1.415   .     A
C109   C122    1.413   .     A
C110   C123    1.416   .     A
C110   C136    1.415   .     A
C111   C456    1.423   .     S
C112   C121    1.420   .     A
C113   C786    1.413   .     S
C114   C455    1.416   .     S
C115   O240    1.274   .     S
C115   O245    1.274   .     S
C116   C124    1.423   .     A
C117   C118    1.406   .     A
C117   C431    1.420   1_455 S
C118   C437    1.413   1_455 S
C119   C770    1.416   1_545 A
C119   C120    1.413   .     A
C120   C766    1.423   1_545 A
C121   C772    1.420   1_545 S
C121   C122    1.406   1_556 S
C122   C777    1.413   1_545 S
C122   C121    1.406   1_554 S
C123   C446    1.416   1_455 S
C123   C124    1.413   1_556 S
C124   C443    1.423   1_455 S
C124   C123    1.413   1_554 S
C125   O298    1.389   .     S
C125   C131    1.406   .     A
C126   O246    1.276   .     A
C126   O274    1.277   .     A
C127   O300    1.385   .     S
C127   C130    1.406   .     A
C128   O301    1.386   .     S
C128   C133    1.408   .     A
C129   C132    1.408   .     A
C129   O302    1.388   .     S
C130   O303    1.389   .     S
C131   O304    1.385   .     S
C132   O305    1.386   .     S
C133   O306    1.388   .     S
C134   O307    1.389   .     S
C134   C5      1.406   1_556 S
C135   O308    1.385   .     S
C135   C4      1.406   1_554 S
C136   O309    1.386   .     S
C136   C7      1.408   1_556 S
H138   C675    1.114   .     S
H139   C675    1.109   .     S
H151   C680    1.114   1_545 S
H152   C680    1.109   1_545 S
H162   C351    1.114   1_455 S
H175   C355    1.114   .     S
O233   Zn317   1.935   .     S
O233   Zn328   1.935   .     S
O233   Zn320   1.937   .     S
O233   Zn988   1.937   1_545 S
O234   Zn319   1.954   .     S
O234   C713    1.270   .     S
O235   Zn322   1.953   .     S
O235   C392    1.271   .     S
O236   Zn321   1.953   .     S
O237   Zn331   1.954   .     S
O238   Zn330   1.954   .     S
O239   Zn325   1.953   .     S
O240   Zn317   1.953   .     S
O241   Zn327   1.954   .     S
O242   Zn326   1.954   .     S
O243   Zn329   1.953   .     S
O244   Zn325   1.935   .     S
O244   Zn329   1.935   .     S
O244   Zn323   1.937   .     S
O244   Zn983   1.937   1_545 S
O245   Zn328   1.953   .     S
O246   Zn320   1.914   .     S
O247   Zn319   1.914   .     S
O248   Zn322   1.914   .     S
O249   Zn321   1.914   .     S
O250   Zn324   1.914   .     S
O251   Zn323   1.914   .     S
O252   Zn318   1.914   .     S
O253   Zn332   1.914   .     S
O254   Zn319   1.913   .     S
O255   Zn330   1.937   .     S
O255   Zn318   1.935   .     S
O255   Zn654   1.935   1_455 S
O255   Zn326   1.937   .     S
O256   Zn320   1.913   .     S
O257   Zn332   1.915   .     S
O258   Zn318   1.915   .     S
O259   Zn323   1.913   .     S
O260   Zn324   1.913   .     S
O261   Zn321   1.915   .     S
O262   Zn322   1.915   .     S
O263   Zn659   1.914   .     S
O264   Zn326   1.914   .     S
O265   Zn993   1.914   .     S
O266   Zn321   1.935   .     S
O266   Zn327   1.937   .     S
O266   Zn331   1.937   .     S
O266   Zn664   1.935   1_455 S
O267   Zn328   1.914   .     S
O268   Zn331   1.914   .     S
O269   Zn662   1.914   .     S
O270   Zn325   1.914   .     S
O271   Zn981   1.914   .     S
O272   Zn658   1.913   .     S
O273   Zn327   1.913   .     S
O274   Zn317   1.915   .     S
O275   Zn989   1.915   .     S
O276   Zn330   1.913   .     S
O277   C665    1.274   .     A
O277   Zn324   1.954   .     S
O278   Zn663   1.913   .     S
O279   Zn992   1.915   .     S
O280   Zn329   1.915   .     S
O288   Zn323   1.954   .     S
O291   C682    1.411   .     S
O295   C686    1.411   1_545 S
O299   Zn318   1.953   .     S
O310   Zn332   1.953   .     S
O310   C403    1.274   .     S
O316   Zn320   1.954   .     S
Zn317  O935    1.914   1_545 S
Zn319  O908    1.937   .     S
Zn322  O587    1.935   .     S
Zn324  O897    1.937   .     S
Zn325  O939    1.915   1_545 S
Zn326  O604    1.913   1_455 S
Zn327  O595    1.914   1_455 S
Zn328  O943    1.915   1_545 S
Zn329  O929    1.914   1_545 S
Zn330  O601    1.914   1_455 S
Zn331  O610    1.913   1_455 S
Zn332  O598    1.935   .     S
C333   O1273   1.274   1_545 A
C333   C424    1.472   .     S
C333   O648    1.274   .     S
C334   C400    1.422   .     S
C334   O607    1.277   .     A
C334   O579    1.276   .     A
C335   C443    1.420   .     A
C335   O643    1.388   .     S
C335   C338    1.408   1_554 S
C336   O644    1.389   .     S
C336   C444    1.418   .     A
C336   C467    1.406   1_556 S
C337   C445    1.415   .     A
C337   O645    1.385   .     S
C337   C466    1.406   1_554 S
C338   C446    1.415   .     A
C338   O646    1.386   .     S
C338   C335    1.408   1_556 S
C339   C448    1.420   .     A
C339   O647    1.388   .     S
C339   C468    1.408   1_554 S
C340   H491    1.109   .     S
C340   H480    1.111   .     S
C340   H469    1.114   .     S
C340   O613    1.413   .     S
C341   O614    1.411   .     S
C341   H513    1.114   .     S
C341   H502    1.113   .     S
C341   H524    1.109   .     S
C342   H557    1.109   .     S
C342   H535    1.112   .     S
C342   H546    1.114   .     S
C342   O615    1.411   .     S
C343   O616    1.414   .     S
C343   H472    1.109   .     S
C343   H1134   1.114   1_545 S
C343   H1135   1.109   1_545 S
C344   H473    1.114   .     S
C344   H475    1.109   .     S
C344   H474    1.111   .     S
C344   O617    1.413   .     S
C345   O580    1.277   .     A
C345   O604    1.276   .     A
C345   C399    1.421   .     S
C346   H478    1.109   .     S
C346   H476    1.113   .     S
C346   O618    1.411   .     S
C346   H477    1.114   .     S
C347   O619    1.411   .     S
C347   H481    1.114   .     S
C347   H479    1.112   .     S
C347   H482    1.109   .     S
C348   O621    1.414   .     S
C348   H485    1.109   .     S
C348   H1147   1.114   .     S
C348   H1148   1.109   .     S
C349   H487    1.111   .     S
C349   O622    1.413   .     S
C349   H486    1.114   .     S
C349   H488    1.109   .     S
C350   H489    1.113   .     S
C350   H490    1.114   .     S
C350   H492    1.109   .     S
C350   O1287   1.411   1_545 S
C351   O624    1.411   .     S
C351   H495    1.109   .     S
C351   H493    1.112   .     S
C351   H162    1.114   1_655 S
C352   H497    1.109   .     S
C352   O625    1.414   .     S
C352   H496    1.114   .     S
C352   H498    1.109   .     S
C353   H500    1.111   .     S
C353   H501    1.109   .     S
C353   H499    1.114   .     S
C353   O626    1.413   .     S
C354   H505    1.109   .     S
C354   H503    1.113   .     S
C354   H504    1.114   .     S
C354   O1291   1.411   .     S
C355   H508    1.109   .     S
C355   O628    1.411   .     S
C355   H506    1.112   .     S
C356   O581    1.277   .     A
C356   C398    1.421   .     S
C356   O605    1.276   .     A
C357   H510    1.109   .     S
C357   O629    1.414   .     S
C357   H509    1.114   .     S
C357   H511    1.109   .     S
C358   H514    1.109   .     S
C358   H515    1.109   .     S
C358   H512    1.114   .     S
C358   O630    1.414   .     S
C359   H517    1.112   .     S
C359   O632    1.416   .     S
C359   H516    1.109   .     S
C359   H518    1.109   .     S
C360   H519    1.109   .     S
C360   O633    1.416   .     S
C360   H521    1.109   .     S
C360   H520    1.112   .     S
C361   H525    1.108   .     S
C361   H523    1.109   .     S
C361   O634    1.413   .     S
C361   H522    1.115   .     S
C362   H527    1.109   .     S
C362   O635    1.414   .     S
C362   H528    1.109   .     S
C362   H526    1.114   .     S
C363   H530    1.112   .     S
C363   H531    1.109   .     S
C363   H529    1.109   .     S
C363   O636    1.416   .     S
C364   H533    1.112   .     S
C364   O637    1.416   .     S
C364   H534    1.109   .     S
C364   H532    1.109   .     S
C365   H537    1.109   .     S
C365   O638    1.413   .     S
C365   H536    1.115   .     S
C365   H538    1.108   .     S
C366   H539    1.114   .     S
C366   H540    1.109   .     S
C366   O639    1.414   .     S
C366   H541    1.109   .     S
C367   O582    1.276   .     A
C367   C397    1.422   .     S
C367   O611    1.277   .     A
C368   H544    1.109   .     S
C368   O640    1.416   .     S
C368   H543    1.112   .     S
C368   H542    1.109   .     S
C369   H548    1.109   .     S
C369   H545    1.109   .     S
C369   H547    1.112   .     S
C369   O641    1.416   .     S
C370   H550    1.109   .     S
C370   H551    1.108   .     S
C370   H549    1.115   .     S
C370   O643    1.413   .     S
C371   H552    1.114   .     S
C371   H554    1.109   .     S
C371   H553    1.109   .     S
C371   O644    1.414   .     S
C372   H558    1.109   .     S
C372   O645    1.416   .     S
C372   H555    1.109   .     S
C372   H556    1.112   .     S
C373   H560    1.112   .     S
C373   H559    1.109   .     S
C373   H561    1.109   .     S
C373   O646    1.416   .     S
C374   H563    1.109   .     S
C374   H564    1.108   .     S
C374   H562    1.115   .     S
C374   O647    1.413   .     S
C375   O583    1.276   .     A
C375   C396    1.422   .     S
C375   O612    1.277   .     A
C376   O608    1.276   .     A
C376   C404    1.421   .     S
C376   O584    1.277   .     A
C377   C402    1.421   .     S
C377   O610    1.276   .     A
C377   O585    1.277   .     A
C378   O597    1.277   .     A
C378   O586    1.276   .     A
C378   C393    1.421   .     S
C379   O599    1.277   .     A
C379   O588    1.276   .     A
C379   C391    1.421   .     S
C380   O595    1.276   .     A
C380   O589    1.277   .     A
C380   C390    1.422   .     S
C381   O620    1.270   .     A
C381   C426    1.462   .     S
C381   O1230   1.270   1_545 S
C382   C389    1.422   .     S
C382   O590    1.277   .     A
C382   O596    1.276   .     A
C383   O602    1.277   .     A
C383   O591    1.276   .     A
C383   C388    1.421   .     S
C384   O592    1.276   .     A
C384   C387    1.421   .     S
C384   O603    1.277   .     A
C385   O593    1.277   .     A
C385   C395    1.422   .     S
C385   O600    1.276   .     A
C386   O601    1.276   .     A
C386   C394    1.422   .     S
C386   O594    1.277   .     A
C387   C404    1.197   .     T
C388   C402    1.197   .     T
C389   C401    1.198   .     T
C390   C400    1.198   .     T
C391   C399    1.197   .     T
C392   C422    1.466   .     S
C392   O631    1.271   .     A
C393   C398    1.197   .     T
C394   C397    1.198   .     T
C395   C396    1.198   .     T
C401   C458    1.422   .     S
C403   C423    1.476   .     S
C403   O568    1.274   .     A
C405   C422    1.407   .     A
C405   C435    1.409   .     A
C405   O613    1.386   .     S
C406   C437    1.409   .     A
C406   O614    1.384   .     S
C406   C91     1.410   1_655 S
C407   C438    1.415   .     A
C407   O615    1.385   .     S
C407   C1088   1.405   .     A
C408   C439    1.415   .     A
C408   O616    1.387   .     S
C408   C426    1.404   .     S
C409   O617    1.386   .     S
C409   C431    1.409   .     A
C409   C90     1.407   1_655 S
C410   O618    1.384   .     S
C410   C432    1.409   .     A
C410   C423    1.410   .     A
C411   O619    1.385   .     S
C411   C433    1.415   .     A
C411   C424    1.405   .     S
C412   C434    1.415   .     A
C412   C1090   1.404   .     A
C412   O621    1.387   .     S
C413   C427    1.407   .     A
C413   O622    1.386   .     S
C413   C444    1.409   .     A
C414   C429    1.472   .     S
C414   O569    1.274   .     S
C414   O573    1.274   .     S
C415   O623    1.384   .     S
C415   C1092   1.410   .     A
C415   C445    1.409   .     A
C416   C446    1.415   .     A
C416   O624    1.385   .     S
C416   C97     1.405   1_655 A
C417   C448    1.415   .     A
C417   O625    1.387   .     S
C417   C430    1.404   .     A
C418   C440    1.409   .     A
C418   O626    1.386   .     S
C418   C1091   1.407   .     S
C419   C441    1.409   .     A
C419   O627    1.384   .     S
C419   C428    1.410   .     S
C420   C442    1.415   .     A
C420   O628    1.385   .     S
C420   C429    1.405   .     S
C421   O629    1.387   .     S
C421   C443    1.415   .     A
C421   C98     1.404   1_655 S
C424   C1071   1.405   1_545 A
C425   C430    1.462   .     S
C425   O570    1.270   .     S
C425   O574    1.270   .     S
C426   C1076   1.404   1_545 A
C427   C436    1.466   .     S
C427   C1082   1.407   1_545 S
C428   C1079   1.410   1_545 A
C428   C447    1.476   .     S
C431   C457    1.418   .     A
C431   C117    1.420   1_655 S
C432   C459    1.415   .     A
C432   C450    1.413   .     A
C433   C460    1.415   .     A
C433   C451    1.416   .     S
C434   C1116   1.423   .     A
C434   C461    1.420   .     A
C435   C449    1.420   .     A
C435   C462    1.418   .     A
C436   O575    1.271   .     A
C436   O571    1.271   .     A
C437   C463    1.415   .     A
C437   C118    1.413   1_655 S
C438   C464    1.415   .     A
C438   C1115   1.416   .     A
C439   C465    1.420   .     A
C439   C452    1.423   .     S
C440   C466    1.418   .     A
C440   C1117   1.420   .     S
C441   C467    1.415   .     A
C441   C454    1.413   .     A
C442   C455    1.416   .     A
C442   C468    1.415   .     A
C443   C124    1.423   1_655 S
C444   C453    1.420   .     A
C445   C1118   1.413   .     S
C446   C123    1.416   1_655 S
C447   O572    1.274   .     S
C447   O577    1.274   .     S
C448   C456    1.423   .     A
C449   C450    1.406   .     A
C451   C1102   1.416   1_545 A
C451   C452    1.413   .     A
C452   C1098   1.423   1_545 A
C453   C1104   1.420   1_545 S
C453   C454    1.406   1_556 S
C454   C1109   1.413   1_545 S
C454   C453    1.406   1_554 S
C455   C456    1.413   1_556 S
C456   C455    1.413   1_554 S
C457   O630    1.389   .     S
C457   C463    1.406   .     A
C458   O578    1.276   .     A
C458   O606    1.277   .     A
C459   O632    1.385   .     S
C459   C462    1.406   .     A
C460   O633    1.386   .     S
C460   C465    1.408   .     A
C461   C464    1.408   .     A
C461   O634    1.388   .     S
C462   O635    1.389   .     S
C463   O636    1.385   .     S
C464   O637    1.386   .     S
C465   O638    1.388   .     S
C466   O639    1.389   .     S
C466   C337    1.406   1_556 S
C467   O640    1.385   .     S
C467   C336    1.406   1_554 S
C468   O641    1.386   .     S
C468   C339    1.408   1_556 S
H470   C1007   1.114   .     S
H471   C1007   1.109   .     S
H483   C1012   1.114   1_545 S
H484   C1012   1.109   1_545 S
H507   C23     1.114   1_655 S
O565   Zn649   1.935   .     S
O565   Zn660   1.935   .     S
O565   Zn652   1.937   .     S
O565   Zn1320  1.937   1_545 S
O566   Zn651   1.954   .     S
O566   C1045   1.270   .     S
O567   Zn654   1.953   .     S
O567   C60     1.271   1_655 S
O568   Zn653   1.953   .     S
O569   Zn663   1.954   .     S
O570   Zn662   1.954   .     S
O571   Zn657   1.953   .     S
O572   Zn649   1.953   .     S
O573   Zn659   1.954   .     S
O574   Zn658   1.954   .     S
O575   Zn661   1.953   .     S
O576   Zn657   1.935   .     S
O576   Zn661   1.935   .     S
O576   Zn655   1.937   .     S
O576   Zn1315  1.937   1_545 S
O577   Zn660   1.953   .     S
O578   Zn652   1.914   .     S
O579   Zn651   1.914   .     S
O580   Zn654   1.914   .     S
O581   Zn653   1.914   .     S
O582   Zn656   1.914   .     S
O583   Zn655   1.914   .     S
O584   Zn650   1.914   .     S
O585   Zn664   1.914   .     S
O586   Zn651   1.913   .     S
O587   Zn662   1.937   .     S
O587   Zn650   1.935   .     S
O587   Zn658   1.937   .     S
O588   Zn652   1.913   .     S
O589   Zn664   1.915   .     S
O590   Zn650   1.915   .     S
O591   Zn655   1.913   .     S
O592   Zn656   1.913   .     S
O593   Zn653   1.915   .     S
O594   Zn654   1.915   .     S
O595   Zn327   1.914   1_655 S
O596   Zn658   1.914   .     S
O597   Zn1325  1.914   .     S
O598   Zn653   1.935   .     S
O598   Zn659   1.937   .     S
O598   Zn663   1.937   .     S
O599   Zn660   1.914   .     S
O600   Zn663   1.914   .     S
O601   Zn330   1.914   1_655 S
O602   Zn657   1.914   .     S
O603   Zn1313  1.914   .     S
O604   Zn326   1.913   1_655 S
O605   Zn659   1.913   .     S
O606   Zn649   1.915   .     S
O607   Zn1321  1.915   .     S
O608   Zn662   1.913   .     S
O609   C997    1.274   .     A
O609   Zn656   1.954   .     S
O610   Zn331   1.913   1_655 S
O611   Zn1324  1.915   .     S
O612   Zn661   1.915   .     S
O620   Zn655   1.954   .     S
O623   C1014   1.411   .     S
O627   C1018   1.411   1_545 S
O631   Zn650   1.953   .     S
O642   Zn664   1.953   .     S
O642   C71     1.274   1_655 S
O648   Zn652   1.954   .     S
Zn649  O1267   1.914   1_545 S
Zn651  O1240   1.937   .     S
Zn654  O255    1.935   1_655 S
Zn656  O1229   1.937   .     S
Zn657  O1271   1.915   1_545 S
Zn660  O1275   1.915   1_545 S
Zn661  O1261   1.914   1_545 S
Zn664  O266    1.935   1_655 S
C665   C756    1.472   .     S
C665   O980    1.274   .     S
C666   C732    1.422   .     S
C666   O939    1.277   .     A
C666   O911    1.276   .     A
C667   C775    1.420   .     A
C667   O975    1.388   .     S
C667   C670    1.408   1_554 S
C668   O976    1.389   .     S
C668   C776    1.418   .     A
C668   C799    1.406   1_556 S
C669   C777    1.415   .     A
C669   O977    1.385   .     S
C669   C798    1.406   1_554 S
C670   C778    1.415   .     A
C670   O978    1.386   .     S
C670   C667    1.408   1_556 S
C671   C780    1.420   .     A
C671   O979    1.388   .     S
C671   C800    1.408   1_554 S
C672   H823    1.109   .     S
C672   H812    1.111   .     S
C672   H801    1.114   .     S
C672   O945    1.413   .     S
C673   O946    1.411   .     S
C673   H845    1.114   .     S
C673   H834    1.113   .     S
C673   H856    1.109   .     S
C674   H889    1.109   .     S
C674   H867    1.112   .     S
C674   H878    1.114   .     S
C674   O947    1.411   .     S
C675   O948    1.414   .     S
C675   H804    1.109   .     S
C676   H805    1.114   .     S
C676   H807    1.109   .     S
C676   H806    1.111   .     S
C676   O949    1.413   .     S
C677   O912    1.277   .     A
C677   O936    1.276   .     A
C677   C731    1.421   .     S
C678   H810    1.109   .     S
C678   H808    1.113   .     S
C678   O950    1.411   .     S
C678   H809    1.114   .     S
C679   O951    1.411   .     S
C679   H813    1.114   .     S
C679   H811    1.112   .     S
C679   H814    1.109   .     S
C680   O953    1.414   .     S
C680   H817    1.109   .     S
C680   H151    1.114   1_565 S
C680   H152    1.109   1_565 S
C681   H819    1.111   .     S
C681   O954    1.413   .     S
C681   H818    1.114   .     S
C681   H820    1.109   .     S
C682   H821    1.113   .     S
C682   H822    1.114   .     S
C682   H824    1.109   .     S
C683   O956    1.411   .     S
C683   H827    1.109   .     S
C683   H825    1.112   .     S
C683   H1158   1.114   .     S
C684   H829    1.109   .     S
C684   O957    1.414   .     S
C684   H828    1.114   .     S
C684   H830    1.109   .     S
C685   H832    1.111   .     S
C685   H833    1.109   .     S
C685   H831    1.114   .     S
C685   O958    1.413   .     S
C686   H837    1.109   .     S
C686   H835    1.113   .     S
C686   H836    1.114   .     S
C686   O295    1.411   1_565 S
C687   H840    1.109   .     S
C687   O960    1.411   .     S
C687   H838    1.112   .     S
C687   H1171   1.114   1_455 S
C688   O913    1.277   .     A
C688   C730    1.421   .     S
C688   O937    1.276   .     A
C689   H842    1.109   .     S
C689   O961    1.414   .     S
C689   H841    1.114   .     S
C689   H843    1.109   .     S
C690   H846    1.109   .     S
C690   H847    1.109   .     S
C690   H844    1.114   .     S
C690   O962    1.414   .     S
C691   H849    1.112   .     S
C691   O964    1.416   .     S
C691   H848    1.109   .     S
C691   H850    1.109   .     S
C692   H851    1.109   .     S
C692   O965    1.416   .     S
C692   H853    1.109   .     S
C692   H852    1.112   .     S
C693   H857    1.108   .     S
C693   H855    1.109   .     S
C693   O966    1.413   .     S
C693   H854    1.115   .     S
C694   H859    1.109   .     S
C694   O967    1.414   .     S
C694   H860    1.109   .     S
C694   H858    1.114   .     S
C695   H862    1.112   .     S
C695   H863    1.109   .     S
C695   H861    1.109   .     S
C695   O968    1.416   .     S
C696   H865    1.112   .     S
C696   O969    1.416   .     S
C696   H866    1.109   .     S
C696   H864    1.109   .     S
C697   H869    1.109   .     S
C697   O970    1.413   .     S
C697   H868    1.115   .     S
C697   H870    1.108   .     S
C698   H871    1.114   .     S
C698   H872    1.109   .     S
C698   O971    1.414   .     S
C698   H873    1.109   .     S
C699   O914    1.276   .     A
C699   C729    1.422   .     S
C699   O943    1.277   .     A
C700   H876    1.109   .     S
C700   O972    1.416   .     S
C700   H875    1.112   .     S
C700   H874    1.109   .     S
C701   H880    1.109   .     S
C701   H877    1.109   .     S
C701   H879    1.112   .     S
C701   O973    1.416   .     S
C702   H882    1.109   .     S
C702   H883    1.108   .     S
C702   H881    1.115   .     S
C702   O975    1.413   .     S
C703   H884    1.114   .     S
C703   H886    1.109   .     S
C703   H885    1.109   .     S
C703   O976    1.414   .     S
C704   H890    1.109   .     S
C704   O977    1.416   .     S
C704   H887    1.109   .     S
C704   H888    1.112   .     S
C705   H892    1.112   .     S
C705   H891    1.109   .     S
C705   H893    1.109   .     S
C705   O978    1.416   .     S
C706   H895    1.109   .     S
C706   H896    1.108   .     S
C706   H894    1.115   .     S
C706   O979    1.413   .     S
C707   O915    1.276   .     A
C707   C728    1.422   .     S
C707   O944    1.277   .     A
C708   O940    1.276   .     A
C708   C736    1.421   .     S
C708   O916    1.277   .     A
C709   C734    1.421   .     S
C709   O942    1.276   .     A
C709   O917    1.277   .     A
C710   O929    1.277   .     A
C710   O918    1.276   .     A
C710   C725    1.421   .     S
C711   O931    1.277   .     A
C711   O920    1.276   .     A
C711   C723    1.421   .     S
C712   O927    1.276   .     A
C712   O921    1.277   .     A
C712   C722    1.422   .     S
C713   O952    1.270   .     A
C713   C758    1.462   .     S
C714   C721    1.422   .     S
C714   O922    1.277   .     A
C714   O928    1.276   .     A
C715   O934    1.277   .     A
C715   O923    1.276   .     A
C715   C720    1.421   .     S
C716   O924    1.276   .     A
C716   C719    1.421   .     S
C716   O935    1.277   .     A
C717   O925    1.277   .     A
C717   C727    1.422   .     S
C717   O932    1.276   .     A
C718   O933    1.276   .     A
C718   C726    1.422   .     S
C718   O926    1.277   .     A
C719   C736    1.197   .     T
C720   C734    1.197   .     T
C721   C733    1.198   .     T
C722   C732    1.198   .     T
C723   C731    1.197   .     T
C724   C754    1.466   .     S
C724   O963    1.271   .     A
C724   O1231   1.271   1_455 S
C725   C730    1.197   .     T
C726   C729    1.198   .     T
C727   C728    1.198   .     T
C733   C790    1.422   .     S
C735   C755    1.476   .     S
C735   O900    1.274   .     A
C735   O1306   1.274   1_455 S
C737   C754    1.407   .     A
C737   C767    1.409   .     A
C737   O945    1.386   .     S
C738   C769    1.409   .     A
C738   O946    1.384   .     S
C738   C1087   1.410   .     S
C739   C770    1.415   .     A
C739   O947    1.385   .     S
C739   C92     1.405   1_565 A
C740   C771    1.415   .     A
C740   O948    1.387   .     S
C740   C758    1.404   .     S
C741   O949    1.386   .     S
C741   C763    1.409   .     A
C741   C1086   1.407   .     S
C742   O950    1.384   .     S
C742   C764    1.409   .     A
C742   C755    1.410   .     A
C743   O951    1.385   .     S
C743   C765    1.415   .     A
C743   C756    1.405   .     S
C744   C766    1.415   .     A
C744   C94     1.404   1_565 A
C744   O953    1.387   .     S
C745   C759    1.407   .     A
C745   O954    1.386   .     S
C745   C776    1.409   .     A
C746   C761    1.472   .     S
C746   O901    1.274   .     S
C746   O905    1.274   .     S
C747   O955    1.384   .     S
C747   C96     1.410   1_565 A
C747   C777    1.409   .     A
C748   C778    1.415   .     A
C748   O956    1.385   .     S
C748   C1093   1.405   .     A
C749   C780    1.415   .     A
C749   O957    1.387   .     S
C749   C762    1.404   .     A
C750   C772    1.409   .     A
C750   O958    1.386   .     S
C750   C95     1.407   1_565 S
C751   C773    1.409   .     A
C751   O959    1.384   .     S
C751   C760    1.410   .     S
C752   C774    1.415   .     A
C752   O960    1.385   .     S
C752   C761    1.405   .     S
C753   O961    1.387   .     S
C753   C775    1.415   .     A
C753   C1094   1.404   .     S
C754   C1073   1.407   1_455 S
C755   C1070   1.410   1_455 S
C757   C762    1.462   .     S
C757   O902    1.270   .     S
C757   O906    1.270   .     S
C759   C768    1.466   .     S
C760   C779    1.476   .     S
C761   C1080   1.405   1_455 A
C762   C1085   1.404   1_455 S
C763   C789    1.418   .     A
C763   C1113   1.420   .     S
C764   C791    1.415   .     A
C764   C782    1.413   .     A
C765   C792    1.415   .     A
C765   C783    1.416   .     S
C766   C120    1.423   1_565 A
C766   C793    1.420   .     A
C767   C781    1.420   .     A
C767   C794    1.418   .     A
C768   O907    1.271   .     A
C768   O903    1.271   .     A
C769   C795    1.415   .     A
C769   C1114   1.413   .     S
C770   C796    1.415   .     A
C770   C119    1.416   1_565 A
C771   C797    1.420   .     A
C771   C784    1.423   .     S
C772   C798    1.418   .     A
C772   C121    1.420   1_565 S
C773   C799    1.415   .     A
C773   C786    1.413   .     A
C774   C787    1.416   .     A
C774   C800    1.415   .     A
C775   C1120   1.423   .     S
C776   C785    1.420   .     A
C777   C122    1.413   1_565 S
C778   C1119   1.416   .     S
C779   O904    1.274   .     S
C779   O909    1.274   .     S
C780   C788    1.423   .     A
C781   C782    1.406   .     A
C781   C1095   1.420   1_455 S
C782   C1101   1.413   1_455 S
C783   C784    1.413   .     A
C785   C786    1.406   1_556 S
C786   C785    1.406   1_554 S
C787   C1110   1.416   1_455 S
C787   C788    1.413   1_556 S
C788   C1107   1.423   1_455 S
C788   C787    1.413   1_554 S
C789   O962    1.389   .     S
C789   C795    1.406   .     A
C790   O910    1.276   .     A
C790   O938    1.277   .     A
C791   O964    1.385   .     S
C791   C794    1.406   .     A
C792   O965    1.386   .     S
C792   C797    1.408   .     A
C793   C796    1.408   .     A
C793   O966    1.388   .     S
C794   O967    1.389   .     S
C795   O968    1.385   .     S
C796   O969    1.386   .     S
C797   O970    1.388   .     S
C798   O971    1.389   .     S
C798   C669    1.406   1_556 S
C799   O972    1.385   .     S
C799   C668    1.406   1_554 S
C800   O973    1.386   .     S
C800   C671    1.408   1_556 S
H802   C11     1.114   1_565 S
H803   C11     1.109   1_565 S
H826   C1015   1.114   1_455 S
H839   C1019   1.114   .     S
O897   Zn981   1.935   .     S
O897   Zn992   1.935   .     S
O897   Zn984   1.937   .     S
O898   Zn983   1.954   .     S
O898   C49     1.270   1_565 S
O899   Zn986   1.953   .     S
O899   C1056   1.271   .     S
O900   Zn985   1.953   .     S
O901   Zn995   1.954   .     S
O902   Zn994   1.954   .     S
O903   Zn989   1.953   .     S
O904   Zn981   1.953   .     S
O905   Zn991   1.954   .     S
O906   Zn990   1.954   .     S
O907   Zn993   1.953   .     S
O908   Zn989   1.935   .     S
O908   Zn993   1.935   .     S
O908   Zn987   1.937   .     S
O909   Zn992   1.953   .     S
O910   Zn984   1.914   .     S
O911   Zn983   1.914   .     S
O912   Zn986   1.914   .     S
O913   Zn985   1.914   .     S
O914   Zn988   1.914   .     S
O915   Zn987   1.914   .     S
O916   Zn982   1.914   .     S
O917   Zn996   1.914   .     S
O918   Zn983   1.913   .     S
O919   Zn994   1.937   .     S
O919   Zn982   1.935   .     S
O919   Zn1318  1.935   1_455 S
O919   Zn990   1.937   .     S
O920   Zn984   1.913   .     S
O921   Zn996   1.915   .     S
O922   Zn982   1.915   .     S
O923   Zn987   1.913   .     S
O924   Zn988   1.913   .     S
O925   Zn985   1.915   .     S
O926   Zn986   1.915   .     S
O927   Zn1323  1.914   .     S
O928   Zn990   1.914   .     S
O929   Zn329   1.914   1_565 S
O930   Zn985   1.935   .     S
O930   Zn991   1.937   .     S
O930   Zn995   1.937   .     S
O930   Zn1328  1.935   1_455 S
O931   Zn992   1.914   .     S
O932   Zn995   1.914   .     S
O933   Zn1326  1.914   .     S
O934   Zn989   1.914   .     S
O935   Zn317   1.914   1_565 S
O936   Zn1322  1.913   .     S
O937   Zn991   1.913   .     S
O938   Zn981   1.915   .     S
O939   Zn325   1.915   1_565 S
O940   Zn994   1.913   .     S
O941   C1      1.274   1_565 A
O941   Zn988   1.954   .     S
O942   Zn1327  1.913   .     S
O943   Zn328   1.915   1_565 S
O944   Zn993   1.915   .     S
O952   Zn987   1.954   .     S
O955   C18     1.411   1_565 S
O963   Zn982   1.953   .     S
O974   Zn996   1.953   .     S
O974   C1067   1.274   .     S
O980   Zn984   1.954   .     S
Zn983  O244    1.937   1_565 S
Zn986  O1251   1.935   .     S
Zn988  O233    1.937   1_565 S
Zn990  O1268   1.913   1_455 S
Zn991  O1259   1.914   1_455 S
Zn994  O1265   1.914   1_455 S
Zn995  O1274   1.913   1_455 S
Zn996  O1262   1.935   .     S
C997   C1088   1.472   .     S
C997   O1312   1.274   .     S
C998   C1064   1.422   .     S
C998   O1271   1.277   .     A
C998   O1243   1.276   .     A
C999   C1107   1.420   .     A
C999   O1307   1.388   .     S
C999   C1002   1.408   1_554 S
C1000  O1308   1.389   .     S
C1000  C1108   1.418   .     A
C1000  C1131   1.406   1_556 S
C1001  C1109   1.415   .     A
C1001  O1309   1.385   .     S
C1001  C1130   1.406   1_554 S
C1002  C1110   1.415   .     A
C1002  O1310   1.386   .     S
C1002  C999    1.408   1_556 S
C1003  C1112   1.420   .     A
C1003  O1311   1.388   .     S
C1003  C1132   1.408   1_554 S
C1004  H1155   1.109   .     S
C1004  H1144   1.111   .     S
C1004  H1133   1.114   .     S
C1004  O1277   1.413   .     S
C1005  O1278   1.411   .     S
C1005  H1177   1.114   .     S
C1005  H1166   1.113   .     S
C1005  H1188   1.109   .     S
C1006  H1221   1.109   .     S
C1006  H1199   1.112   .     S
C1006  H1210   1.114   .     S
C1006  O1279   1.411   .     S
C1007  O1280   1.414   .     S
C1007  H1136   1.109   .     S
C1008  H1137   1.114   .     S
C1008  H1139   1.109   .     S
C1008  H1138   1.111   .     S
C1008  O1281   1.413   .     S
C1009  O1244   1.277   .     A
C1009  O1268   1.276   .     A
C1009  C1063   1.421   .     S
C1010  H1142   1.109   .     S
C1010  H1140   1.113   .     S
C1010  O1282   1.411   .     S
C1010  H1141   1.114   .     S
C1011  O1283   1.411   .     S
C1011  H1145   1.114   .     S
C1011  H1143   1.112   .     S
C1011  H1146   1.109   .     S
C1012  O1285   1.414   .     S
C1012  H1149   1.109   .     S
C1012  H483    1.114   1_565 S
C1012  H484    1.109   1_565 S
C1013  H1151   1.111   .     S
C1013  O1286   1.413   .     S
C1013  H1150   1.114   .     S
C1013  H1152   1.109   .     S
C1014  H1153   1.113   .     S
C1014  H1154   1.114   .     S
C1014  H1156   1.109   .     S
C1015  O1288   1.411   .     S
C1015  H1159   1.109   .     S
C1015  H1157   1.112   .     S
C1015  H826    1.114   1_655 S
C1016  H1161   1.109   .     S
C1016  O1289   1.414   .     S
C1016  H1160   1.114   .     S
C1016  H1162   1.109   .     S
C1017  H1164   1.111   .     S
C1017  H1165   1.109   .     S
C1017  H1163   1.114   .     S
C1017  O1290   1.413   .     S
C1018  H1169   1.109   .     S
C1018  H1167   1.113   .     S
C1018  H1168   1.114   .     S
C1018  O627    1.411   1_565 S
C1019  H1172   1.109   .     S
C1019  O1292   1.411   .     S
C1019  H1170   1.112   .     S
C1020  O1245   1.277   .     A
C1020  C1062   1.421   .     S
C1020  O1269   1.276   .     A
C1021  H1174   1.109   .     S
C1021  O1293   1.414   .     S
C1021  H1173   1.114   .     S
C1021  H1175   1.109   .     S
C1022  H1178   1.109   .     S
C1022  H1179   1.109   .     S
C1022  H1176   1.114   .     S
C1022  O1294   1.414   .     S
C1023  H1181   1.112   .     S
C1023  O1296   1.416   .     S
C1023  H1180   1.109   .     S
C1023  H1182   1.109   .     S
C1024  H1183   1.109   .     S
C1024  O1297   1.416   .     S
C1024  H1185   1.109   .     S
C1024  H1184   1.112   .     S
C1025  H1189   1.108   .     S
C1025  H1187   1.109   .     S
C1025  O1298   1.413   .     S
C1025  H1186   1.115   .     S
C1026  H1191   1.109   .     S
C1026  O1299   1.414   .     S
C1026  H1192   1.109   .     S
C1026  H1190   1.114   .     S
C1027  H1194   1.112   .     S
C1027  H1195   1.109   .     S
C1027  H1193   1.109   .     S
C1027  O1300   1.416   .     S
C1028  H1197   1.112   .     S
C1028  O1301   1.416   .     S
C1028  H1198   1.109   .     S
C1028  H1196   1.109   .     S
C1029  H1201   1.109   .     S
C1029  O1302   1.413   .     S
C1029  H1200   1.115   .     S
C1029  H1202   1.108   .     S
C1030  H1203   1.114   .     S
C1030  H1204   1.109   .     S
C1030  O1303   1.414   .     S
C1030  H1205   1.109   .     S
C1031  O1246   1.276   .     A
C1031  C1061   1.422   .     S
C1031  O1275   1.277   .     A
C1032  H1208   1.109   .     S
C1032  O1304   1.416   .     S
C1032  H1207   1.112   .     S
C1032  H1206   1.109   .     S
C1033  H1212   1.109   .     S
C1033  H1209   1.109   .     S
C1033  H1211   1.112   .     S
C1033  O1305   1.416   .     S
C1034  H1214   1.109   .     S
C1034  H1215   1.108   .     S
C1034  H1213   1.115   .     S
C1034  O1307   1.413   .     S
C1035  H1216   1.114   .     S
C1035  H1218   1.109   .     S
C1035  H1217   1.109   .     S
C1035  O1308   1.414   .     S
C1036  H1222   1.109   .     S
C1036  O1309   1.416   .     S
C1036  H1219   1.109   .     S
C1036  H1220   1.112   .     S
C1037  H1224   1.112   .     S
C1037  H1223   1.109   .     S
C1037  H1225   1.109   .     S
C1037  O1310   1.416   .     S
C1038  H1227   1.109   .     S
C1038  H1228   1.108   .     S
C1038  H1226   1.115   .     S
C1038  O1311   1.413   .     S
C1039  O1247   1.276   .     A
C1039  C1060   1.422   .     S
C1039  O1276   1.277   .     A
C1040  O1272   1.276   .     A
C1040  C1068   1.421   .     S
C1040  O1248   1.277   .     A
C1041  C1066   1.421   .     S
C1041  O1274   1.276   .     A
C1041  O1249   1.277   .     A
C1042  O1261   1.277   .     A
C1042  O1250   1.276   .     A
C1042  C1057   1.421   .     S
C1043  O1263   1.277   .     A
C1043  O1252   1.276   .     A
C1043  C1055   1.421   .     S
C1044  O1259   1.276   .     A
C1044  O1253   1.277   .     A
C1044  C1054   1.422   .     S
C1045  O1284   1.270   .     A
C1045  C1090   1.462   .     S
C1046  C1053   1.422   .     S
C1046  O1254   1.277   .     A
C1046  O1260   1.276   .     A
C1047  O1266   1.277   .     A
C1047  O1255   1.276   .     A
C1047  C1052   1.421   .     S
C1048  O1256   1.276   .     A
C1048  C1051   1.421   .     S
C1048  O1267   1.277   .     A
C1049  O1257   1.277   .     A
C1049  C1059   1.422   .     S
C1049  O1264   1.276   .     A
C1050  O1265   1.276   .     A
C1050  C1058   1.422   .     S
C1050  O1258   1.277   .     A
C1051  C1068   1.197   .     T
C1052  C1066   1.197   .     T
C1053  C1065   1.198   .     T
C1054  C1064   1.198   .     T
C1055  C1063   1.197   .     T
C1056  C1086   1.466   .     S
C1056  O1295   1.271   .     A
C1057  C1062   1.197   .     T
C1058  C1061   1.198   .     T
C1059  C1060   1.198   .     T
C1065  C1122   1.422   .     S
C1067  C1087   1.476   .     S
C1067  O1232   1.274   .     A
C1069  C1086   1.407   .     A
C1069  C1099   1.409   .     A
C1069  O1277   1.386   .     S
C1070  C1101   1.409   .     A
C1070  O1278   1.384   .     S
C1070  C755    1.410   1_655 S
C1071  C1102   1.415   .     A
C1071  O1279   1.385   .     S
C1071  C424    1.405   1_565 A
C1072  C1103   1.415   .     A
C1072  O1280   1.387   .     S
C1072  C1090   1.404   .     S
C1073  O1281   1.386   .     S
C1073  C1095   1.409   .     A
C1073  C754    1.407   1_655 S
C1074  O1282   1.384   .     S
C1074  C1096   1.409   .     A
C1074  C1087   1.410   .     A
C1075  O1283   1.385   .     S
C1075  C1097   1.415   .     A
C1075  C1088   1.405   .     S
C1076  C1098   1.415   .     A
C1076  C426    1.404   1_565 A
C1076  O1285   1.387   .     S
C1077  C1091   1.407   .     A
C1077  O1286   1.386   .     S
C1077  C1108   1.409   .     A
C1078  C1093   1.472   .     S
C1078  O1233   1.274   .     S
C1078  O1237   1.274   .     S
C1079  O1287   1.384   .     S
C1079  C428    1.410   1_565 A
C1079  C1109   1.409   .     A
C1080  C1110   1.415   .     A
C1080  O1288   1.385   .     S
C1080  C761    1.405   1_655 A
C1081  C1112   1.415   .     A
C1081  O1289   1.387   .     S
C1081  C1094   1.404   .     A
C1082  C1104   1.409   .     A
C1082  O1290   1.386   .     S
C1082  C427    1.407   1_565 S
C1083  C1105   1.409   .     A
C1083  O1291   1.384   .     S
C1083  C1092   1.410   .     S
C1084  C1106   1.415   .     A
C1084  O1292   1.385   .     S
C1084  C1093   1.405   .     S
C1085  O1293   1.387   .     S
C1085  C1107   1.415   .     A
C1085  C762    1.404   1_655 S
C1089  C1094   1.462   .     S
C1089  O1234   1.270   .     S
C1089  O1238   1.270   .     S
C1091  C1100   1.466   .     S
C1092  C1111   1.476   .     S
C1095  C1121   1.418   .     A
C1095  C781    1.420   1_655 S
C1096  C1123   1.415   .     A
C1096  C1114   1.413   .     A
C1097  C1124   1.415   .     A
C1097  C1115   1.416   .     S
C1098  C452    1.423   1_565 A
C1098  C1125   1.420   .     A
C1099  C1113   1.420   .     A
C1099  C1126   1.418   .     A
C1100  O1239   1.271   .     A
C1100  O1235   1.271   .     A
C1101  C1127   1.415   .     A
C1101  C782    1.413   1_655 S
C1102  C1128   1.415   .     A
C1102  C451    1.416   1_565 A
C1103  C1129   1.420   .     A
C1103  C1116   1.423   .     S
C1104  C1130   1.418   .     A
C1104  C453    1.420   1_565 S
C1105  C1131   1.415   .     A
C1105  C1118   1.413   .     A
C1106  C1119   1.416   .     A
C1106  C1132   1.415   .     A
C1107  C788    1.423   1_655 S
C1108  C1117   1.420   .     A
C1109  C454    1.413   1_565 S
C1110  C787    1.416   1_655 S
C1111  O1236   1.274   .     S
C1111  O1241   1.274   .     S
C1112  C1120   1.423   .     A
C1113  C1114   1.406   .     A
C1115  C1116   1.413   .     A
C1117  C1118   1.406   1_556 S
C1118  C1117   1.406   1_554 S
C1119  C1120   1.413   1_556 S
C1120  C1119   1.413   1_554 S
C1121  O1294   1.389   .     S
C1121  C1127   1.406   .     A
C1122  O1242   1.276   .     A
C1122  O1270   1.277   .     A
C1123  O1296   1.385   .     S
C1123  C1126   1.406   .     A
C1124  O1297   1.386   .     S
C1124  C1129   1.408   .     A
C1125  C1128   1.408   .     A
C1125  O1298   1.388   .     S
C1126  O1299   1.389   .     S
C1127  O1300   1.385   .     S
C1128  O1301   1.386   .     S
C1129  O1302   1.388   .     S
C1130  O1303   1.389   .     S
C1130  C1001   1.406   1_556 S
C1131  O1304   1.385   .     S
C1131  C1000   1.406   1_554 S
C1132  O1305   1.386   .     S
C1132  C1003   1.408   1_556 S
H1134  C343    1.114   1_565 S
H1135  C343    1.109   1_565 S
H1171  C687    1.114   1_655 S
O1229  Zn1313  1.935   .     S
O1229  Zn1324  1.935   .     S
O1229  Zn1316  1.937   .     S
O1230  Zn1315  1.954   .     S
O1230  C381    1.270   1_565 S
O1231  Zn1318  1.953   .     S
O1231  C724    1.271   1_655 S
O1232  Zn1317  1.953   .     S
O1233  Zn1327  1.954   .     S
O1234  Zn1326  1.954   .     S
O1235  Zn1321  1.953   .     S
O1236  Zn1313  1.953   .     S
O1237  Zn1323  1.954   .     S
O1238  Zn1322  1.954   .     S
O1239  Zn1325  1.953   .     S
O1240  Zn1321  1.935   .     S
O1240  Zn1325  1.935   .     S
O1240  Zn1319  1.937   .     S
O1241  Zn1324  1.953   .     S
O1242  Zn1316  1.914   .     S
O1243  Zn1315  1.914   .     S
O1244  Zn1318  1.914   .     S
O1245  Zn1317  1.914   .     S
O1246  Zn1320  1.914   .     S
O1247  Zn1319  1.914   .     S
O1248  Zn1314  1.914   .     S
O1249  Zn1328  1.914   .     S
O1250  Zn1315  1.913   .     S
O1251  Zn1326  1.937   .     S
O1251  Zn1314  1.935   .     S
O1251  Zn1322  1.937   .     S
O1252  Zn1316  1.913   .     S
O1253  Zn1328  1.915   .     S
O1254  Zn1314  1.915   .     S
O1255  Zn1319  1.913   .     S
O1256  Zn1320  1.913   .     S
O1257  Zn1317  1.915   .     S
O1258  Zn1318  1.915   .     S
O1259  Zn991   1.914   1_655 S
O1260  Zn1322  1.914   .     S
O1261  Zn661   1.914   1_565 S
O1262  Zn1317  1.935   .     S
O1262  Zn1323  1.937   .     S
O1262  Zn1327  1.937   .     S
O1263  Zn1324  1.914   .     S
O1264  Zn1327  1.914   .     S
O1265  Zn994   1.914   1_655 S
O1266  Zn1321  1.914   .     S
O1267  Zn649   1.914   1_565 S
O1268  Zn990   1.913   1_655 S
O1269  Zn1323  1.913   .     S
O1270  Zn1313  1.915   .     S
O1271  Zn657   1.915   1_565 S
O1272  Zn1326  1.913   .     S
O1273  C333    1.274   1_565 A
O1273  Zn1320  1.954   .     S
O1274  Zn995   1.913   1_655 S
O1275  Zn660   1.915   1_565 S
O1276  Zn1325  1.915   .     S
O1284  Zn1319  1.954   .     S
O1287  C350    1.411   1_565 S
O1295  Zn1314  1.953   .     S
O1306  Zn1328  1.953   .     S
O1306  C735    1.274   1_655 S
O1312  Zn1316  1.954   .     S
Zn1315 O576    1.937   1_565 S
Zn1318 O919    1.935   1_655 S
Zn1320 O565    1.937   1_565 S
Zn1328 O930    1.935   1_655 S
