data_str_m1_o10_o16_pcu_sym.262
_audit_creation_date              2020-01-03
_audit_creation_method            'Materials Studio'
_symmetry_space_group_name_H-M    'P1'
_symmetry_Int_Tables_number       1
_symmetry_cell_setting            triclinic
loop_
_symmetry_equiv_pos_as_xyz
  x,y,z
_cell_length_a                    32.4823
_cell_length_b                    32.6558
_cell_length_c                    31.0444
_cell_angle_alpha                 97.0625
_cell_angle_beta                  74.8927
_cell_angle_gamma                 98.2786
loop_
_atom_site_label
_atom_site_type_symbol
_atom_site_fract_x
_atom_site_fract_y
_atom_site_fract_z
_atom_site_U_iso_or_equiv
_atom_site_adp_type
_atom_site_occupancy
C1     C     0.05268   0.15960   0.26015   0.00000  Uiso   1.00
C2     C     0.18096   0.16661   0.05685   0.00000  Uiso   1.00
C3     C     0.19938   0.09863   0.06231   0.00000  Uiso   1.00
C4     C     0.28067   0.17378   0.24011   0.00000  Uiso   1.00
C5     C     0.14144   0.19332   0.42042   0.00000  Uiso   1.00
C6     C     0.32652   0.17646   0.23624   0.00000  Uiso   1.00
C7     C     0.00740   0.15724   0.26408   0.00000  Uiso   1.00
C8     C     0.17779   0.32200   0.23667   0.00000  Uiso   1.00
C9     C     0.15058   0.01229   0.26592   0.00000  Uiso   1.00
C10    C     0.15685   0.05601   0.25952   0.00000  Uiso   1.00
C11    C     0.17614   0.27784   0.24043   0.00000  Uiso   1.00
C12    C     0.13270   0.24558   0.48377   0.00000  Uiso   1.00
C13    C     0.18517   0.14781   0.12943   0.00000  Uiso   1.00
C14    C     0.14773   0.18409   0.37124   0.00000  Uiso   1.00
C15    C     0.19542   0.08615   0.01908   0.00000  Uiso   1.00
C16    C     0.19150   0.13855   0.08136   0.00000  Uiso   1.00
C17    C     0.12728   0.23150   0.44123   0.00000  Uiso   1.00
C18    C     0.09054   0.02264   0.32549   0.00000  Uiso   1.00
C19    C     0.05935   0.00168   0.36414   0.00000  Uiso   1.00
C20    C     0.19916   0.05211   0.39273   0.00000  Uiso   1.00
C21    C     0.06432   0.24604   0.43248   0.00000  Uiso   1.00
C22    C     0.15000   0.22154   0.00694   0.00000  Uiso   1.00
C23    C     0.15990   0.18102   0.48934   0.00000  Uiso   1.00
C24    C     0.15346   0.16626   0.44634   0.00000  Uiso   1.00
C25    C     0.17476   0.15431   0.01355   0.00000  Uiso   1.00
C26    C     0.18177   0.11298   0.49485   0.00000  Uiso   1.00
C27    C     0.17328   0.09815   0.45331   0.00000  Uiso   1.00
C28    C     0.15724   0.12428   0.43081   0.00000  Uiso   1.00
H29    H     0.20700   0.07657   0.08163   0.00000  Uiso   1.00
H30    H     0.07215   0.02903   0.30186   0.00000  Uiso   1.00
H31    H     0.10542   0.05233   0.33970   0.00000  Uiso   1.00
H32    H     0.07666   0.33035   0.38932   0.00000  Uiso   1.00
H33    H     0.03358   0.02159   0.38035   0.00000  Uiso   1.00
H34    H     0.04460   0.30454   0.35169   0.00000  Uiso   1.00
H35    H     0.22774   0.07585   0.38501   0.00000  Uiso   1.00
H36    H     0.17790   0.05297   0.37013   0.00000  Uiso   1.00
H37    H     0.21102   0.02118   0.38575   0.00000  Uiso   1.00
H38    H     0.05135   0.25624   0.46844   0.00000  Uiso   1.00
H39    H     0.05459   0.21220   0.42571   0.00000  Uiso   1.00
H40    H     0.31914   0.13952   0.29007   0.00000  Uiso   1.00
H41    H     0.04939   0.26253   0.41250   0.00000  Uiso   1.00
H42    H     0.20169   0.00226   0.20898   0.00000  Uiso   1.00
H43    H     0.20115   0.05471   0.00558   0.00000  Uiso   1.00
H44    H     0.17497   0.19671   0.07395   0.00000  Uiso   1.00
H45    H     0.15384   0.23537   0.03914   0.00000  Uiso   1.00
H46    H     0.12363   0.27572   0.49889   0.00000  Uiso   1.00
H47    H     0.14559   0.11065   0.40211   0.00000  Uiso   1.00
H48    H     0.01550   0.19410   0.21060   0.00000  Uiso   1.00
O49    O     0.16667   0.16667   0.25000   0.00000  Uiso   1.00
O50    O     0.15451   0.12637   0.15459   0.00000  Uiso   1.00
O51    O     0.12940   0.20391   0.34968   0.00000  Uiso   1.00
O52    O     0.20824   0.17759   0.14606   0.00000  Uiso   1.00
O53    O     0.17451   0.15880   0.34968   0.00000  Uiso   1.00
O54    O     0.12209   0.32952   0.30383   0.00000  Uiso   1.00
O55    O     0.17597   0.05649   0.43805   0.00000  Uiso   1.00
O56    O     0.10931   0.25609   0.41962   0.00000  Uiso   1.00
O57    O     0.17930   0.08019   0.28214   0.00000  Uiso   1.00
O58    O     0.14632   0.26085   0.27014   0.00000  Uiso   1.00
O59    O     0.07412   0.13291   0.23413   0.00000  Uiso   1.00
O60    O     0.26693   0.19272   0.21361   0.00000  Uiso   1.00
O61    O     0.07071   0.18878   0.28213   0.00000  Uiso   1.00
O62    O     0.25491   0.15226   0.27014   0.00000  Uiso   1.00
O63    O     0.13760   0.06944   0.23413   0.00000  Uiso   1.00
O64    O     0.20345   0.25620   0.21361   0.00000  Uiso   1.00
Zn65   Zn    0.19338   0.13994   0.28734   0.00000  Uiso   1.00
Zn66   Zn    0.13379   0.12458   0.21876   0.00000  Uiso   1.00
Zn67   Zn    0.21056   0.19775   0.20657   0.00000  Uiso   1.00
Zn68   Zn    0.12893   0.20439   0.28734   0.00000  Uiso   1.00
C69    C     0.38601   0.15960   0.26015   0.00000  Uiso   1.00
C70    C     0.51430   0.16661   0.05685   0.00000  Uiso   1.00
C71    C     0.53272   0.09863   0.06231   0.00000  Uiso   1.00
C72    C     0.61401   0.17378   0.24011   0.00000  Uiso   1.00
C73    C     0.47478   0.19332   0.42042   0.00000  Uiso   1.00
C74    C     0.65985   0.17646   0.23624   0.00000  Uiso   1.00
C75    C     0.34073   0.15724   0.26408   0.00000  Uiso   1.00
C76    C     0.51112   0.32200   0.23667   0.00000  Uiso   1.00
C77    C     0.48391   0.01229   0.26592   0.00000  Uiso   1.00
C78    C     0.49019   0.05601   0.25952   0.00000  Uiso   1.00
C79    C     0.50948   0.27784   0.24043   0.00000  Uiso   1.00
C80    C     0.46603   0.24558   0.48377   0.00000  Uiso   1.00
C81    C     0.51850   0.14781   0.12943   0.00000  Uiso   1.00
C82    C     0.48106   0.18409   0.37124   0.00000  Uiso   1.00
C83    C     0.52875   0.08615   0.01908   0.00000  Uiso   1.00
C84    C     0.52484   0.13855   0.08136   0.00000  Uiso   1.00
C85    C     0.46061   0.23150   0.44123   0.00000  Uiso   1.00
C86    C     0.42388   0.02264   0.32549   0.00000  Uiso   1.00
C87    C     0.39268   0.00168   0.36414   0.00000  Uiso   1.00
C88    C     0.53249   0.05211   0.39273   0.00000  Uiso   1.00
C89    C     0.39765   0.24604   0.43248   0.00000  Uiso   1.00
C90    C     0.48334   0.22154   0.00694   0.00000  Uiso   1.00
C91    C     0.49324   0.18102   0.48934   0.00000  Uiso   1.00
C92    C     0.48679   0.16626   0.44634   0.00000  Uiso   1.00
C93    C     0.50809   0.15431   0.01355   0.00000  Uiso   1.00
C94    C     0.51511   0.11298   0.49485   0.00000  Uiso   1.00
C95    C     0.50661   0.09815   0.45331   0.00000  Uiso   1.00
C96    C     0.49057   0.12428   0.43081   0.00000  Uiso   1.00
H97    H     0.54033   0.07657   0.08163   0.00000  Uiso   1.00
H98    H     0.40548   0.02903   0.30186   0.00000  Uiso   1.00
H99    H     0.43876   0.05233   0.33970   0.00000  Uiso   1.00
H100   H     0.40999   0.33035   0.38932   0.00000  Uiso   1.00
H101   H     0.36691   0.02159   0.38035   0.00000  Uiso   1.00
H102   H     0.37793   0.30454   0.35169   0.00000  Uiso   1.00
H103   H     0.56108   0.07585   0.38501   0.00000  Uiso   1.00
H104   H     0.51123   0.05297   0.37013   0.00000  Uiso   1.00
H105   H     0.54435   0.02118   0.38575   0.00000  Uiso   1.00
H106   H     0.38468   0.25624   0.46844   0.00000  Uiso   1.00
H107   H     0.38792   0.21220   0.42571   0.00000  Uiso   1.00
H108   H     0.65247   0.13952   0.29007   0.00000  Uiso   1.00
H109   H     0.38273   0.26253   0.41250   0.00000  Uiso   1.00
H110   H     0.53502   0.00226   0.20898   0.00000  Uiso   1.00
H111   H     0.53448   0.05471   0.00558   0.00000  Uiso   1.00
H112   H     0.50831   0.19671   0.07395   0.00000  Uiso   1.00
H113   H     0.48717   0.23537   0.03914   0.00000  Uiso   1.00
H114   H     0.45697   0.27572   0.49889   0.00000  Uiso   1.00
H115   H     0.47892   0.11065   0.40211   0.00000  Uiso   1.00
H116   H     0.34884   0.19410   0.21060   0.00000  Uiso   1.00
O117   O     0.50000   0.16667   0.25000   0.00000  Uiso   1.00
O118   O     0.48784   0.12637   0.15459   0.00000  Uiso   1.00
O119   O     0.46274   0.20391   0.34968   0.00000  Uiso   1.00
O120   O     0.54157   0.17759   0.14606   0.00000  Uiso   1.00
O121   O     0.50785   0.15880   0.34968   0.00000  Uiso   1.00
O122   O     0.45543   0.32952   0.30383   0.00000  Uiso   1.00
O123   O     0.50930   0.05649   0.43805   0.00000  Uiso   1.00
O124   O     0.44264   0.25609   0.41962   0.00000  Uiso   1.00
O125   O     0.51264   0.08019   0.28214   0.00000  Uiso   1.00
O126   O     0.47965   0.26085   0.27014   0.00000  Uiso   1.00
O127   O     0.40745   0.13291   0.23413   0.00000  Uiso   1.00
O128   O     0.60026   0.19272   0.21361   0.00000  Uiso   1.00
O129   O     0.40405   0.18878   0.28213   0.00000  Uiso   1.00
O130   O     0.58824   0.15226   0.27014   0.00000  Uiso   1.00
O131   O     0.47093   0.06944   0.23413   0.00000  Uiso   1.00
O132   O     0.53678   0.25620   0.21361   0.00000  Uiso   1.00
Zn133  Zn    0.52672   0.13994   0.28734   0.00000  Uiso   1.00
Zn134  Zn    0.46713   0.12458   0.21876   0.00000  Uiso   1.00
Zn135  Zn    0.54389   0.19775   0.20657   0.00000  Uiso   1.00
Zn136  Zn    0.46226   0.20439   0.28734   0.00000  Uiso   1.00
C137   C     0.71934   0.15960   0.26015   0.00000  Uiso   1.00
C138   C     0.84763   0.16661   0.05685   0.00000  Uiso   1.00
C139   C     0.86605   0.09863   0.06231   0.00000  Uiso   1.00
C140   C     0.94734   0.17378   0.24011   0.00000  Uiso   1.00
C141   C     0.80811   0.19332   0.42042   0.00000  Uiso   1.00
C142   C     0.99319   0.17646   0.23624   0.00000  Uiso   1.00
C143   C     0.67406   0.15724   0.26408   0.00000  Uiso   1.00
C144   C     0.84446   0.32200   0.23667   0.00000  Uiso   1.00
C145   C     0.81725   0.01229   0.26592   0.00000  Uiso   1.00
C146   C     0.82352   0.05601   0.25952   0.00000  Uiso   1.00
C147   C     0.84281   0.27784   0.24043   0.00000  Uiso   1.00
C148   C     0.79937   0.24558   0.48377   0.00000  Uiso   1.00
C149   C     0.85183   0.14781   0.12943   0.00000  Uiso   1.00
C150   C     0.81439   0.18409   0.37124   0.00000  Uiso   1.00
C151   C     0.86208   0.08615   0.01908   0.00000  Uiso   1.00
C152   C     0.85817   0.13855   0.08136   0.00000  Uiso   1.00
C153   C     0.79395   0.23150   0.44123   0.00000  Uiso   1.00
C154   C     0.75721   0.02264   0.32549   0.00000  Uiso   1.00
C155   C     0.72602   0.00168   0.36414   0.00000  Uiso   1.00
C156   C     0.86582   0.05211   0.39273   0.00000  Uiso   1.00
C157   C     0.73098   0.24604   0.43248   0.00000  Uiso   1.00
C158   C     0.81667   0.22154   0.00694   0.00000  Uiso   1.00
C159   C     0.82657   0.18102   0.48934   0.00000  Uiso   1.00
C160   C     0.82012   0.16626   0.44634   0.00000  Uiso   1.00
C161   C     0.84143   0.15431   0.01355   0.00000  Uiso   1.00
C162   C     0.84844   0.11298   0.49485   0.00000  Uiso   1.00
C163   C     0.83994   0.09815   0.45331   0.00000  Uiso   1.00
C164   C     0.82390   0.12428   0.43081   0.00000  Uiso   1.00
H165   H     0.87367   0.07657   0.08163   0.00000  Uiso   1.00
H166   H     0.73881   0.02903   0.30186   0.00000  Uiso   1.00
H167   H     0.77209   0.05233   0.33970   0.00000  Uiso   1.00
H168   H     0.74332   0.33035   0.38932   0.00000  Uiso   1.00
H169   H     0.70025   0.02159   0.38035   0.00000  Uiso   1.00
H170   H     0.71127   0.30454   0.35169   0.00000  Uiso   1.00
H171   H     0.89441   0.07585   0.38501   0.00000  Uiso   1.00
H172   H     0.84456   0.05297   0.37013   0.00000  Uiso   1.00
H173   H     0.87768   0.02118   0.38575   0.00000  Uiso   1.00
H174   H     0.71802   0.25624   0.46844   0.00000  Uiso   1.00
H175   H     0.72125   0.21220   0.42571   0.00000  Uiso   1.00
H176   H     0.98581   0.13952   0.29007   0.00000  Uiso   1.00
H177   H     0.71606   0.26253   0.41250   0.00000  Uiso   1.00
H178   H     0.86835   0.00226   0.20898   0.00000  Uiso   1.00
H179   H     0.86781   0.05471   0.00558   0.00000  Uiso   1.00
H180   H     0.84164   0.19671   0.07395   0.00000  Uiso   1.00
H181   H     0.82051   0.23537   0.03914   0.00000  Uiso   1.00
H182   H     0.79030   0.27572   0.49889   0.00000  Uiso   1.00
H183   H     0.81225   0.11065   0.40211   0.00000  Uiso   1.00
H184   H     0.68217   0.19410   0.21060   0.00000  Uiso   1.00
O185   O     0.83333   0.16667   0.25000   0.00000  Uiso   1.00
O186   O     0.82118   0.12637   0.15459   0.00000  Uiso   1.00
O187   O     0.79607   0.20391   0.34968   0.00000  Uiso   1.00
O188   O     0.87491   0.17759   0.14606   0.00000  Uiso   1.00
O189   O     0.84118   0.15880   0.34968   0.00000  Uiso   1.00
O190   O     0.78876   0.32952   0.30383   0.00000  Uiso   1.00
O191   O     0.84263   0.05649   0.43805   0.00000  Uiso   1.00
O192   O     0.77598   0.25609   0.41962   0.00000  Uiso   1.00
O193   O     0.84597   0.08019   0.28214   0.00000  Uiso   1.00
O194   O     0.81298   0.26085   0.27014   0.00000  Uiso   1.00
O195   O     0.74078   0.13291   0.23413   0.00000  Uiso   1.00
O196   O     0.93360   0.19272   0.21361   0.00000  Uiso   1.00
O197   O     0.73738   0.18878   0.28213   0.00000  Uiso   1.00
O198   O     0.92158   0.15226   0.27014   0.00000  Uiso   1.00
O199   O     0.80426   0.06944   0.23413   0.00000  Uiso   1.00
O200   O     0.87012   0.25620   0.21361   0.00000  Uiso   1.00
Zn201  Zn    0.86005   0.13994   0.28734   0.00000  Uiso   1.00
Zn202  Zn    0.80046   0.12458   0.21876   0.00000  Uiso   1.00
Zn203  Zn    0.87723   0.19775   0.20657   0.00000  Uiso   1.00
Zn204  Zn    0.79560   0.20439   0.28734   0.00000  Uiso   1.00
C205   C     0.05268   0.49293   0.26015   0.00000  Uiso   1.00
C206   C     0.18096   0.49994   0.05685   0.00000  Uiso   1.00
C207   C     0.19938   0.43196   0.06231   0.00000  Uiso   1.00
C208   C     0.28067   0.50711   0.24011   0.00000  Uiso   1.00
C209   C     0.14144   0.52665   0.42042   0.00000  Uiso   1.00
C210   C     0.32652   0.50979   0.23624   0.00000  Uiso   1.00
C211   C     0.00740   0.49057   0.26408   0.00000  Uiso   1.00
C212   C     0.17779   0.65534   0.23667   0.00000  Uiso   1.00
C213   C     0.15058   0.34562   0.26592   0.00000  Uiso   1.00
C214   C     0.15685   0.38934   0.25952   0.00000  Uiso   1.00
C215   C     0.17614   0.61117   0.24043   0.00000  Uiso   1.00
C216   C     0.13270   0.57892   0.48377   0.00000  Uiso   1.00
C217   C     0.18517   0.48114   0.12943   0.00000  Uiso   1.00
C218   C     0.14773   0.51742   0.37124   0.00000  Uiso   1.00
C219   C     0.19542   0.41948   0.01908   0.00000  Uiso   1.00
C220   C     0.19150   0.47189   0.08136   0.00000  Uiso   1.00
C221   C     0.12728   0.56483   0.44123   0.00000  Uiso   1.00
C222   C     0.09054   0.35598   0.32549   0.00000  Uiso   1.00
C223   C     0.05935   0.33501   0.36414   0.00000  Uiso   1.00
C224   C     0.19916   0.38545   0.39273   0.00000  Uiso   1.00
C225   C     0.06432   0.57938   0.43248   0.00000  Uiso   1.00
C226   C     0.15000   0.55487   0.00694   0.00000  Uiso   1.00
C227   C     0.15990   0.51435   0.48934   0.00000  Uiso   1.00
C228   C     0.15346   0.49959   0.44634   0.00000  Uiso   1.00
C229   C     0.17476   0.48764   0.01355   0.00000  Uiso   1.00
C230   C     0.18177   0.44632   0.49485   0.00000  Uiso   1.00
C231   C     0.17328   0.43148   0.45331   0.00000  Uiso   1.00
C232   C     0.15724   0.45762   0.43081   0.00000  Uiso   1.00
H233   H     0.20700   0.40990   0.08163   0.00000  Uiso   1.00
H234   H     0.07215   0.36236   0.30186   0.00000  Uiso   1.00
H235   H     0.10542   0.38567   0.33970   0.00000  Uiso   1.00
H236   H     0.07666   0.66369   0.38932   0.00000  Uiso   1.00
H237   H     0.03358   0.35492   0.38035   0.00000  Uiso   1.00
H238   H     0.04460   0.63788   0.35169   0.00000  Uiso   1.00
H239   H     0.22774   0.40918   0.38501   0.00000  Uiso   1.00
H240   H     0.17790   0.38630   0.37013   0.00000  Uiso   1.00
H241   H     0.21102   0.35451   0.38575   0.00000  Uiso   1.00
H242   H     0.05135   0.58958   0.46844   0.00000  Uiso   1.00
H243   H     0.05459   0.54553   0.42571   0.00000  Uiso   1.00
H244   H     0.31914   0.47286   0.29007   0.00000  Uiso   1.00
H245   H     0.04939   0.59586   0.41250   0.00000  Uiso   1.00
H246   H     0.20169   0.33559   0.20898   0.00000  Uiso   1.00
H247   H     0.20115   0.38804   0.00558   0.00000  Uiso   1.00
H248   H     0.17497   0.53004   0.07395   0.00000  Uiso   1.00
H249   H     0.15384   0.56870   0.03914   0.00000  Uiso   1.00
H250   H     0.12363   0.60906   0.49889   0.00000  Uiso   1.00
H251   H     0.14559   0.44399   0.40211   0.00000  Uiso   1.00
H252   H     0.01550   0.52744   0.21060   0.00000  Uiso   1.00
O253   O     0.16667   0.50000   0.25000   0.00000  Uiso   1.00
O254   O     0.15451   0.45970   0.15459   0.00000  Uiso   1.00
O255   O     0.12940   0.53724   0.34968   0.00000  Uiso   1.00
O256   O     0.20824   0.51092   0.14606   0.00000  Uiso   1.00
O257   O     0.17451   0.49213   0.34968   0.00000  Uiso   1.00
O258   O     0.12209   0.66285   0.30383   0.00000  Uiso   1.00
O259   O     0.17597   0.38982   0.43805   0.00000  Uiso   1.00
O260   O     0.10931   0.58942   0.41962   0.00000  Uiso   1.00
O261   O     0.17930   0.41352   0.28214   0.00000  Uiso   1.00
O262   O     0.14632   0.59418   0.27014   0.00000  Uiso   1.00
O263   O     0.07412   0.46625   0.23413   0.00000  Uiso   1.00
O264   O     0.26693   0.52605   0.21361   0.00000  Uiso   1.00
O265   O     0.07071   0.52211   0.28213   0.00000  Uiso   1.00
O266   O     0.25491   0.48559   0.27014   0.00000  Uiso   1.00
O267   O     0.13760   0.40277   0.23413   0.00000  Uiso   1.00
O268   O     0.20345   0.58953   0.21361   0.00000  Uiso   1.00
Zn269  Zn    0.19338   0.47327   0.28734   0.00000  Uiso   1.00
Zn270  Zn    0.13379   0.45791   0.21876   0.00000  Uiso   1.00
Zn271  Zn    0.21056   0.53109   0.20657   0.00000  Uiso   1.00
Zn272  Zn    0.12893   0.53773   0.28734   0.00000  Uiso   1.00
C273   C     0.38601   0.49293   0.26015   0.00000  Uiso   1.00
C274   C     0.51430   0.49994   0.05685   0.00000  Uiso   1.00
C275   C     0.53272   0.43196   0.06231   0.00000  Uiso   1.00
C276   C     0.61401   0.50711   0.24011   0.00000  Uiso   1.00
C277   C     0.47478   0.52665   0.42042   0.00000  Uiso   1.00
C278   C     0.65985   0.50979   0.23624   0.00000  Uiso   1.00
C279   C     0.34073   0.49057   0.26408   0.00000  Uiso   1.00
C280   C     0.51112   0.65534   0.23667   0.00000  Uiso   1.00
C281   C     0.48391   0.34562   0.26592   0.00000  Uiso   1.00
C282   C     0.49019   0.38934   0.25952   0.00000  Uiso   1.00
C283   C     0.50948   0.61117   0.24043   0.00000  Uiso   1.00
C284   C     0.46603   0.57892   0.48377   0.00000  Uiso   1.00
C285   C     0.51850   0.48114   0.12943   0.00000  Uiso   1.00
C286   C     0.48106   0.51742   0.37124   0.00000  Uiso   1.00
C287   C     0.52875   0.41948   0.01908   0.00000  Uiso   1.00
C288   C     0.52484   0.47189   0.08136   0.00000  Uiso   1.00
C289   C     0.46061   0.56483   0.44123   0.00000  Uiso   1.00
C290   C     0.42388   0.35598   0.32549   0.00000  Uiso   1.00
C291   C     0.39268   0.33501   0.36414   0.00000  Uiso   1.00
C292   C     0.53249   0.38545   0.39273   0.00000  Uiso   1.00
C293   C     0.39765   0.57938   0.43248   0.00000  Uiso   1.00
C294   C     0.48334   0.55487   0.00694   0.00000  Uiso   1.00
C295   C     0.49324   0.51435   0.48934   0.00000  Uiso   1.00
C296   C     0.48679   0.49959   0.44634   0.00000  Uiso   1.00
C297   C     0.50809   0.48764   0.01355   0.00000  Uiso   1.00
C298   C     0.51511   0.44632   0.49485   0.00000  Uiso   1.00
C299   C     0.50661   0.43148   0.45331   0.00000  Uiso   1.00
C300   C     0.49057   0.45762   0.43081   0.00000  Uiso   1.00
H301   H     0.54033   0.40990   0.08163   0.00000  Uiso   1.00
H302   H     0.40548   0.36236   0.30186   0.00000  Uiso   1.00
H303   H     0.43876   0.38567   0.33970   0.00000  Uiso   1.00
H304   H     0.40999   0.66369   0.38932   0.00000  Uiso   1.00
H305   H     0.36691   0.35492   0.38035   0.00000  Uiso   1.00
H306   H     0.37793   0.63788   0.35169   0.00000  Uiso   1.00
H307   H     0.56108   0.40918   0.38501   0.00000  Uiso   1.00
H308   H     0.51123   0.38630   0.37013   0.00000  Uiso   1.00
H309   H     0.54435   0.35451   0.38575   0.00000  Uiso   1.00
H310   H     0.38468   0.58958   0.46844   0.00000  Uiso   1.00
H311   H     0.38792   0.54553   0.42571   0.00000  Uiso   1.00
H312   H     0.65247   0.47286   0.29007   0.00000  Uiso   1.00
H313   H     0.38273   0.59586   0.41250   0.00000  Uiso   1.00
H314   H     0.53502   0.33559   0.20898   0.00000  Uiso   1.00
H315   H     0.53448   0.38804   0.00558   0.00000  Uiso   1.00
H316   H     0.50831   0.53004   0.07395   0.00000  Uiso   1.00
H317   H     0.48717   0.56870   0.03914   0.00000  Uiso   1.00
H318   H     0.45697   0.60906   0.49889   0.00000  Uiso   1.00
H319   H     0.47892   0.44399   0.40211   0.00000  Uiso   1.00
H320   H     0.34884   0.52744   0.21060   0.00000  Uiso   1.00
O321   O     0.50000   0.50000   0.25000   0.00000  Uiso   1.00
O322   O     0.48784   0.45970   0.15459   0.00000  Uiso   1.00
O323   O     0.46274   0.53724   0.34968   0.00000  Uiso   1.00
O324   O     0.54157   0.51092   0.14606   0.00000  Uiso   1.00
O325   O     0.50785   0.49213   0.34968   0.00000  Uiso   1.00
O326   O     0.45543   0.66285   0.30383   0.00000  Uiso   1.00
O327   O     0.50930   0.38982   0.43805   0.00000  Uiso   1.00
O328   O     0.44264   0.58942   0.41962   0.00000  Uiso   1.00
O329   O     0.51264   0.41352   0.28214   0.00000  Uiso   1.00
O330   O     0.47965   0.59418   0.27014   0.00000  Uiso   1.00
O331   O     0.40745   0.46625   0.23413   0.00000  Uiso   1.00
O332   O     0.60026   0.52605   0.21361   0.00000  Uiso   1.00
O333   O     0.40405   0.52211   0.28213   0.00000  Uiso   1.00
O334   O     0.58824   0.48559   0.27014   0.00000  Uiso   1.00
O335   O     0.47093   0.40277   0.23413   0.00000  Uiso   1.00
O336   O     0.53678   0.58953   0.21361   0.00000  Uiso   1.00
Zn337  Zn    0.52672   0.47327   0.28734   0.00000  Uiso   1.00
Zn338  Zn    0.46713   0.45791   0.21876   0.00000  Uiso   1.00
Zn339  Zn    0.54389   0.53109   0.20657   0.00000  Uiso   1.00
Zn340  Zn    0.46226   0.53773   0.28734   0.00000  Uiso   1.00
C341   C     0.71934   0.49293   0.26015   0.00000  Uiso   1.00
C342   C     0.84763   0.49994   0.05685   0.00000  Uiso   1.00
C343   C     0.86605   0.43196   0.06231   0.00000  Uiso   1.00
C344   C     0.94734   0.50711   0.24011   0.00000  Uiso   1.00
C345   C     0.80811   0.52665   0.42042   0.00000  Uiso   1.00
C346   C     0.99319   0.50979   0.23624   0.00000  Uiso   1.00
C347   C     0.67406   0.49057   0.26408   0.00000  Uiso   1.00
C348   C     0.84446   0.65534   0.23667   0.00000  Uiso   1.00
C349   C     0.81725   0.34562   0.26592   0.00000  Uiso   1.00
C350   C     0.82352   0.38934   0.25952   0.00000  Uiso   1.00
C351   C     0.84281   0.61117   0.24043   0.00000  Uiso   1.00
C352   C     0.79937   0.57892   0.48377   0.00000  Uiso   1.00
C353   C     0.85183   0.48114   0.12943   0.00000  Uiso   1.00
C354   C     0.81439   0.51742   0.37124   0.00000  Uiso   1.00
C355   C     0.86208   0.41948   0.01908   0.00000  Uiso   1.00
C356   C     0.85817   0.47189   0.08136   0.00000  Uiso   1.00
C357   C     0.79395   0.56483   0.44123   0.00000  Uiso   1.00
C358   C     0.75721   0.35598   0.32549   0.00000  Uiso   1.00
C359   C     0.72602   0.33501   0.36414   0.00000  Uiso   1.00
C360   C     0.86582   0.38545   0.39273   0.00000  Uiso   1.00
C361   C     0.73098   0.57938   0.43248   0.00000  Uiso   1.00
C362   C     0.81667   0.55487   0.00694   0.00000  Uiso   1.00
C363   C     0.82657   0.51435   0.48934   0.00000  Uiso   1.00
C364   C     0.82012   0.49959   0.44634   0.00000  Uiso   1.00
C365   C     0.84143   0.48764   0.01355   0.00000  Uiso   1.00
C366   C     0.84844   0.44632   0.49485   0.00000  Uiso   1.00
C367   C     0.83994   0.43148   0.45331   0.00000  Uiso   1.00
C368   C     0.82390   0.45762   0.43081   0.00000  Uiso   1.00
H369   H     0.87367   0.40990   0.08163   0.00000  Uiso   1.00
H370   H     0.73881   0.36236   0.30186   0.00000  Uiso   1.00
H371   H     0.77209   0.38567   0.33970   0.00000  Uiso   1.00
H372   H     0.74332   0.66369   0.38932   0.00000  Uiso   1.00
H373   H     0.70025   0.35492   0.38035   0.00000  Uiso   1.00
H374   H     0.71127   0.63788   0.35169   0.00000  Uiso   1.00
H375   H     0.89441   0.40918   0.38501   0.00000  Uiso   1.00
H376   H     0.84456   0.38630   0.37013   0.00000  Uiso   1.00
H377   H     0.87768   0.35451   0.38575   0.00000  Uiso   1.00
H378   H     0.71802   0.58958   0.46844   0.00000  Uiso   1.00
H379   H     0.72125   0.54553   0.42571   0.00000  Uiso   1.00
H380   H     0.98581   0.47286   0.29007   0.00000  Uiso   1.00
H381   H     0.71606   0.59586   0.41250   0.00000  Uiso   1.00
H382   H     0.86835   0.33559   0.20898   0.00000  Uiso   1.00
H383   H     0.86781   0.38804   0.00558   0.00000  Uiso   1.00
H384   H     0.84164   0.53004   0.07395   0.00000  Uiso   1.00
H385   H     0.82051   0.56870   0.03914   0.00000  Uiso   1.00
H386   H     0.79030   0.60906   0.49889   0.00000  Uiso   1.00
H387   H     0.81225   0.44399   0.40211   0.00000  Uiso   1.00
H388   H     0.68217   0.52744   0.21060   0.00000  Uiso   1.00
O389   O     0.83333   0.50000   0.25000   0.00000  Uiso   1.00
O390   O     0.82118   0.45970   0.15459   0.00000  Uiso   1.00
O391   O     0.79607   0.53724   0.34968   0.00000  Uiso   1.00
O392   O     0.87491   0.51092   0.14606   0.00000  Uiso   1.00
O393   O     0.84118   0.49213   0.34968   0.00000  Uiso   1.00
O394   O     0.78876   0.66285   0.30383   0.00000  Uiso   1.00
O395   O     0.84263   0.38982   0.43805   0.00000  Uiso   1.00
O396   O     0.77598   0.58942   0.41962   0.00000  Uiso   1.00
O397   O     0.84597   0.41352   0.28214   0.00000  Uiso   1.00
O398   O     0.81298   0.59418   0.27014   0.00000  Uiso   1.00
O399   O     0.74078   0.46625   0.23413   0.00000  Uiso   1.00
O400   O     0.93360   0.52605   0.21361   0.00000  Uiso   1.00
O401   O     0.73738   0.52211   0.28213   0.00000  Uiso   1.00
O402   O     0.92158   0.48559   0.27014   0.00000  Uiso   1.00
O403   O     0.80426   0.40277   0.23413   0.00000  Uiso   1.00
O404   O     0.87012   0.58953   0.21361   0.00000  Uiso   1.00
Zn405  Zn    0.86005   0.47327   0.28734   0.00000  Uiso   1.00
Zn406  Zn    0.80046   0.45791   0.21876   0.00000  Uiso   1.00
Zn407  Zn    0.87723   0.53109   0.20657   0.00000  Uiso   1.00
Zn408  Zn    0.79560   0.53773   0.28734   0.00000  Uiso   1.00
C409   C     0.05268   0.82626   0.26015   0.00000  Uiso   1.00
C410   C     0.18096   0.83328   0.05685   0.00000  Uiso   1.00
C411   C     0.19938   0.76529   0.06231   0.00000  Uiso   1.00
C412   C     0.28067   0.84044   0.24011   0.00000  Uiso   1.00
C413   C     0.14144   0.85999   0.42042   0.00000  Uiso   1.00
C414   C     0.32652   0.84313   0.23624   0.00000  Uiso   1.00
C415   C     0.00740   0.82390   0.26408   0.00000  Uiso   1.00
C416   C     0.17779   0.98867   0.23667   0.00000  Uiso   1.00
C417   C     0.15058   0.67895   0.26592   0.00000  Uiso   1.00
C418   C     0.15685   0.72268   0.25952   0.00000  Uiso   1.00
C419   C     0.17614   0.94450   0.24043   0.00000  Uiso   1.00
C420   C     0.13270   0.91225   0.48377   0.00000  Uiso   1.00
C421   C     0.18517   0.81447   0.12943   0.00000  Uiso   1.00
C422   C     0.14773   0.85076   0.37124   0.00000  Uiso   1.00
C423   C     0.19542   0.75282   0.01908   0.00000  Uiso   1.00
C424   C     0.19150   0.80522   0.08136   0.00000  Uiso   1.00
C425   C     0.12728   0.89817   0.44123   0.00000  Uiso   1.00
C426   C     0.09054   0.68931   0.32549   0.00000  Uiso   1.00
C427   C     0.05935   0.66834   0.36414   0.00000  Uiso   1.00
C428   C     0.19916   0.71878   0.39273   0.00000  Uiso   1.00
C429   C     0.06432   0.91271   0.43248   0.00000  Uiso   1.00
C430   C     0.15000   0.88821   0.00694   0.00000  Uiso   1.00
C431   C     0.15990   0.84769   0.48934   0.00000  Uiso   1.00
C432   C     0.15346   0.83292   0.44634   0.00000  Uiso   1.00
C433   C     0.17476   0.82097   0.01355   0.00000  Uiso   1.00
C434   C     0.18177   0.77965   0.49485   0.00000  Uiso   1.00
C435   C     0.17328   0.76482   0.45331   0.00000  Uiso   1.00
C436   C     0.15724   0.79095   0.43081   0.00000  Uiso   1.00
H437   H     0.20700   0.74324   0.08163   0.00000  Uiso   1.00
H438   H     0.07215   0.69570   0.30186   0.00000  Uiso   1.00
H439   H     0.10542   0.71900   0.33970   0.00000  Uiso   1.00
H440   H     0.07666   0.99702   0.38932   0.00000  Uiso   1.00
H441   H     0.03358   0.68825   0.38035   0.00000  Uiso   1.00
H442   H     0.04460   0.97121   0.35169   0.00000  Uiso   1.00
H443   H     0.22774   0.74251   0.38501   0.00000  Uiso   1.00
H444   H     0.17790   0.71964   0.37013   0.00000  Uiso   1.00
H445   H     0.21102   0.68785   0.38575   0.00000  Uiso   1.00
H446   H     0.05135   0.92291   0.46844   0.00000  Uiso   1.00
H447   H     0.05459   0.87887   0.42571   0.00000  Uiso   1.00
H448   H     0.31914   0.80619   0.29007   0.00000  Uiso   1.00
H449   H     0.04939   0.92920   0.41250   0.00000  Uiso   1.00
H450   H     0.20169   0.66893   0.20898   0.00000  Uiso   1.00
H451   H     0.20115   0.72137   0.00558   0.00000  Uiso   1.00
H452   H     0.17497   0.86337   0.07395   0.00000  Uiso   1.00
H453   H     0.15384   0.90203   0.03914   0.00000  Uiso   1.00
H454   H     0.12363   0.94239   0.49889   0.00000  Uiso   1.00
H455   H     0.14559   0.77732   0.40211   0.00000  Uiso   1.00
H456   H     0.01550   0.86077   0.21060   0.00000  Uiso   1.00
O457   O     0.16667   0.83333   0.25000   0.00000  Uiso   1.00
O458   O     0.15451   0.79304   0.15459   0.00000  Uiso   1.00
O459   O     0.12940   0.87058   0.34968   0.00000  Uiso   1.00
O460   O     0.20824   0.84425   0.14606   0.00000  Uiso   1.00
O461   O     0.17451   0.82546   0.34968   0.00000  Uiso   1.00
O462   O     0.12209   0.99619   0.30383   0.00000  Uiso   1.00
O463   O     0.17597   0.72316   0.43805   0.00000  Uiso   1.00
O464   O     0.10931   0.92276   0.41962   0.00000  Uiso   1.00
O465   O     0.17930   0.74686   0.28214   0.00000  Uiso   1.00
O466   O     0.14632   0.92751   0.27014   0.00000  Uiso   1.00
O467   O     0.07412   0.79958   0.23413   0.00000  Uiso   1.00
O468   O     0.26693   0.85939   0.21361   0.00000  Uiso   1.00
O469   O     0.07071   0.85544   0.28213   0.00000  Uiso   1.00
O470   O     0.25491   0.81892   0.27014   0.00000  Uiso   1.00
O471   O     0.13760   0.73610   0.23413   0.00000  Uiso   1.00
O472   O     0.20345   0.92286   0.21361   0.00000  Uiso   1.00
Zn473  Zn    0.19338   0.80661   0.28734   0.00000  Uiso   1.00
Zn474  Zn    0.13379   0.79124   0.21876   0.00000  Uiso   1.00
Zn475  Zn    0.21056   0.86442   0.20657   0.00000  Uiso   1.00
Zn476  Zn    0.12893   0.87106   0.28734   0.00000  Uiso   1.00
C477   C     0.38601   0.82626   0.26015   0.00000  Uiso   1.00
C478   C     0.51430   0.83328   0.05685   0.00000  Uiso   1.00
C479   C     0.53272   0.76529   0.06231   0.00000  Uiso   1.00
C480   C     0.61401   0.84044   0.24011   0.00000  Uiso   1.00
C481   C     0.47478   0.85999   0.42042   0.00000  Uiso   1.00
C482   C     0.65985   0.84313   0.23624   0.00000  Uiso   1.00
C483   C     0.34073   0.82390   0.26408   0.00000  Uiso   1.00
C484   C     0.51112   0.98867   0.23667   0.00000  Uiso   1.00
C485   C     0.48391   0.67895   0.26592   0.00000  Uiso   1.00
C486   C     0.49019   0.72268   0.25952   0.00000  Uiso   1.00
C487   C     0.50948   0.94450   0.24043   0.00000  Uiso   1.00
C488   C     0.46603   0.91225   0.48377   0.00000  Uiso   1.00
C489   C     0.51850   0.81447   0.12943   0.00000  Uiso   1.00
C490   C     0.48106   0.85076   0.37124   0.00000  Uiso   1.00
C491   C     0.52875   0.75282   0.01908   0.00000  Uiso   1.00
C492   C     0.52484   0.80522   0.08136   0.00000  Uiso   1.00
C493   C     0.46061   0.89817   0.44123   0.00000  Uiso   1.00
C494   C     0.42388   0.68931   0.32549   0.00000  Uiso   1.00
C495   C     0.39268   0.66834   0.36414   0.00000  Uiso   1.00
C496   C     0.53249   0.71878   0.39273   0.00000  Uiso   1.00
C497   C     0.39765   0.91271   0.43248   0.00000  Uiso   1.00
C498   C     0.48334   0.88821   0.00694   0.00000  Uiso   1.00
C499   C     0.49324   0.84769   0.48934   0.00000  Uiso   1.00
C500   C     0.48679   0.83292   0.44634   0.00000  Uiso   1.00
C501   C     0.50809   0.82097   0.01355   0.00000  Uiso   1.00
C502   C     0.51511   0.77965   0.49485   0.00000  Uiso   1.00
C503   C     0.50661   0.76482   0.45331   0.00000  Uiso   1.00
C504   C     0.49057   0.79095   0.43081   0.00000  Uiso   1.00
H505   H     0.54033   0.74324   0.08163   0.00000  Uiso   1.00
H506   H     0.40548   0.69570   0.30186   0.00000  Uiso   1.00
H507   H     0.43876   0.71900   0.33970   0.00000  Uiso   1.00
H508   H     0.40999   0.99702   0.38932   0.00000  Uiso   1.00
H509   H     0.36691   0.68825   0.38035   0.00000  Uiso   1.00
H510   H     0.37793   0.97121   0.35169   0.00000  Uiso   1.00
H511   H     0.56108   0.74251   0.38501   0.00000  Uiso   1.00
H512   H     0.51123   0.71964   0.37013   0.00000  Uiso   1.00
H513   H     0.54435   0.68785   0.38575   0.00000  Uiso   1.00
H514   H     0.38468   0.92291   0.46844   0.00000  Uiso   1.00
H515   H     0.38792   0.87887   0.42571   0.00000  Uiso   1.00
H516   H     0.65247   0.80619   0.29007   0.00000  Uiso   1.00
H517   H     0.38273   0.92920   0.41250   0.00000  Uiso   1.00
H518   H     0.53502   0.66893   0.20898   0.00000  Uiso   1.00
H519   H     0.53448   0.72137   0.00558   0.00000  Uiso   1.00
H520   H     0.50831   0.86337   0.07395   0.00000  Uiso   1.00
H521   H     0.48717   0.90203   0.03914   0.00000  Uiso   1.00
H522   H     0.45697   0.94239   0.49889   0.00000  Uiso   1.00
H523   H     0.47892   0.77732   0.40211   0.00000  Uiso   1.00
H524   H     0.34884   0.86077   0.21060   0.00000  Uiso   1.00
O525   O     0.50000   0.83333   0.25000   0.00000  Uiso   1.00
O526   O     0.48784   0.79304   0.15459   0.00000  Uiso   1.00
O527   O     0.46274   0.87058   0.34968   0.00000  Uiso   1.00
O528   O     0.54157   0.84425   0.14606   0.00000  Uiso   1.00
O529   O     0.50785   0.82546   0.34968   0.00000  Uiso   1.00
O530   O     0.45543   0.99619   0.30383   0.00000  Uiso   1.00
O531   O     0.50930   0.72316   0.43805   0.00000  Uiso   1.00
O532   O     0.44264   0.92276   0.41962   0.00000  Uiso   1.00
O533   O     0.51264   0.74686   0.28214   0.00000  Uiso   1.00
O534   O     0.47965   0.92751   0.27014   0.00000  Uiso   1.00
O535   O     0.40745   0.79958   0.23413   0.00000  Uiso   1.00
O536   O     0.60026   0.85939   0.21361   0.00000  Uiso   1.00
O537   O     0.40405   0.85544   0.28213   0.00000  Uiso   1.00
O538   O     0.58824   0.81892   0.27014   0.00000  Uiso   1.00
O539   O     0.47093   0.73610   0.23413   0.00000  Uiso   1.00
O540   O     0.53678   0.92286   0.21361   0.00000  Uiso   1.00
Zn541  Zn    0.52672   0.80661   0.28734   0.00000  Uiso   1.00
Zn542  Zn    0.46713   0.79124   0.21876   0.00000  Uiso   1.00
Zn543  Zn    0.54389   0.86442   0.20657   0.00000  Uiso   1.00
Zn544  Zn    0.46226   0.87106   0.28734   0.00000  Uiso   1.00
C545   C     0.71934   0.82626   0.26015   0.00000  Uiso   1.00
C546   C     0.84763   0.83328   0.05685   0.00000  Uiso   1.00
C547   C     0.86605   0.76529   0.06231   0.00000  Uiso   1.00
C548   C     0.94734   0.84044   0.24011   0.00000  Uiso   1.00
C549   C     0.80811   0.85999   0.42042   0.00000  Uiso   1.00
C550   C     0.99319   0.84313   0.23624   0.00000  Uiso   1.00
C551   C     0.67406   0.82390   0.26408   0.00000  Uiso   1.00
C552   C     0.84446   0.98867   0.23667   0.00000  Uiso   1.00
C553   C     0.81725   0.67895   0.26592   0.00000  Uiso   1.00
C554   C     0.82352   0.72268   0.25952   0.00000  Uiso   1.00
C555   C     0.84281   0.94450   0.24043   0.00000  Uiso   1.00
C556   C     0.79937   0.91225   0.48377   0.00000  Uiso   1.00
C557   C     0.85183   0.81447   0.12943   0.00000  Uiso   1.00
C558   C     0.81439   0.85076   0.37124   0.00000  Uiso   1.00
C559   C     0.86208   0.75282   0.01908   0.00000  Uiso   1.00
C560   C     0.85817   0.80522   0.08136   0.00000  Uiso   1.00
C561   C     0.79395   0.89817   0.44123   0.00000  Uiso   1.00
C562   C     0.75721   0.68931   0.32549   0.00000  Uiso   1.00
C563   C     0.72602   0.66834   0.36414   0.00000  Uiso   1.00
C564   C     0.86582   0.71878   0.39273   0.00000  Uiso   1.00
C565   C     0.73098   0.91271   0.43248   0.00000  Uiso   1.00
C566   C     0.81667   0.88821   0.00694   0.00000  Uiso   1.00
C567   C     0.82657   0.84769   0.48934   0.00000  Uiso   1.00
C568   C     0.82012   0.83292   0.44634   0.00000  Uiso   1.00
C569   C     0.84143   0.82097   0.01355   0.00000  Uiso   1.00
C570   C     0.84844   0.77965   0.49485   0.00000  Uiso   1.00
C571   C     0.83994   0.76482   0.45331   0.00000  Uiso   1.00
C572   C     0.82390   0.79095   0.43081   0.00000  Uiso   1.00
H573   H     0.87367   0.74324   0.08163   0.00000  Uiso   1.00
H574   H     0.73881   0.69570   0.30186   0.00000  Uiso   1.00
H575   H     0.77209   0.71900   0.33970   0.00000  Uiso   1.00
H576   H     0.74332   0.99702   0.38932   0.00000  Uiso   1.00
H577   H     0.70025   0.68825   0.38035   0.00000  Uiso   1.00
H578   H     0.71127   0.97121   0.35169   0.00000  Uiso   1.00
H579   H     0.89441   0.74251   0.38501   0.00000  Uiso   1.00
H580   H     0.84456   0.71964   0.37013   0.00000  Uiso   1.00
H581   H     0.87768   0.68785   0.38575   0.00000  Uiso   1.00
H582   H     0.71802   0.92291   0.46844   0.00000  Uiso   1.00
H583   H     0.72125   0.87887   0.42571   0.00000  Uiso   1.00
H584   H     0.98581   0.80619   0.29007   0.00000  Uiso   1.00
H585   H     0.71606   0.92920   0.41250   0.00000  Uiso   1.00
H586   H     0.86835   0.66893   0.20898   0.00000  Uiso   1.00
H587   H     0.86781   0.72137   0.00558   0.00000  Uiso   1.00
H588   H     0.84164   0.86337   0.07395   0.00000  Uiso   1.00
H589   H     0.82051   0.90203   0.03914   0.00000  Uiso   1.00
H590   H     0.79030   0.94239   0.49889   0.00000  Uiso   1.00
H591   H     0.81225   0.77732   0.40211   0.00000  Uiso   1.00
H592   H     0.68217   0.86077   0.21060   0.00000  Uiso   1.00
O593   O     0.83333   0.83333   0.25000   0.00000  Uiso   1.00
O594   O     0.82118   0.79304   0.15459   0.00000  Uiso   1.00
O595   O     0.79607   0.87058   0.34968   0.00000  Uiso   1.00
O596   O     0.87491   0.84425   0.14606   0.00000  Uiso   1.00
O597   O     0.84118   0.82546   0.34968   0.00000  Uiso   1.00
O598   O     0.78876   0.99619   0.30383   0.00000  Uiso   1.00
O599   O     0.84263   0.72316   0.43805   0.00000  Uiso   1.00
O600   O     0.77598   0.92276   0.41962   0.00000  Uiso   1.00
O601   O     0.84597   0.74686   0.28214   0.00000  Uiso   1.00
O602   O     0.81298   0.92751   0.27014   0.00000  Uiso   1.00
O603   O     0.74078   0.79958   0.23413   0.00000  Uiso   1.00
O604   O     0.93360   0.85939   0.21361   0.00000  Uiso   1.00
O605   O     0.73738   0.85544   0.28213   0.00000  Uiso   1.00
O606   O     0.92158   0.81892   0.27014   0.00000  Uiso   1.00
O607   O     0.80426   0.73610   0.23413   0.00000  Uiso   1.00
O608   O     0.87012   0.92286   0.21361   0.00000  Uiso   1.00
Zn609  Zn    0.86005   0.80661   0.28734   0.00000  Uiso   1.00
Zn610  Zn    0.80046   0.79124   0.21876   0.00000  Uiso   1.00
Zn611  Zn    0.87723   0.86442   0.20657   0.00000  Uiso   1.00
Zn612  Zn    0.79560   0.87106   0.28734   0.00000  Uiso   1.00
C613   C     0.05268   0.15960   0.76015   0.00000  Uiso   1.00
C614   C     0.18096   0.16661   0.55685   0.00000  Uiso   1.00
C615   C     0.19938   0.09863   0.56231   0.00000  Uiso   1.00
C616   C     0.28067   0.17378   0.74011   0.00000  Uiso   1.00
C617   C     0.14144   0.19332   0.92042   0.00000  Uiso   1.00
C618   C     0.32652   0.17646   0.73624   0.00000  Uiso   1.00
C619   C     0.00740   0.15724   0.76408   0.00000  Uiso   1.00
C620   C     0.17779   0.32200   0.73667   0.00000  Uiso   1.00
C621   C     0.15058   0.01229   0.76592   0.00000  Uiso   1.00
C622   C     0.15685   0.05601   0.75952   0.00000  Uiso   1.00
C623   C     0.17614   0.27784   0.74043   0.00000  Uiso   1.00
C624   C     0.13270   0.24558   0.98377   0.00000  Uiso   1.00
C625   C     0.18517   0.14781   0.62943   0.00000  Uiso   1.00
C626   C     0.14773   0.18409   0.87124   0.00000  Uiso   1.00
C627   C     0.19542   0.08615   0.51908   0.00000  Uiso   1.00
C628   C     0.19150   0.13855   0.58136   0.00000  Uiso   1.00
C629   C     0.12728   0.23150   0.94123   0.00000  Uiso   1.00
C630   C     0.09054   0.02264   0.82549   0.00000  Uiso   1.00
C631   C     0.05935   0.00168   0.86414   0.00000  Uiso   1.00
C632   C     0.19916   0.05211   0.89273   0.00000  Uiso   1.00
C633   C     0.06432   0.24604   0.93248   0.00000  Uiso   1.00
C634   C     0.15000   0.22154   0.50694   0.00000  Uiso   1.00
C635   C     0.15990   0.18102   0.98934   0.00000  Uiso   1.00
C636   C     0.15346   0.16626   0.94634   0.00000  Uiso   1.00
C637   C     0.17476   0.15431   0.51355   0.00000  Uiso   1.00
C638   C     0.18177   0.11298   0.99485   0.00000  Uiso   1.00
C639   C     0.17328   0.09815   0.95331   0.00000  Uiso   1.00
C640   C     0.15724   0.12428   0.93081   0.00000  Uiso   1.00
H641   H     0.20700   0.07657   0.58163   0.00000  Uiso   1.00
H642   H     0.07215   0.02903   0.80186   0.00000  Uiso   1.00
H643   H     0.10542   0.05233   0.83970   0.00000  Uiso   1.00
H644   H     0.07666   0.33035   0.88932   0.00000  Uiso   1.00
H645   H     0.03358   0.02159   0.88035   0.00000  Uiso   1.00
H646   H     0.04460   0.30454   0.85169   0.00000  Uiso   1.00
H647   H     0.22774   0.07585   0.88501   0.00000  Uiso   1.00
H648   H     0.17790   0.05297   0.87013   0.00000  Uiso   1.00
H649   H     0.21102   0.02118   0.88575   0.00000  Uiso   1.00
H650   H     0.05135   0.25624   0.96844   0.00000  Uiso   1.00
H651   H     0.05459   0.21220   0.92571   0.00000  Uiso   1.00
H652   H     0.31914   0.13952   0.79007   0.00000  Uiso   1.00
H653   H     0.04939   0.26253   0.91250   0.00000  Uiso   1.00
H654   H     0.20169   0.00226   0.70898   0.00000  Uiso   1.00
H655   H     0.20115   0.05471   0.50558   0.00000  Uiso   1.00
H656   H     0.17497   0.19671   0.57395   0.00000  Uiso   1.00
H657   H     0.15384   0.23537   0.53914   0.00000  Uiso   1.00
H658   H     0.12363   0.27572   0.99889   0.00000  Uiso   1.00
H659   H     0.14559   0.11065   0.90211   0.00000  Uiso   1.00
H660   H     0.01550   0.19410   0.71060   0.00000  Uiso   1.00
O661   O     0.16667   0.16667   0.75000   0.00000  Uiso   1.00
O662   O     0.15451   0.12637   0.65459   0.00000  Uiso   1.00
O663   O     0.12940   0.20391   0.84968   0.00000  Uiso   1.00
O664   O     0.20824   0.17759   0.64606   0.00000  Uiso   1.00
O665   O     0.17451   0.15880   0.84968   0.00000  Uiso   1.00
O666   O     0.12209   0.32952   0.80383   0.00000  Uiso   1.00
O667   O     0.17597   0.05649   0.93805   0.00000  Uiso   1.00
O668   O     0.10931   0.25609   0.91962   0.00000  Uiso   1.00
O669   O     0.17930   0.08019   0.78214   0.00000  Uiso   1.00
O670   O     0.14632   0.26085   0.77014   0.00000  Uiso   1.00
O671   O     0.07412   0.13291   0.73413   0.00000  Uiso   1.00
O672   O     0.26693   0.19272   0.71361   0.00000  Uiso   1.00
O673   O     0.07071   0.18878   0.78213   0.00000  Uiso   1.00
O674   O     0.25491   0.15226   0.77014   0.00000  Uiso   1.00
O675   O     0.13760   0.06944   0.73413   0.00000  Uiso   1.00
O676   O     0.20345   0.25620   0.71361   0.00000  Uiso   1.00
Zn677  Zn    0.19338   0.13994   0.78734   0.00000  Uiso   1.00
Zn678  Zn    0.13379   0.12458   0.71876   0.00000  Uiso   1.00
Zn679  Zn    0.21056   0.19775   0.70657   0.00000  Uiso   1.00
Zn680  Zn    0.12893   0.20439   0.78734   0.00000  Uiso   1.00
C681   C     0.38601   0.15960   0.76015   0.00000  Uiso   1.00
C682   C     0.51430   0.16661   0.55685   0.00000  Uiso   1.00
C683   C     0.53272   0.09863   0.56231   0.00000  Uiso   1.00
C684   C     0.61401   0.17378   0.74011   0.00000  Uiso   1.00
C685   C     0.47478   0.19332   0.92042   0.00000  Uiso   1.00
C686   C     0.65985   0.17646   0.73624   0.00000  Uiso   1.00
C687   C     0.34073   0.15724   0.76408   0.00000  Uiso   1.00
C688   C     0.51112   0.32200   0.73667   0.00000  Uiso   1.00
C689   C     0.48391   0.01229   0.76592   0.00000  Uiso   1.00
C690   C     0.49019   0.05601   0.75952   0.00000  Uiso   1.00
C691   C     0.50948   0.27784   0.74043   0.00000  Uiso   1.00
C692   C     0.46603   0.24558   0.98377   0.00000  Uiso   1.00
C693   C     0.51850   0.14781   0.62943   0.00000  Uiso   1.00
C694   C     0.48106   0.18409   0.87124   0.00000  Uiso   1.00
C695   C     0.52875   0.08615   0.51908   0.00000  Uiso   1.00
C696   C     0.52484   0.13855   0.58136   0.00000  Uiso   1.00
C697   C     0.46061   0.23150   0.94123   0.00000  Uiso   1.00
C698   C     0.42388   0.02264   0.82549   0.00000  Uiso   1.00
C699   C     0.39268   0.00168   0.86414   0.00000  Uiso   1.00
C700   C     0.53249   0.05211   0.89273   0.00000  Uiso   1.00
C701   C     0.39765   0.24604   0.93248   0.00000  Uiso   1.00
C702   C     0.48334   0.22154   0.50694   0.00000  Uiso   1.00
C703   C     0.49324   0.18102   0.98934   0.00000  Uiso   1.00
C704   C     0.48679   0.16626   0.94634   0.00000  Uiso   1.00
C705   C     0.50809   0.15431   0.51355   0.00000  Uiso   1.00
C706   C     0.51511   0.11298   0.99485   0.00000  Uiso   1.00
C707   C     0.50661   0.09815   0.95331   0.00000  Uiso   1.00
C708   C     0.49057   0.12428   0.93081   0.00000  Uiso   1.00
H709   H     0.54033   0.07657   0.58163   0.00000  Uiso   1.00
H710   H     0.40548   0.02903   0.80186   0.00000  Uiso   1.00
H711   H     0.43876   0.05233   0.83970   0.00000  Uiso   1.00
H712   H     0.40999   0.33035   0.88932   0.00000  Uiso   1.00
H713   H     0.36691   0.02159   0.88035   0.00000  Uiso   1.00
H714   H     0.37793   0.30454   0.85169   0.00000  Uiso   1.00
H715   H     0.56108   0.07585   0.88501   0.00000  Uiso   1.00
H716   H     0.51123   0.05297   0.87013   0.00000  Uiso   1.00
H717   H     0.54435   0.02118   0.88575   0.00000  Uiso   1.00
H718   H     0.38468   0.25624   0.96844   0.00000  Uiso   1.00
H719   H     0.38792   0.21220   0.92571   0.00000  Uiso   1.00
H720   H     0.65247   0.13952   0.79007   0.00000  Uiso   1.00
H721   H     0.38273   0.26253   0.91250   0.00000  Uiso   1.00
H722   H     0.53502   0.00226   0.70898   0.00000  Uiso   1.00
H723   H     0.53448   0.05471   0.50558   0.00000  Uiso   1.00
H724   H     0.50831   0.19671   0.57395   0.00000  Uiso   1.00
H725   H     0.48717   0.23537   0.53914   0.00000  Uiso   1.00
H726   H     0.45697   0.27572   0.99889   0.00000  Uiso   1.00
H727   H     0.47892   0.11065   0.90211   0.00000  Uiso   1.00
H728   H     0.34884   0.19410   0.71060   0.00000  Uiso   1.00
O729   O     0.50000   0.16667   0.75000   0.00000  Uiso   1.00
O730   O     0.48784   0.12637   0.65459   0.00000  Uiso   1.00
O731   O     0.46274   0.20391   0.84968   0.00000  Uiso   1.00
O732   O     0.54157   0.17759   0.64606   0.00000  Uiso   1.00
O733   O     0.50785   0.15880   0.84968   0.00000  Uiso   1.00
O734   O     0.45543   0.32952   0.80383   0.00000  Uiso   1.00
O735   O     0.50930   0.05649   0.93805   0.00000  Uiso   1.00
O736   O     0.44264   0.25609   0.91962   0.00000  Uiso   1.00
O737   O     0.51264   0.08019   0.78214   0.00000  Uiso   1.00
O738   O     0.47965   0.26085   0.77014   0.00000  Uiso   1.00
O739   O     0.40745   0.13291   0.73413   0.00000  Uiso   1.00
O740   O     0.60026   0.19272   0.71361   0.00000  Uiso   1.00
O741   O     0.40405   0.18878   0.78213   0.00000  Uiso   1.00
O742   O     0.58824   0.15226   0.77014   0.00000  Uiso   1.00
O743   O     0.47093   0.06944   0.73413   0.00000  Uiso   1.00
O744   O     0.53678   0.25620   0.71361   0.00000  Uiso   1.00
Zn745  Zn    0.52672   0.13994   0.78734   0.00000  Uiso   1.00
Zn746  Zn    0.46713   0.12458   0.71876   0.00000  Uiso   1.00
Zn747  Zn    0.54389   0.19775   0.70657   0.00000  Uiso   1.00
Zn748  Zn    0.46226   0.20439   0.78734   0.00000  Uiso   1.00
C749   C     0.71934   0.15960   0.76015   0.00000  Uiso   1.00
C750   C     0.84763   0.16661   0.55685   0.00000  Uiso   1.00
C751   C     0.86605   0.09863   0.56231   0.00000  Uiso   1.00
C752   C     0.94734   0.17378   0.74011   0.00000  Uiso   1.00
C753   C     0.80811   0.19332   0.92042   0.00000  Uiso   1.00
C754   C     0.99319   0.17646   0.73624   0.00000  Uiso   1.00
C755   C     0.67406   0.15724   0.76408   0.00000  Uiso   1.00
C756   C     0.84446   0.32200   0.73667   0.00000  Uiso   1.00
C757   C     0.81725   0.01229   0.76592   0.00000  Uiso   1.00
C758   C     0.82352   0.05601   0.75952   0.00000  Uiso   1.00
C759   C     0.84281   0.27784   0.74043   0.00000  Uiso   1.00
C760   C     0.79937   0.24558   0.98377   0.00000  Uiso   1.00
C761   C     0.85183   0.14781   0.62943   0.00000  Uiso   1.00
C762   C     0.81439   0.18409   0.87124   0.00000  Uiso   1.00
C763   C     0.86208   0.08615   0.51908   0.00000  Uiso   1.00
C764   C     0.85817   0.13855   0.58136   0.00000  Uiso   1.00
C765   C     0.79395   0.23150   0.94123   0.00000  Uiso   1.00
C766   C     0.75721   0.02264   0.82549   0.00000  Uiso   1.00
C767   C     0.72602   0.00168   0.86414   0.00000  Uiso   1.00
C768   C     0.86582   0.05211   0.89273   0.00000  Uiso   1.00
C769   C     0.73098   0.24604   0.93248   0.00000  Uiso   1.00
C770   C     0.81667   0.22154   0.50694   0.00000  Uiso   1.00
C771   C     0.82657   0.18102   0.98934   0.00000  Uiso   1.00
C772   C     0.82012   0.16626   0.94634   0.00000  Uiso   1.00
C773   C     0.84143   0.15431   0.51355   0.00000  Uiso   1.00
C774   C     0.84844   0.11298   0.99485   0.00000  Uiso   1.00
C775   C     0.83994   0.09815   0.95331   0.00000  Uiso   1.00
C776   C     0.82390   0.12428   0.93081   0.00000  Uiso   1.00
H777   H     0.87367   0.07657   0.58163   0.00000  Uiso   1.00
H778   H     0.73881   0.02903   0.80186   0.00000  Uiso   1.00
H779   H     0.77209   0.05233   0.83970   0.00000  Uiso   1.00
H780   H     0.74332   0.33035   0.88932   0.00000  Uiso   1.00
H781   H     0.70025   0.02159   0.88035   0.00000  Uiso   1.00
H782   H     0.71127   0.30454   0.85169   0.00000  Uiso   1.00
H783   H     0.89441   0.07585   0.88501   0.00000  Uiso   1.00
H784   H     0.84456   0.05297   0.87013   0.00000  Uiso   1.00
H785   H     0.87768   0.02118   0.88575   0.00000  Uiso   1.00
H786   H     0.71802   0.25624   0.96844   0.00000  Uiso   1.00
H787   H     0.72125   0.21220   0.92571   0.00000  Uiso   1.00
H788   H     0.98581   0.13952   0.79007   0.00000  Uiso   1.00
H789   H     0.71606   0.26253   0.91250   0.00000  Uiso   1.00
H790   H     0.86835   0.00226   0.70898   0.00000  Uiso   1.00
H791   H     0.86781   0.05471   0.50558   0.00000  Uiso   1.00
H792   H     0.84164   0.19671   0.57395   0.00000  Uiso   1.00
H793   H     0.82051   0.23537   0.53914   0.00000  Uiso   1.00
H794   H     0.79030   0.27572   0.99889   0.00000  Uiso   1.00
H795   H     0.81225   0.11065   0.90211   0.00000  Uiso   1.00
H796   H     0.68217   0.19410   0.71060   0.00000  Uiso   1.00
O797   O     0.83333   0.16667   0.75000   0.00000  Uiso   1.00
O798   O     0.82118   0.12637   0.65459   0.00000  Uiso   1.00
O799   O     0.79607   0.20391   0.84968   0.00000  Uiso   1.00
O800   O     0.87491   0.17759   0.64606   0.00000  Uiso   1.00
O801   O     0.84118   0.15880   0.84968   0.00000  Uiso   1.00
O802   O     0.78876   0.32952   0.80383   0.00000  Uiso   1.00
O803   O     0.84263   0.05649   0.93805   0.00000  Uiso   1.00
O804   O     0.77598   0.25609   0.91962   0.00000  Uiso   1.00
O805   O     0.84597   0.08019   0.78214   0.00000  Uiso   1.00
O806   O     0.81298   0.26085   0.77014   0.00000  Uiso   1.00
O807   O     0.74078   0.13291   0.73413   0.00000  Uiso   1.00
O808   O     0.93360   0.19272   0.71361   0.00000  Uiso   1.00
O809   O     0.73738   0.18878   0.78213   0.00000  Uiso   1.00
O810   O     0.92158   0.15226   0.77014   0.00000  Uiso   1.00
O811   O     0.80426   0.06944   0.73413   0.00000  Uiso   1.00
O812   O     0.87012   0.25620   0.71361   0.00000  Uiso   1.00
Zn813  Zn    0.86005   0.13994   0.78734   0.00000  Uiso   1.00
Zn814  Zn    0.80046   0.12458   0.71876   0.00000  Uiso   1.00
Zn815  Zn    0.87723   0.19775   0.70657   0.00000  Uiso   1.00
Zn816  Zn    0.79560   0.20439   0.78734   0.00000  Uiso   1.00
C817   C     0.05268   0.49293   0.76015   0.00000  Uiso   1.00
C818   C     0.18096   0.49994   0.55685   0.00000  Uiso   1.00
C819   C     0.19938   0.43196   0.56231   0.00000  Uiso   1.00
C820   C     0.28067   0.50711   0.74011   0.00000  Uiso   1.00
C821   C     0.14144   0.52665   0.92042   0.00000  Uiso   1.00
C822   C     0.32652   0.50979   0.73624   0.00000  Uiso   1.00
C823   C     0.00740   0.49057   0.76408   0.00000  Uiso   1.00
C824   C     0.17779   0.65534   0.73667   0.00000  Uiso   1.00
C825   C     0.15058   0.34562   0.76592   0.00000  Uiso   1.00
C826   C     0.15685   0.38934   0.75952   0.00000  Uiso   1.00
C827   C     0.17614   0.61117   0.74043   0.00000  Uiso   1.00
C828   C     0.13270   0.57892   0.98377   0.00000  Uiso   1.00
C829   C     0.18517   0.48114   0.62943   0.00000  Uiso   1.00
C830   C     0.14773   0.51742   0.87124   0.00000  Uiso   1.00
C831   C     0.19542   0.41948   0.51908   0.00000  Uiso   1.00
C832   C     0.19150   0.47189   0.58136   0.00000  Uiso   1.00
C833   C     0.12728   0.56483   0.94123   0.00000  Uiso   1.00
C834   C     0.09054   0.35598   0.82549   0.00000  Uiso   1.00
C835   C     0.05935   0.33501   0.86414   0.00000  Uiso   1.00
C836   C     0.19916   0.38545   0.89273   0.00000  Uiso   1.00
C837   C     0.06432   0.57938   0.93248   0.00000  Uiso   1.00
C838   C     0.15000   0.55487   0.50694   0.00000  Uiso   1.00
C839   C     0.15990   0.51435   0.98934   0.00000  Uiso   1.00
C840   C     0.15346   0.49959   0.94634   0.00000  Uiso   1.00
C841   C     0.17476   0.48764   0.51355   0.00000  Uiso   1.00
C842   C     0.18177   0.44632   0.99485   0.00000  Uiso   1.00
C843   C     0.17328   0.43148   0.95331   0.00000  Uiso   1.00
C844   C     0.15724   0.45762   0.93081   0.00000  Uiso   1.00
H845   H     0.20700   0.40990   0.58163   0.00000  Uiso   1.00
H846   H     0.07215   0.36236   0.80186   0.00000  Uiso   1.00
H847   H     0.10542   0.38567   0.83970   0.00000  Uiso   1.00
H848   H     0.07666   0.66369   0.88932   0.00000  Uiso   1.00
H849   H     0.03358   0.35492   0.88035   0.00000  Uiso   1.00
H850   H     0.04460   0.63788   0.85169   0.00000  Uiso   1.00
H851   H     0.22774   0.40918   0.88501   0.00000  Uiso   1.00
H852   H     0.17790   0.38630   0.87013   0.00000  Uiso   1.00
H853   H     0.21102   0.35451   0.88575   0.00000  Uiso   1.00
H854   H     0.05135   0.58958   0.96844   0.00000  Uiso   1.00
H855   H     0.05459   0.54553   0.92571   0.00000  Uiso   1.00
H856   H     0.31914   0.47286   0.79007   0.00000  Uiso   1.00
H857   H     0.04939   0.59586   0.91250   0.00000  Uiso   1.00
H858   H     0.20169   0.33559   0.70898   0.00000  Uiso   1.00
H859   H     0.20115   0.38804   0.50558   0.00000  Uiso   1.00
H860   H     0.17497   0.53004   0.57395   0.00000  Uiso   1.00
H861   H     0.15384   0.56870   0.53914   0.00000  Uiso   1.00
H862   H     0.12363   0.60906   0.99889   0.00000  Uiso   1.00
H863   H     0.14559   0.44399   0.90211   0.00000  Uiso   1.00
H864   H     0.01550   0.52744   0.71060   0.00000  Uiso   1.00
O865   O     0.16667   0.50000   0.75000   0.00000  Uiso   1.00
O866   O     0.15451   0.45970   0.65459   0.00000  Uiso   1.00
O867   O     0.12940   0.53724   0.84968   0.00000  Uiso   1.00
O868   O     0.20824   0.51092   0.64606   0.00000  Uiso   1.00
O869   O     0.17451   0.49213   0.84968   0.00000  Uiso   1.00
O870   O     0.12209   0.66285   0.80383   0.00000  Uiso   1.00
O871   O     0.17597   0.38982   0.93805   0.00000  Uiso   1.00
O872   O     0.10931   0.58942   0.91962   0.00000  Uiso   1.00
O873   O     0.17930   0.41352   0.78214   0.00000  Uiso   1.00
O874   O     0.14632   0.59418   0.77014   0.00000  Uiso   1.00
O875   O     0.07412   0.46625   0.73413   0.00000  Uiso   1.00
O876   O     0.26693   0.52605   0.71361   0.00000  Uiso   1.00
O877   O     0.07071   0.52211   0.78213   0.00000  Uiso   1.00
O878   O     0.25491   0.48559   0.77014   0.00000  Uiso   1.00
O879   O     0.13760   0.40277   0.73413   0.00000  Uiso   1.00
O880   O     0.20345   0.58953   0.71361   0.00000  Uiso   1.00
Zn881  Zn    0.19338   0.47327   0.78734   0.00000  Uiso   1.00
Zn882  Zn    0.13379   0.45791   0.71876   0.00000  Uiso   1.00
Zn883  Zn    0.21056   0.53109   0.70657   0.00000  Uiso   1.00
Zn884  Zn    0.12893   0.53773   0.78734   0.00000  Uiso   1.00
C885   C     0.38601   0.49293   0.76015   0.00000  Uiso   1.00
C886   C     0.51430   0.49994   0.55685   0.00000  Uiso   1.00
C887   C     0.53272   0.43196   0.56231   0.00000  Uiso   1.00
C888   C     0.61401   0.50711   0.74011   0.00000  Uiso   1.00
C889   C     0.47478   0.52665   0.92042   0.00000  Uiso   1.00
C890   C     0.65985   0.50979   0.73624   0.00000  Uiso   1.00
C891   C     0.34073   0.49057   0.76408   0.00000  Uiso   1.00
C892   C     0.51112   0.65534   0.73667   0.00000  Uiso   1.00
C893   C     0.48391   0.34562   0.76592   0.00000  Uiso   1.00
C894   C     0.49019   0.38934   0.75952   0.00000  Uiso   1.00
C895   C     0.50948   0.61117   0.74043   0.00000  Uiso   1.00
C896   C     0.46603   0.57892   0.98377   0.00000  Uiso   1.00
C897   C     0.51850   0.48114   0.62943   0.00000  Uiso   1.00
C898   C     0.48106   0.51742   0.87124   0.00000  Uiso   1.00
C899   C     0.52875   0.41948   0.51908   0.00000  Uiso   1.00
C900   C     0.52484   0.47189   0.58136   0.00000  Uiso   1.00
C901   C     0.46061   0.56483   0.94123   0.00000  Uiso   1.00
C902   C     0.42388   0.35598   0.82549   0.00000  Uiso   1.00
C903   C     0.39268   0.33501   0.86414   0.00000  Uiso   1.00
C904   C     0.53249   0.38545   0.89273   0.00000  Uiso   1.00
C905   C     0.39765   0.57938   0.93248   0.00000  Uiso   1.00
C906   C     0.48334   0.55487   0.50694   0.00000  Uiso   1.00
C907   C     0.49324   0.51435   0.98934   0.00000  Uiso   1.00
C908   C     0.48679   0.49959   0.94634   0.00000  Uiso   1.00
C909   C     0.50809   0.48764   0.51355   0.00000  Uiso   1.00
C910   C     0.51511   0.44632   0.99485   0.00000  Uiso   1.00
C911   C     0.50661   0.43148   0.95331   0.00000  Uiso   1.00
C912   C     0.49057   0.45762   0.93081   0.00000  Uiso   1.00
H913   H     0.54033   0.40990   0.58163   0.00000  Uiso   1.00
H914   H     0.40548   0.36236   0.80186   0.00000  Uiso   1.00
H915   H     0.43876   0.38567   0.83970   0.00000  Uiso   1.00
H916   H     0.40999   0.66369   0.88932   0.00000  Uiso   1.00
H917   H     0.36691   0.35492   0.88035   0.00000  Uiso   1.00
H918   H     0.37793   0.63788   0.85169   0.00000  Uiso   1.00
H919   H     0.56108   0.40918   0.88501   0.00000  Uiso   1.00
H920   H     0.51123   0.38630   0.87013   0.00000  Uiso   1.00
H921   H     0.54435   0.35451   0.88575   0.00000  Uiso   1.00
H922   H     0.38468   0.58958   0.96844   0.00000  Uiso   1.00
H923   H     0.38792   0.54553   0.92571   0.00000  Uiso   1.00
H924   H     0.65247   0.47286   0.79007   0.00000  Uiso   1.00
H925   H     0.38273   0.59586   0.91250   0.00000  Uiso   1.00
H926   H     0.53502   0.33559   0.70898   0.00000  Uiso   1.00
H927   H     0.53448   0.38804   0.50558   0.00000  Uiso   1.00
H928   H     0.50831   0.53004   0.57395   0.00000  Uiso   1.00
H929   H     0.48717   0.56870   0.53914   0.00000  Uiso   1.00
H930   H     0.45697   0.60906   0.99889   0.00000  Uiso   1.00
H931   H     0.47892   0.44399   0.90211   0.00000  Uiso   1.00
H932   H     0.34884   0.52744   0.71060   0.00000  Uiso   1.00
O933   O     0.50000   0.50000   0.75000   0.00000  Uiso   1.00
O934   O     0.48784   0.45970   0.65459   0.00000  Uiso   1.00
O935   O     0.46274   0.53724   0.84968   0.00000  Uiso   1.00
O936   O     0.54157   0.51092   0.64606   0.00000  Uiso   1.00
O937   O     0.50785   0.49213   0.84968   0.00000  Uiso   1.00
O938   O     0.45543   0.66285   0.80383   0.00000  Uiso   1.00
O939   O     0.50930   0.38982   0.93805   0.00000  Uiso   1.00
O940   O     0.44264   0.58942   0.91962   0.00000  Uiso   1.00
O941   O     0.51264   0.41352   0.78214   0.00000  Uiso   1.00
O942   O     0.47965   0.59418   0.77014   0.00000  Uiso   1.00
O943   O     0.40745   0.46625   0.73413   0.00000  Uiso   1.00
O944   O     0.60026   0.52605   0.71361   0.00000  Uiso   1.00
O945   O     0.40405   0.52211   0.78213   0.00000  Uiso   1.00
O946   O     0.58824   0.48559   0.77014   0.00000  Uiso   1.00
O947   O     0.47093   0.40277   0.73413   0.00000  Uiso   1.00
O948   O     0.53678   0.58953   0.71361   0.00000  Uiso   1.00
Zn949  Zn    0.52672   0.47327   0.78734   0.00000  Uiso   1.00
Zn950  Zn    0.46713   0.45791   0.71876   0.00000  Uiso   1.00
Zn951  Zn    0.54389   0.53109   0.70657   0.00000  Uiso   1.00
Zn952  Zn    0.46226   0.53773   0.78734   0.00000  Uiso   1.00
C953   C     0.71934   0.49293   0.76015   0.00000  Uiso   1.00
C954   C     0.84763   0.49994   0.55685   0.00000  Uiso   1.00
C955   C     0.86605   0.43196   0.56231   0.00000  Uiso   1.00
C956   C     0.94734   0.50711   0.74011   0.00000  Uiso   1.00
C957   C     0.80811   0.52665   0.92042   0.00000  Uiso   1.00
C958   C     0.99319   0.50979   0.73624   0.00000  Uiso   1.00
C959   C     0.67406   0.49057   0.76408   0.00000  Uiso   1.00
C960   C     0.84446   0.65534   0.73667   0.00000  Uiso   1.00
C961   C     0.81725   0.34562   0.76592   0.00000  Uiso   1.00
C962   C     0.82352   0.38934   0.75952   0.00000  Uiso   1.00
C963   C     0.84281   0.61117   0.74043   0.00000  Uiso   1.00
C964   C     0.79937   0.57892   0.98377   0.00000  Uiso   1.00
C965   C     0.85183   0.48114   0.62943   0.00000  Uiso   1.00
C966   C     0.81439   0.51742   0.87124   0.00000  Uiso   1.00
C967   C     0.86208   0.41948   0.51908   0.00000  Uiso   1.00
C968   C     0.85817   0.47189   0.58136   0.00000  Uiso   1.00
C969   C     0.79395   0.56483   0.94123   0.00000  Uiso   1.00
C970   C     0.75721   0.35598   0.82549   0.00000  Uiso   1.00
C971   C     0.72602   0.33501   0.86414   0.00000  Uiso   1.00
C972   C     0.86582   0.38545   0.89273   0.00000  Uiso   1.00
C973   C     0.73098   0.57938   0.93248   0.00000  Uiso   1.00
C974   C     0.81667   0.55487   0.50694   0.00000  Uiso   1.00
C975   C     0.82657   0.51435   0.98934   0.00000  Uiso   1.00
C976   C     0.82012   0.49959   0.94634   0.00000  Uiso   1.00
C977   C     0.84143   0.48764   0.51355   0.00000  Uiso   1.00
C978   C     0.84844   0.44632   0.99485   0.00000  Uiso   1.00
C979   C     0.83994   0.43148   0.95331   0.00000  Uiso   1.00
C980   C     0.82390   0.45762   0.93081   0.00000  Uiso   1.00
H981   H     0.87367   0.40990   0.58163   0.00000  Uiso   1.00
H982   H     0.73881   0.36236   0.80186   0.00000  Uiso   1.00
H983   H     0.77209   0.38567   0.83970   0.00000  Uiso   1.00
H984   H     0.74332   0.66369   0.88932   0.00000  Uiso   1.00
H985   H     0.70025   0.35492   0.88035   0.00000  Uiso   1.00
H986   H     0.71127   0.63788   0.85169   0.00000  Uiso   1.00
H987   H     0.89441   0.40918   0.88501   0.00000  Uiso   1.00
H988   H     0.84456   0.38630   0.87013   0.00000  Uiso   1.00
H989   H     0.87768   0.35451   0.88575   0.00000  Uiso   1.00
H990   H     0.71802   0.58958   0.96844   0.00000  Uiso   1.00
H991   H     0.72125   0.54553   0.92571   0.00000  Uiso   1.00
H992   H     0.98581   0.47286   0.79007   0.00000  Uiso   1.00
H993   H     0.71606   0.59586   0.91250   0.00000  Uiso   1.00
H994   H     0.86835   0.33559   0.70898   0.00000  Uiso   1.00
H995   H     0.86781   0.38804   0.50558   0.00000  Uiso   1.00
H996   H     0.84164   0.53004   0.57395   0.00000  Uiso   1.00
H997   H     0.82051   0.56870   0.53914   0.00000  Uiso   1.00
H998   H     0.79030   0.60906   0.99889   0.00000  Uiso   1.00
H999   H     0.81225   0.44399   0.90211   0.00000  Uiso   1.00
H1000  H     0.68217   0.52744   0.71060   0.00000  Uiso   1.00
O1001  O     0.83333   0.50000   0.75000   0.00000  Uiso   1.00
O1002  O     0.82118   0.45970   0.65459   0.00000  Uiso   1.00
O1003  O     0.79607   0.53724   0.84968   0.00000  Uiso   1.00
O1004  O     0.87491   0.51092   0.64606   0.00000  Uiso   1.00
O1005  O     0.84118   0.49213   0.84968   0.00000  Uiso   1.00
O1006  O     0.78876   0.66285   0.80383   0.00000  Uiso   1.00
O1007  O     0.84263   0.38982   0.93805   0.00000  Uiso   1.00
O1008  O     0.77598   0.58942   0.91962   0.00000  Uiso   1.00
O1009  O     0.84597   0.41352   0.78214   0.00000  Uiso   1.00
O1010  O     0.81298   0.59418   0.77014   0.00000  Uiso   1.00
O1011  O     0.74078   0.46625   0.73413   0.00000  Uiso   1.00
O1012  O     0.93360   0.52605   0.71361   0.00000  Uiso   1.00
O1013  O     0.73738   0.52211   0.78213   0.00000  Uiso   1.00
O1014  O     0.92158   0.48559   0.77014   0.00000  Uiso   1.00
O1015  O     0.80426   0.40277   0.73413   0.00000  Uiso   1.00
O1016  O     0.87012   0.58953   0.71361   0.00000  Uiso   1.00
Zn1017 Zn    0.86005   0.47327   0.78734   0.00000  Uiso   1.00
Zn1018 Zn    0.80046   0.45791   0.71876   0.00000  Uiso   1.00
Zn1019 Zn    0.87723   0.53109   0.70657   0.00000  Uiso   1.00
Zn1020 Zn    0.79560   0.53773   0.78734   0.00000  Uiso   1.00
C1021  C     0.05268   0.82626   0.76015   0.00000  Uiso   1.00
C1022  C     0.18096   0.83328   0.55685   0.00000  Uiso   1.00
C1023  C     0.19938   0.76529   0.56231   0.00000  Uiso   1.00
C1024  C     0.28067   0.84044   0.74011   0.00000  Uiso   1.00
C1025  C     0.14144   0.85999   0.92042   0.00000  Uiso   1.00
C1026  C     0.32652   0.84313   0.73624   0.00000  Uiso   1.00
C1027  C     0.00740   0.82390   0.76408   0.00000  Uiso   1.00
C1028  C     0.17779   0.98867   0.73667   0.00000  Uiso   1.00
C1029  C     0.15058   0.67895   0.76592   0.00000  Uiso   1.00
C1030  C     0.15685   0.72268   0.75952   0.00000  Uiso   1.00
C1031  C     0.17614   0.94450   0.74043   0.00000  Uiso   1.00
C1032  C     0.13270   0.91225   0.98377   0.00000  Uiso   1.00
C1033  C     0.18517   0.81447   0.62943   0.00000  Uiso   1.00
C1034  C     0.14773   0.85076   0.87124   0.00000  Uiso   1.00
C1035  C     0.19542   0.75282   0.51908   0.00000  Uiso   1.00
C1036  C     0.19150   0.80522   0.58136   0.00000  Uiso   1.00
C1037  C     0.12728   0.89817   0.94123   0.00000  Uiso   1.00
C1038  C     0.09054   0.68931   0.82549   0.00000  Uiso   1.00
C1039  C     0.05935   0.66834   0.86414   0.00000  Uiso   1.00
C1040  C     0.19916   0.71878   0.89273   0.00000  Uiso   1.00
C1041  C     0.06432   0.91271   0.93248   0.00000  Uiso   1.00
C1042  C     0.15000   0.88821   0.50694   0.00000  Uiso   1.00
C1043  C     0.15990   0.84769   0.98934   0.00000  Uiso   1.00
C1044  C     0.15346   0.83292   0.94634   0.00000  Uiso   1.00
C1045  C     0.17476   0.82097   0.51355   0.00000  Uiso   1.00
C1046  C     0.18177   0.77965   0.99485   0.00000  Uiso   1.00
C1047  C     0.17328   0.76482   0.95331   0.00000  Uiso   1.00
C1048  C     0.15724   0.79095   0.93081   0.00000  Uiso   1.00
H1049  H     0.20700   0.74324   0.58163   0.00000  Uiso   1.00
H1050  H     0.07215   0.69570   0.80186   0.00000  Uiso   1.00
H1051  H     0.10542   0.71900   0.83970   0.00000  Uiso   1.00
H1052  H     0.07666   0.99702   0.88932   0.00000  Uiso   1.00
H1053  H     0.03358   0.68825   0.88035   0.00000  Uiso   1.00
H1054  H     0.04460   0.97121   0.85169   0.00000  Uiso   1.00
H1055  H     0.22774   0.74251   0.88501   0.00000  Uiso   1.00
H1056  H     0.17790   0.71964   0.87013   0.00000  Uiso   1.00
H1057  H     0.21102   0.68785   0.88575   0.00000  Uiso   1.00
H1058  H     0.05135   0.92291   0.96844   0.00000  Uiso   1.00
H1059  H     0.05459   0.87887   0.92571   0.00000  Uiso   1.00
H1060  H     0.31914   0.80619   0.79007   0.00000  Uiso   1.00
H1061  H     0.04939   0.92920   0.91250   0.00000  Uiso   1.00
H1062  H     0.20169   0.66893   0.70898   0.00000  Uiso   1.00
H1063  H     0.20115   0.72137   0.50558   0.00000  Uiso   1.00
H1064  H     0.17497   0.86337   0.57395   0.00000  Uiso   1.00
H1065  H     0.15384   0.90203   0.53914   0.00000  Uiso   1.00
H1066  H     0.12363   0.94239   0.99889   0.00000  Uiso   1.00
H1067  H     0.14559   0.77732   0.90211   0.00000  Uiso   1.00
H1068  H     0.01550   0.86077   0.71060   0.00000  Uiso   1.00
O1069  O     0.16667   0.83333   0.75000   0.00000  Uiso   1.00
O1070  O     0.15451   0.79304   0.65459   0.00000  Uiso   1.00
O1071  O     0.12940   0.87058   0.84968   0.00000  Uiso   1.00
O1072  O     0.20824   0.84425   0.64606   0.00000  Uiso   1.00
O1073  O     0.17451   0.82546   0.84968   0.00000  Uiso   1.00
O1074  O     0.12209   0.99619   0.80383   0.00000  Uiso   1.00
O1075  O     0.17597   0.72316   0.93805   0.00000  Uiso   1.00
O1076  O     0.10931   0.92276   0.91962   0.00000  Uiso   1.00
O1077  O     0.17930   0.74686   0.78214   0.00000  Uiso   1.00
O1078  O     0.14632   0.92751   0.77014   0.00000  Uiso   1.00
O1079  O     0.07412   0.79958   0.73413   0.00000  Uiso   1.00
O1080  O     0.26693   0.85939   0.71361   0.00000  Uiso   1.00
O1081  O     0.07071   0.85544   0.78213   0.00000  Uiso   1.00
O1082  O     0.25491   0.81892   0.77014   0.00000  Uiso   1.00
O1083  O     0.13760   0.73610   0.73413   0.00000  Uiso   1.00
O1084  O     0.20345   0.92286   0.71361   0.00000  Uiso   1.00
Zn1085 Zn    0.19338   0.80661   0.78734   0.00000  Uiso   1.00
Zn1086 Zn    0.13379   0.79124   0.71876   0.00000  Uiso   1.00
Zn1087 Zn    0.21056   0.86442   0.70657   0.00000  Uiso   1.00
Zn1088 Zn    0.12893   0.87106   0.78734   0.00000  Uiso   1.00
C1089  C     0.38601   0.82626   0.76015   0.00000  Uiso   1.00
C1090  C     0.51430   0.83328   0.55685   0.00000  Uiso   1.00
C1091  C     0.53272   0.76529   0.56231   0.00000  Uiso   1.00
C1092  C     0.61401   0.84044   0.74011   0.00000  Uiso   1.00
C1093  C     0.47478   0.85999   0.92042   0.00000  Uiso   1.00
C1094  C     0.65985   0.84313   0.73624   0.00000  Uiso   1.00
C1095  C     0.34073   0.82390   0.76408   0.00000  Uiso   1.00
C1096  C     0.51112   0.98867   0.73667   0.00000  Uiso   1.00
C1097  C     0.48391   0.67895   0.76592   0.00000  Uiso   1.00
C1098  C     0.49019   0.72268   0.75952   0.00000  Uiso   1.00
C1099  C     0.50948   0.94450   0.74043   0.00000  Uiso   1.00
C1100  C     0.46603   0.91225   0.98377   0.00000  Uiso   1.00
C1101  C     0.51850   0.81447   0.62943   0.00000  Uiso   1.00
C1102  C     0.48106   0.85076   0.87124   0.00000  Uiso   1.00
C1103  C     0.52875   0.75282   0.51908   0.00000  Uiso   1.00
C1104  C     0.52484   0.80522   0.58136   0.00000  Uiso   1.00
C1105  C     0.46061   0.89817   0.94123   0.00000  Uiso   1.00
C1106  C     0.42388   0.68931   0.82549   0.00000  Uiso   1.00
C1107  C     0.39268   0.66834   0.86414   0.00000  Uiso   1.00
C1108  C     0.53249   0.71878   0.89273   0.00000  Uiso   1.00
C1109  C     0.39765   0.91271   0.93248   0.00000  Uiso   1.00
C1110  C     0.48334   0.88821   0.50694   0.00000  Uiso   1.00
C1111  C     0.49324   0.84769   0.98934   0.00000  Uiso   1.00
C1112  C     0.48679   0.83292   0.94634   0.00000  Uiso   1.00
C1113  C     0.50809   0.82097   0.51355   0.00000  Uiso   1.00
C1114  C     0.51511   0.77965   0.99485   0.00000  Uiso   1.00
C1115  C     0.50661   0.76482   0.95331   0.00000  Uiso   1.00
C1116  C     0.49057   0.79095   0.93081   0.00000  Uiso   1.00
H1117  H     0.54033   0.74324   0.58163   0.00000  Uiso   1.00
H1118  H     0.40548   0.69570   0.80186   0.00000  Uiso   1.00
H1119  H     0.43876   0.71900   0.83970   0.00000  Uiso   1.00
H1120  H     0.40999   0.99702   0.88932   0.00000  Uiso   1.00
H1121  H     0.36691   0.68825   0.88035   0.00000  Uiso   1.00
H1122  H     0.37793   0.97121   0.85169   0.00000  Uiso   1.00
H1123  H     0.56108   0.74251   0.88501   0.00000  Uiso   1.00
H1124  H     0.51123   0.71964   0.87013   0.00000  Uiso   1.00
H1125  H     0.54435   0.68785   0.88575   0.00000  Uiso   1.00
H1126  H     0.38468   0.92291   0.96844   0.00000  Uiso   1.00
H1127  H     0.38792   0.87887   0.92571   0.00000  Uiso   1.00
H1128  H     0.65247   0.80619   0.79007   0.00000  Uiso   1.00
H1129  H     0.38273   0.92920   0.91250   0.00000  Uiso   1.00
H1130  H     0.53502   0.66893   0.70898   0.00000  Uiso   1.00
H1131  H     0.53448   0.72137   0.50558   0.00000  Uiso   1.00
H1132  H     0.50831   0.86337   0.57395   0.00000  Uiso   1.00
H1133  H     0.48717   0.90203   0.53914   0.00000  Uiso   1.00
H1134  H     0.45697   0.94239   0.99889   0.00000  Uiso   1.00
H1135  H     0.47892   0.77732   0.90211   0.00000  Uiso   1.00
H1136  H     0.34884   0.86077   0.71060   0.00000  Uiso   1.00
O1137  O     0.50000   0.83333   0.75000   0.00000  Uiso   1.00
O1138  O     0.48784   0.79304   0.65459   0.00000  Uiso   1.00
O1139  O     0.46274   0.87058   0.84968   0.00000  Uiso   1.00
O1140  O     0.54157   0.84425   0.64606   0.00000  Uiso   1.00
O1141  O     0.50785   0.82546   0.84968   0.00000  Uiso   1.00
O1142  O     0.45543   0.99619   0.80383   0.00000  Uiso   1.00
O1143  O     0.50930   0.72316   0.93805   0.00000  Uiso   1.00
O1144  O     0.44264   0.92276   0.91962   0.00000  Uiso   1.00
O1145  O     0.51264   0.74686   0.78214   0.00000  Uiso   1.00
O1146  O     0.47965   0.92751   0.77014   0.00000  Uiso   1.00
O1147  O     0.40745   0.79958   0.73413   0.00000  Uiso   1.00
O1148  O     0.60026   0.85939   0.71361   0.00000  Uiso   1.00
O1149  O     0.40405   0.85544   0.78213   0.00000  Uiso   1.00
O1150  O     0.58824   0.81892   0.77014   0.00000  Uiso   1.00
O1151  O     0.47093   0.73610   0.73413   0.00000  Uiso   1.00
O1152  O     0.53678   0.92286   0.71361   0.00000  Uiso   1.00
Zn1153 Zn    0.52672   0.80661   0.78734   0.00000  Uiso   1.00
Zn1154 Zn    0.46713   0.79124   0.71876   0.00000  Uiso   1.00
Zn1155 Zn    0.54389   0.86442   0.70657   0.00000  Uiso   1.00
Zn1156 Zn    0.46226   0.87106   0.78734   0.00000  Uiso   1.00
C1157  C     0.71934   0.82626   0.76015   0.00000  Uiso   1.00
C1158  C     0.84763   0.83328   0.55685   0.00000  Uiso   1.00
C1159  C     0.86605   0.76529   0.56231   0.00000  Uiso   1.00
C1160  C     0.94734   0.84044   0.74011   0.00000  Uiso   1.00
C1161  C     0.80811   0.85999   0.92042   0.00000  Uiso   1.00
C1162  C     0.99319   0.84313   0.73624   0.00000  Uiso   1.00
C1163  C     0.67406   0.82390   0.76408   0.00000  Uiso   1.00
C1164  C     0.84446   0.98867   0.73667   0.00000  Uiso   1.00
C1165  C     0.81725   0.67895   0.76592   0.00000  Uiso   1.00
C1166  C     0.82352   0.72268   0.75952   0.00000  Uiso   1.00
C1167  C     0.84281   0.94450   0.74043   0.00000  Uiso   1.00
C1168  C     0.79937   0.91225   0.98377   0.00000  Uiso   1.00
C1169  C     0.85183   0.81447   0.62943   0.00000  Uiso   1.00
C1170  C     0.81439   0.85076   0.87124   0.00000  Uiso   1.00
C1171  C     0.86208   0.75282   0.51908   0.00000  Uiso   1.00
C1172  C     0.85817   0.80522   0.58136   0.00000  Uiso   1.00
C1173  C     0.79395   0.89817   0.94123   0.00000  Uiso   1.00
C1174  C     0.75721   0.68931   0.82549   0.00000  Uiso   1.00
C1175  C     0.72602   0.66834   0.86414   0.00000  Uiso   1.00
C1176  C     0.86582   0.71878   0.89273   0.00000  Uiso   1.00
C1177  C     0.73098   0.91271   0.93248   0.00000  Uiso   1.00
C1178  C     0.81667   0.88821   0.50694   0.00000  Uiso   1.00
C1179  C     0.82657   0.84769   0.98934   0.00000  Uiso   1.00
C1180  C     0.82012   0.83292   0.94634   0.00000  Uiso   1.00
C1181  C     0.84143   0.82097   0.51355   0.00000  Uiso   1.00
C1182  C     0.84844   0.77965   0.99485   0.00000  Uiso   1.00
C1183  C     0.83994   0.76482   0.95331   0.00000  Uiso   1.00
C1184  C     0.82390   0.79095   0.93081   0.00000  Uiso   1.00
H1185  H     0.87367   0.74324   0.58163   0.00000  Uiso   1.00
H1186  H     0.73881   0.69570   0.80186   0.00000  Uiso   1.00
H1187  H     0.77209   0.71900   0.83970   0.00000  Uiso   1.00
H1188  H     0.74332   0.99702   0.88932   0.00000  Uiso   1.00
H1189  H     0.70025   0.68825   0.88035   0.00000  Uiso   1.00
H1190  H     0.71127   0.97121   0.85169   0.00000  Uiso   1.00
H1191  H     0.89441   0.74251   0.88501   0.00000  Uiso   1.00
H1192  H     0.84456   0.71964   0.87013   0.00000  Uiso   1.00
H1193  H     0.87768   0.68785   0.88575   0.00000  Uiso   1.00
H1194  H     0.71802   0.92291   0.96844   0.00000  Uiso   1.00
H1195  H     0.72125   0.87887   0.92571   0.00000  Uiso   1.00
H1196  H     0.98581   0.80619   0.79007   0.00000  Uiso   1.00
H1197  H     0.71606   0.92920   0.91250   0.00000  Uiso   1.00
H1198  H     0.86835   0.66893   0.70898   0.00000  Uiso   1.00
H1199  H     0.86781   0.72137   0.50558   0.00000  Uiso   1.00
H1200  H     0.84164   0.86337   0.57395   0.00000  Uiso   1.00
H1201  H     0.82051   0.90203   0.53914   0.00000  Uiso   1.00
H1202  H     0.79030   0.94239   0.99889   0.00000  Uiso   1.00
H1203  H     0.81225   0.77732   0.90211   0.00000  Uiso   1.00
H1204  H     0.68217   0.86077   0.71060   0.00000  Uiso   1.00
O1205  O     0.83333   0.83333   0.75000   0.00000  Uiso   1.00
O1206  O     0.82118   0.79304   0.65459   0.00000  Uiso   1.00
O1207  O     0.79607   0.87058   0.84968   0.00000  Uiso   1.00
O1208  O     0.87491   0.84425   0.64606   0.00000  Uiso   1.00
O1209  O     0.84118   0.82546   0.84968   0.00000  Uiso   1.00
O1210  O     0.78876   0.99619   0.80383   0.00000  Uiso   1.00
O1211  O     0.84263   0.72316   0.93805   0.00000  Uiso   1.00
O1212  O     0.77598   0.92276   0.91962   0.00000  Uiso   1.00
O1213  O     0.84597   0.74686   0.78214   0.00000  Uiso   1.00
O1214  O     0.81298   0.92751   0.77014   0.00000  Uiso   1.00
O1215  O     0.74078   0.79958   0.73413   0.00000  Uiso   1.00
O1216  O     0.93360   0.85939   0.71361   0.00000  Uiso   1.00
O1217  O     0.73738   0.85544   0.78213   0.00000  Uiso   1.00
O1218  O     0.92158   0.81892   0.77014   0.00000  Uiso   1.00
O1219  O     0.80426   0.73610   0.73413   0.00000  Uiso   1.00
O1220  O     0.87012   0.92286   0.71361   0.00000  Uiso   1.00
Zn1221 Zn    0.86005   0.80661   0.78734   0.00000  Uiso   1.00
Zn1222 Zn    0.80046   0.79124   0.71876   0.00000  Uiso   1.00
Zn1223 Zn    0.87723   0.86442   0.70657   0.00000  Uiso   1.00
Zn1224 Zn    0.79560   0.87106   0.78734   0.00000  Uiso   1.00
loop_
_geom_bond_atom_site_label_1
_geom_bond_atom_site_label_2
_geom_bond_distance
_geom_bond_site_symmetry_2
_ccdc_geom_bond_type
C1     O59     1.267   .     A
C1     C7      1.435   .     S
C1     O61     1.267   .     A
C2     C16     1.390   .     A
C2     C25     1.412   .     A
C2     H44     1.076   .     S
C3     H29     1.084   .     S
C3     C15     1.387   .     A
C3     C16     1.394   .     A
C4     O60     1.286   .     A
C4     C6      1.453   .     S
C4     O62     1.284   .     A
C5     C14     1.485   .     S
C5     C17     1.413   .     A
C5     C24     1.421   .     A
C6     C75     1.334   .     S
C6     H116    1.088   .     S
C7     C142    1.334   1_455 S
C7     H176    1.086   1_455 S
C8     C11     1.454   .     S
C8     C213    1.344   .     S
C8     H246    1.089   .     S
C9     C10     1.444   .     S
C9     C416    1.344   1_545 S
C9     O462    1.401   1_545 S
C10    O57     1.270   .     A
C10    O63     1.275   .     A
C11    O58     1.266   .     A
C11    O64     1.277   .     A
C12    C17     1.391   .     A
C12    H46     1.083   .     S
C12    C634    1.388   .     S
C13    O50     1.273   .     A
C13    O52     1.281   .     A
C13    C16     1.452   .     S
C14    O51     1.283   .     A
C14    O53     1.286   .     A
C15    H43     1.083   .     S
C15    C638    1.406   1_554 S
C17    O56     1.381   .     S
C18    H30     1.114   .     S
C18    H31     1.113   .     S
C18    C19     1.518   .     S
C18    O462    1.415   1_545 S
C19    H33     1.111   .     S
C19    H440    1.110   1_545 S
C19    H442    1.111   1_545 S
C20    H37     1.109   .     S
C20    O55     1.413   .     S
C20    H35     1.115   .     S
C20    H36     1.110   .     S
C21    O56     1.412   .     S
C21    H41     1.106   .     S
C21    H39     1.115   .     S
C21    H38     1.113   .     S
C22    H45     1.075   .     S
C22    C624    1.388   1_554 S
C22    C635    1.416   1_554 S
C23    C24     1.420   .     A
C23    C634    1.416   .     S
C23    C637    1.425   .     S
C24    C28     1.408   .     A
C25    C635    1.425   1_554 S
C25    C638    1.427   1_554 S
C26    C27     1.403   .     A
C26    C637    1.427   .     S
C26    C627    1.406   .     S
C27    O55     1.392   .     S
C27    C28     1.397   .     A
C28    H47     1.079   .     S
H32    C223    1.110   .     S
H34    C223    1.111   .     S
H40    C75     1.086   .     S
H42    C416    1.089   1_545 S
H48    C142    1.088   1_455 S
O49    Zn68    1.925   .     S
O49    Zn66    1.939   .     S
O49    Zn67    1.949   .     S
O49    Zn65    1.962   .     S
O50    Zn66    1.935   .     S
O51    Zn68    1.942   .     S
O52    Zn67    1.930   .     S
O53    Zn65    1.923   .     S
O54    C222    1.415   .     S
O54    C213    1.401   .     S
O57    Zn65    1.936   .     S
O58    Zn68    1.946   .     S
O59    Zn66    1.923   .     S
O60    Zn67    1.932   .     S
O61    Zn68    1.930   .     S
O62    Zn65    1.925   .     S
O63    Zn66    1.947   .     S
O64    Zn67    1.934   .     S
C69    O127    1.267   .     A
C69    C75     1.435   .     S
C69    O129    1.267   .     A
C70    C84     1.390   .     A
C70    C93     1.412   .     A
C70    H112    1.076   .     S
C71    H97     1.084   .     S
C71    C83     1.387   .     A
C71    C84     1.394   .     A
C72    O128    1.286   .     A
C72    C74     1.453   .     S
C72    O130    1.284   .     A
C73    C82     1.485   .     S
C73    C85     1.413   .     A
C73    C92     1.421   .     A
C74    C143    1.334   .     S
C74    H184    1.088   .     S
C76    C79     1.454   .     S
C76    C281    1.344   .     S
C76    H314    1.089   .     S
C77    C78     1.444   .     S
C77    C484    1.344   1_545 S
C77    O530    1.401   1_545 S
C78    O125    1.270   .     A
C78    O131    1.275   .     A
C79    O126    1.266   .     A
C79    O132    1.277   .     A
C80    C85     1.391   .     A
C80    H114    1.083   .     S
C80    C702    1.388   .     S
C81    O118    1.273   .     A
C81    O120    1.281   .     A
C81    C84     1.452   .     S
C82    O119    1.283   .     A
C82    O121    1.286   .     A
C83    H111    1.083   .     S
C83    C706    1.406   1_554 S
C85    O124    1.381   .     S
C86    H98     1.114   .     S
C86    H99     1.113   .     S
C86    C87     1.518   .     S
C86    O530    1.415   1_545 S
C87    H101    1.111   .     S
C87    H508    1.110   1_545 S
C87    H510    1.111   1_545 S
C88    H105    1.109   .     S
C88    O123    1.413   .     S
C88    H103    1.115   .     S
C88    H104    1.110   .     S
C89    O124    1.412   .     S
C89    H109    1.106   .     S
C89    H107    1.115   .     S
C89    H106    1.113   .     S
C90    H113    1.075   .     S
C90    C692    1.388   1_554 S
C90    C703    1.416   1_554 S
C91    C92     1.420   .     A
C91    C702    1.416   .     S
C91    C705    1.425   .     S
C92    C96     1.408   .     A
C93    C703    1.425   1_554 S
C93    C706    1.427   1_554 S
C94    C95     1.403   .     A
C94    C705    1.427   .     S
C94    C695    1.406   .     S
C95    O123    1.392   .     S
C95    C96     1.397   .     A
C96    H115    1.079   .     S
H100   C291    1.110   .     S
H102   C291    1.111   .     S
H108   C143    1.086   .     S
H110   C484    1.089   1_545 S
O117   Zn136   1.925   .     S
O117   Zn134   1.939   .     S
O117   Zn135   1.949   .     S
O117   Zn133   1.962   .     S
O118   Zn134   1.935   .     S
O119   Zn136   1.942   .     S
O120   Zn135   1.930   .     S
O121   Zn133   1.923   .     S
O122   C290    1.415   .     S
O122   C281    1.401   .     S
O125   Zn133   1.936   .     S
O126   Zn136   1.946   .     S
O127   Zn134   1.923   .     S
O128   Zn135   1.932   .     S
O129   Zn136   1.930   .     S
O130   Zn133   1.925   .     S
O131   Zn134   1.947   .     S
O132   Zn135   1.934   .     S
C137   O195    1.267   .     A
C137   C143    1.435   .     S
C137   O197    1.267   .     A
C138   C152    1.390   .     A
C138   C161    1.412   .     A
C138   H180    1.076   .     S
C139   H165    1.084   .     S
C139   C151    1.387   .     A
C139   C152    1.394   .     A
C140   O196    1.286   .     A
C140   C142    1.453   .     S
C140   O198    1.284   .     A
C141   C150    1.485   .     S
C141   C153    1.413   .     A
C141   C160    1.421   .     A
C142   C7      1.334   1_655 S
C142   H48     1.088   1_655 S
C144   C147    1.454   .     S
C144   C349    1.344   .     S
C144   H382    1.089   .     S
C145   C146    1.444   .     S
C145   C552    1.344   1_545 S
C145   O598    1.401   1_545 S
C146   O193    1.270   .     A
C146   O199    1.275   .     A
C147   O194    1.266   .     A
C147   O200    1.277   .     A
C148   C153    1.391   .     A
C148   H182    1.083   .     S
C148   C770    1.388   .     S
C149   O186    1.273   .     A
C149   O188    1.281   .     A
C149   C152    1.452   .     S
C150   O187    1.283   .     A
C150   O189    1.286   .     A
C151   H179    1.083   .     S
C151   C774    1.406   1_554 S
C153   O192    1.381   .     S
C154   H166    1.114   .     S
C154   H167    1.113   .     S
C154   C155    1.518   .     S
C154   O598    1.415   1_545 S
C155   H169    1.111   .     S
C155   H576    1.110   1_545 S
C155   H578    1.111   1_545 S
C156   H173    1.109   .     S
C156   O191    1.413   .     S
C156   H171    1.115   .     S
C156   H172    1.110   .     S
C157   O192    1.412   .     S
C157   H177    1.106   .     S
C157   H175    1.115   .     S
C157   H174    1.113   .     S
C158   H181    1.075   .     S
C158   C760    1.388   1_554 S
C158   C771    1.416   1_554 S
C159   C160    1.420   .     A
C159   C770    1.416   .     S
C159   C773    1.425   .     S
C160   C164    1.408   .     A
C161   C771    1.425   1_554 S
C161   C774    1.427   1_554 S
C162   C163    1.403   .     A
C162   C773    1.427   .     S
C162   C763    1.406   .     S
C163   O191    1.392   .     S
C163   C164    1.397   .     A
C164   H183    1.079   .     S
H168   C359    1.110   .     S
H170   C359    1.111   .     S
H176   C7      1.086   1_655 S
H178   C552    1.089   1_545 S
O185   Zn204   1.925   .     S
O185   Zn202   1.939   .     S
O185   Zn203   1.949   .     S
O185   Zn201   1.962   .     S
O186   Zn202   1.935   .     S
O187   Zn204   1.942   .     S
O188   Zn203   1.930   .     S
O189   Zn201   1.923   .     S
O190   C358    1.415   .     S
O190   C349    1.401   .     S
O193   Zn201   1.936   .     S
O194   Zn204   1.946   .     S
O195   Zn202   1.923   .     S
O196   Zn203   1.932   .     S
O197   Zn204   1.930   .     S
O198   Zn201   1.925   .     S
O199   Zn202   1.947   .     S
O200   Zn203   1.934   .     S
C205   O263    1.267   .     A
C205   C211    1.435   .     S
C205   O265    1.267   .     A
C206   C220    1.390   .     A
C206   C229    1.412   .     A
C206   H248    1.076   .     S
C207   H233    1.084   .     S
C207   C219    1.387   .     A
C207   C220    1.394   .     A
C208   O264    1.286   .     A
C208   C210    1.453   .     S
C208   O266    1.284   .     A
C209   C218    1.485   .     S
C209   C221    1.413   .     A
C209   C228    1.421   .     A
C210   C279    1.334   .     S
C210   H320    1.088   .     S
C211   C346    1.334   1_455 S
C211   H380    1.086   1_455 S
C212   C215    1.454   .     S
C212   C417    1.344   .     S
C212   H450    1.089   .     S
C213   C214    1.444   .     S
C214   O261    1.270   .     A
C214   O267    1.275   .     A
C215   O262    1.266   .     A
C215   O268    1.277   .     A
C216   C221    1.391   .     A
C216   H250    1.083   .     S
C216   C838    1.388   .     S
C217   O254    1.273   .     A
C217   O256    1.281   .     A
C217   C220    1.452   .     S
C218   O255    1.283   .     A
C218   O257    1.286   .     A
C219   H247    1.083   .     S
C219   C842    1.406   1_554 S
C221   O260    1.381   .     S
C222   H234    1.114   .     S
C222   H235    1.113   .     S
C222   C223    1.518   .     S
C223   H237    1.111   .     S
C224   H241    1.109   .     S
C224   O259    1.413   .     S
C224   H239    1.115   .     S
C224   H240    1.110   .     S
C225   O260    1.412   .     S
C225   H245    1.106   .     S
C225   H243    1.115   .     S
C225   H242    1.113   .     S
C226   H249    1.075   .     S
C226   C828    1.388   1_554 S
C226   C839    1.416   1_554 S
C227   C228    1.420   .     A
C227   C838    1.416   .     S
C227   C841    1.425   .     S
C228   C232    1.408   .     A
C229   C839    1.425   1_554 S
C229   C842    1.427   1_554 S
C230   C231    1.403   .     A
C230   C841    1.427   .     S
C230   C831    1.406   .     S
C231   O259    1.392   .     S
C231   C232    1.397   .     A
C232   H251    1.079   .     S
H236   C427    1.110   .     S
H238   C427    1.111   .     S
H244   C279    1.086   .     S
H252   C346    1.088   1_455 S
O253   Zn272   1.925   .     S
O253   Zn270   1.939   .     S
O253   Zn271   1.949   .     S
O253   Zn269   1.962   .     S
O254   Zn270   1.935   .     S
O255   Zn272   1.942   .     S
O256   Zn271   1.930   .     S
O257   Zn269   1.923   .     S
O258   C426    1.415   .     S
O258   C417    1.401   .     S
O261   Zn269   1.936   .     S
O262   Zn272   1.946   .     S
O263   Zn270   1.923   .     S
O264   Zn271   1.932   .     S
O265   Zn272   1.930   .     S
O266   Zn269   1.925   .     S
O267   Zn270   1.947   .     S
O268   Zn271   1.934   .     S
C273   O331    1.267   .     A
C273   C279    1.435   .     S
C273   O333    1.267   .     A
C274   C288    1.390   .     A
C274   C297    1.412   .     A
C274   H316    1.076   .     S
C275   H301    1.084   .     S
C275   C287    1.387   .     A
C275   C288    1.394   .     A
C276   O332    1.286   .     A
C276   C278    1.453   .     S
C276   O334    1.284   .     A
C277   C286    1.485   .     S
C277   C289    1.413   .     A
C277   C296    1.421   .     A
C278   C347    1.334   .     S
C278   H388    1.088   .     S
C280   C283    1.454   .     S
C280   C485    1.344   .     S
C280   H518    1.089   .     S
C281   C282    1.444   .     S
C282   O329    1.270   .     A
C282   O335    1.275   .     A
C283   O330    1.266   .     A
C283   O336    1.277   .     A
C284   C289    1.391   .     A
C284   H318    1.083   .     S
C284   C906    1.388   .     S
C285   O322    1.273   .     A
C285   O324    1.281   .     A
C285   C288    1.452   .     S
C286   O323    1.283   .     A
C286   O325    1.286   .     A
C287   H315    1.083   .     S
C287   C910    1.406   1_554 S
C289   O328    1.381   .     S
C290   H302    1.114   .     S
C290   H303    1.113   .     S
C290   C291    1.518   .     S
C291   H305    1.111   .     S
C292   H309    1.109   .     S
C292   O327    1.413   .     S
C292   H307    1.115   .     S
C292   H308    1.110   .     S
C293   O328    1.412   .     S
C293   H313    1.106   .     S
C293   H311    1.115   .     S
C293   H310    1.113   .     S
C294   H317    1.075   .     S
C294   C896    1.388   1_554 S
C294   C907    1.416   1_554 S
C295   C296    1.420   .     A
C295   C906    1.416   .     S
C295   C909    1.425   .     S
C296   C300    1.408   .     A
C297   C907    1.425   1_554 S
C297   C910    1.427   1_554 S
C298   C299    1.403   .     A
C298   C909    1.427   .     S
C298   C899    1.406   .     S
C299   O327    1.392   .     S
C299   C300    1.397   .     A
C300   H319    1.079   .     S
H304   C495    1.110   .     S
H306   C495    1.111   .     S
H312   C347    1.086   .     S
O321   Zn340   1.925   .     S
O321   Zn338   1.939   .     S
O321   Zn339   1.949   .     S
O321   Zn337   1.962   .     S
O322   Zn338   1.935   .     S
O323   Zn340   1.942   .     S
O324   Zn339   1.930   .     S
O325   Zn337   1.923   .     S
O326   C494    1.415   .     S
O326   C485    1.401   .     S
O329   Zn337   1.936   .     S
O330   Zn340   1.946   .     S
O331   Zn338   1.923   .     S
O332   Zn339   1.932   .     S
O333   Zn340   1.930   .     S
O334   Zn337   1.925   .     S
O335   Zn338   1.947   .     S
O336   Zn339   1.934   .     S
C341   O399    1.267   .     A
C341   C347    1.435   .     S
C341   O401    1.267   .     A
C342   C356    1.390   .     A
C342   C365    1.412   .     A
C342   H384    1.076   .     S
C343   H369    1.084   .     S
C343   C355    1.387   .     A
C343   C356    1.394   .     A
C344   O400    1.286   .     A
C344   C346    1.453   .     S
C344   O402    1.284   .     A
C345   C354    1.485   .     S
C345   C357    1.413   .     A
C345   C364    1.421   .     A
C346   C211    1.334   1_655 S
C346   H252    1.088   1_655 S
C348   C351    1.454   .     S
C348   C553    1.344   .     S
C348   H586    1.089   .     S
C349   C350    1.444   .     S
C350   O397    1.270   .     A
C350   O403    1.275   .     A
C351   O398    1.266   .     A
C351   O404    1.277   .     A
C352   C357    1.391   .     A
C352   H386    1.083   .     S
C352   C974    1.388   .     S
C353   O390    1.273   .     A
C353   O392    1.281   .     A
C353   C356    1.452   .     S
C354   O391    1.283   .     A
C354   O393    1.286   .     A
C355   H383    1.083   .     S
C355   C978    1.406   1_554 S
C357   O396    1.381   .     S
C358   H370    1.114   .     S
C358   H371    1.113   .     S
C358   C359    1.518   .     S
C359   H373    1.111   .     S
C360   H377    1.109   .     S
C360   O395    1.413   .     S
C360   H375    1.115   .     S
C360   H376    1.110   .     S
C361   O396    1.412   .     S
C361   H381    1.106   .     S
C361   H379    1.115   .     S
C361   H378    1.113   .     S
C362   H385    1.075   .     S
C362   C964    1.388   1_554 S
C362   C975    1.416   1_554 S
C363   C364    1.420   .     A
C363   C974    1.416   .     S
C363   C977    1.425   .     S
C364   C368    1.408   .     A
C365   C975    1.425   1_554 S
C365   C978    1.427   1_554 S
C366   C367    1.403   .     A
C366   C977    1.427   .     S
C366   C967    1.406   .     S
C367   O395    1.392   .     S
C367   C368    1.397   .     A
C368   H387    1.079   .     S
H372   C563    1.110   .     S
H374   C563    1.111   .     S
H380   C211    1.086   1_655 S
O389   Zn408   1.925   .     S
O389   Zn406   1.939   .     S
O389   Zn407   1.949   .     S
O389   Zn405   1.962   .     S
O390   Zn406   1.935   .     S
O391   Zn408   1.942   .     S
O392   Zn407   1.930   .     S
O393   Zn405   1.923   .     S
O394   C562    1.415   .     S
O394   C553    1.401   .     S
O397   Zn405   1.936   .     S
O398   Zn408   1.946   .     S
O399   Zn406   1.923   .     S
O400   Zn407   1.932   .     S
O401   Zn408   1.930   .     S
O402   Zn405   1.925   .     S
O403   Zn406   1.947   .     S
O404   Zn407   1.934   .     S
C409   O467    1.267   .     A
C409   C415    1.435   .     S
C409   O469    1.267   .     A
C410   C424    1.390   .     A
C410   C433    1.412   .     A
C410   H452    1.076   .     S
C411   H437    1.084   .     S
C411   C423    1.387   .     A
C411   C424    1.394   .     A
C412   O468    1.286   .     A
C412   C414    1.453   .     S
C412   O470    1.284   .     A
C413   C422    1.485   .     S
C413   C425    1.413   .     A
C413   C432    1.421   .     A
C414   C483    1.334   .     S
C414   H524    1.088   .     S
C415   C550    1.334   1_455 S
C415   H584    1.086   1_455 S
C416   C419    1.454   .     S
C416   C9      1.344   1_565 S
C416   H42     1.089   1_565 S
C417   C418    1.444   .     S
C418   O465    1.270   .     A
C418   O471    1.275   .     A
C419   O466    1.266   .     A
C419   O472    1.277   .     A
C420   C425    1.391   .     A
C420   H454    1.083   .     S
C420   C1042   1.388   .     S
C421   O458    1.273   .     A
C421   O460    1.281   .     A
C421   C424    1.452   .     S
C422   O459    1.283   .     A
C422   O461    1.286   .     A
C423   H451    1.083   .     S
C423   C1046   1.406   1_554 S
C425   O464    1.381   .     S
C426   H438    1.114   .     S
C426   H439    1.113   .     S
C426   C427    1.518   .     S
C427   H441    1.111   .     S
C428   H445    1.109   .     S
C428   O463    1.413   .     S
C428   H443    1.115   .     S
C428   H444    1.110   .     S
C429   O464    1.412   .     S
C429   H449    1.106   .     S
C429   H447    1.115   .     S
C429   H446    1.113   .     S
C430   H453    1.075   .     S
C430   C1032   1.388   1_554 S
C430   C1043   1.416   1_554 S
C431   C432    1.420   .     A
C431   C1042   1.416   .     S
C431   C1045   1.425   .     S
C432   C436    1.408   .     A
C433   C1043   1.425   1_554 S
C433   C1046   1.427   1_554 S
C434   C435    1.403   .     A
C434   C1045   1.427   .     S
C434   C1035   1.406   .     S
C435   O463    1.392   .     S
C435   C436    1.397   .     A
C436   H455    1.079   .     S
H440   C19     1.110   1_565 S
H442   C19     1.111   1_565 S
H448   C483    1.086   .     S
H456   C550    1.088   1_455 S
O457   Zn476   1.925   .     S
O457   Zn474   1.939   .     S
O457   Zn475   1.949   .     S
O457   Zn473   1.962   .     S
O458   Zn474   1.935   .     S
O459   Zn476   1.942   .     S
O460   Zn475   1.930   .     S
O461   Zn473   1.923   .     S
O462   C18     1.415   1_565 S
O462   C9      1.401   1_565 S
O465   Zn473   1.936   .     S
O466   Zn476   1.946   .     S
O467   Zn474   1.923   .     S
O468   Zn475   1.932   .     S
O469   Zn476   1.930   .     S
O470   Zn473   1.925   .     S
O471   Zn474   1.947   .     S
O472   Zn475   1.934   .     S
C477   O535    1.267   .     A
C477   C483    1.435   .     S
C477   O537    1.267   .     A
C478   C492    1.390   .     A
C478   C501    1.412   .     A
C478   H520    1.076   .     S
C479   H505    1.084   .     S
C479   C491    1.387   .     A
C479   C492    1.394   .     A
C480   O536    1.286   .     A
C480   C482    1.453   .     S
C480   O538    1.284   .     A
C481   C490    1.485   .     S
C481   C493    1.413   .     A
C481   C500    1.421   .     A
C482   C551    1.334   .     S
C482   H592    1.088   .     S
C484   C487    1.454   .     S
C484   C77     1.344   1_565 S
C484   H110    1.089   1_565 S
C485   C486    1.444   .     S
C486   O533    1.270   .     A
C486   O539    1.275   .     A
C487   O534    1.266   .     A
C487   O540    1.277   .     A
C488   C493    1.391   .     A
C488   H522    1.083   .     S
C488   C1110   1.388   .     S
C489   O526    1.273   .     A
C489   O528    1.281   .     A
C489   C492    1.452   .     S
C490   O527    1.283   .     A
C490   O529    1.286   .     A
C491   H519    1.083   .     S
C491   C1114   1.406   1_554 S
C493   O532    1.381   .     S
C494   H506    1.114   .     S
C494   H507    1.113   .     S
C494   C495    1.518   .     S
C495   H509    1.111   .     S
C496   H513    1.109   .     S
C496   O531    1.413   .     S
C496   H511    1.115   .     S
C496   H512    1.110   .     S
C497   O532    1.412   .     S
C497   H517    1.106   .     S
C497   H515    1.115   .     S
C497   H514    1.113   .     S
C498   H521    1.075   .     S
C498   C1100   1.388   1_554 S
C498   C1111   1.416   1_554 S
C499   C500    1.420   .     A
C499   C1110   1.416   .     S
C499   C1113   1.425   .     S
C500   C504    1.408   .     A
C501   C1111   1.425   1_554 S
C501   C1114   1.427   1_554 S
C502   C503    1.403   .     A
C502   C1113   1.427   .     S
C502   C1103   1.406   .     S
C503   O531    1.392   .     S
C503   C504    1.397   .     A
C504   H523    1.079   .     S
H508   C87     1.110   1_565 S
H510   C87     1.111   1_565 S
H516   C551    1.086   .     S
O525   Zn544   1.925   .     S
O525   Zn542   1.939   .     S
O525   Zn543   1.949   .     S
O525   Zn541   1.962   .     S
O526   Zn542   1.935   .     S
O527   Zn544   1.942   .     S
O528   Zn543   1.930   .     S
O529   Zn541   1.923   .     S
O530   C86     1.415   1_565 S
O530   C77     1.401   1_565 S
O533   Zn541   1.936   .     S
O534   Zn544   1.946   .     S
O535   Zn542   1.923   .     S
O536   Zn543   1.932   .     S
O537   Zn544   1.930   .     S
O538   Zn541   1.925   .     S
O539   Zn542   1.947   .     S
O540   Zn543   1.934   .     S
C545   O603    1.267   .     A
C545   C551    1.435   .     S
C545   O605    1.267   .     A
C546   C560    1.390   .     A
C546   C569    1.412   .     A
C546   H588    1.076   .     S
C547   H573    1.084   .     S
C547   C559    1.387   .     A
C547   C560    1.394   .     A
C548   O604    1.286   .     A
C548   C550    1.453   .     S
C548   O606    1.284   .     A
C549   C558    1.485   .     S
C549   C561    1.413   .     A
C549   C568    1.421   .     A
C550   C415    1.334   1_655 S
C550   H456    1.088   1_655 S
C552   C555    1.454   .     S
C552   C145    1.344   1_565 S
C552   H178    1.089   1_565 S
C553   C554    1.444   .     S
C554   O601    1.270   .     A
C554   O607    1.275   .     A
C555   O602    1.266   .     A
C555   O608    1.277   .     A
C556   C561    1.391   .     A
C556   H590    1.083   .     S
C556   C1178   1.388   .     S
C557   O594    1.273   .     A
C557   O596    1.281   .     A
C557   C560    1.452   .     S
C558   O595    1.283   .     A
C558   O597    1.286   .     A
C559   H587    1.083   .     S
C559   C1182   1.406   1_554 S
C561   O600    1.381   .     S
C562   H574    1.114   .     S
C562   H575    1.113   .     S
C562   C563    1.518   .     S
C563   H577    1.111   .     S
C564   H581    1.109   .     S
C564   O599    1.413   .     S
C564   H579    1.115   .     S
C564   H580    1.110   .     S
C565   O600    1.412   .     S
C565   H585    1.106   .     S
C565   H583    1.115   .     S
C565   H582    1.113   .     S
C566   H589    1.075   .     S
C566   C1168   1.388   1_554 S
C566   C1179   1.416   1_554 S
C567   C568    1.420   .     A
C567   C1178   1.416   .     S
C567   C1181   1.425   .     S
C568   C572    1.408   .     A
C569   C1179   1.425   1_554 S
C569   C1182   1.427   1_554 S
C570   C571    1.403   .     A
C570   C1181   1.427   .     S
C570   C1171   1.406   .     S
C571   O599    1.392   .     S
C571   C572    1.397   .     A
C572   H591    1.079   .     S
H576   C155    1.110   1_565 S
H578   C155    1.111   1_565 S
H584   C415    1.086   1_655 S
O593   Zn612   1.925   .     S
O593   Zn610   1.939   .     S
O593   Zn611   1.949   .     S
O593   Zn609   1.962   .     S
O594   Zn610   1.935   .     S
O595   Zn612   1.942   .     S
O596   Zn611   1.930   .     S
O597   Zn609   1.923   .     S
O598   C154    1.415   1_565 S
O598   C145    1.401   1_565 S
O601   Zn609   1.936   .     S
O602   Zn612   1.946   .     S
O603   Zn610   1.923   .     S
O604   Zn611   1.932   .     S
O605   Zn612   1.930   .     S
O606   Zn609   1.925   .     S
O607   Zn610   1.947   .     S
O608   Zn611   1.934   .     S
C613   O671    1.267   .     A
C613   C619    1.435   .     S
C613   O673    1.267   .     A
C614   C628    1.390   .     A
C614   C637    1.412   .     A
C614   H656    1.076   .     S
C615   H641    1.084   .     S
C615   C627    1.387   .     A
C615   C628    1.394   .     A
C616   O672    1.286   .     A
C616   C618    1.453   .     S
C616   O674    1.284   .     A
C617   C626    1.485   .     S
C617   C629    1.413   .     A
C617   C636    1.421   .     A
C618   C687    1.334   .     S
C618   H728    1.088   .     S
C619   C754    1.334   1_455 S
C619   H788    1.086   1_455 S
C620   C623    1.454   .     S
C620   C825    1.344   .     S
C620   H858    1.089   .     S
C621   C622    1.444   .     S
C621   C1028   1.344   1_545 S
C621   O1074   1.401   1_545 S
C622   O669    1.270   .     A
C622   O675    1.275   .     A
C623   O670    1.266   .     A
C623   O676    1.277   .     A
C624   C629    1.391   .     A
C624   H658    1.083   .     S
C624   C22     1.388   1_556 S
C625   O662    1.273   .     A
C625   O664    1.281   .     A
C625   C628    1.452   .     S
C626   O663    1.283   .     A
C626   O665    1.286   .     A
C627   H655    1.083   .     S
C629   O668    1.381   .     S
C630   H642    1.114   .     S
C630   H643    1.113   .     S
C630   C631    1.518   .     S
C630   O1074   1.415   1_545 S
C631   H645    1.111   .     S
C631   H1052   1.110   1_545 S
C631   H1054   1.111   1_545 S
C632   H649    1.109   .     S
C632   O667    1.413   .     S
C632   H647    1.115   .     S
C632   H648    1.110   .     S
C633   O668    1.412   .     S
C633   H653    1.106   .     S
C633   H651    1.115   .     S
C633   H650    1.113   .     S
C634   H657    1.075   .     S
C635   C636    1.420   .     A
C635   C22     1.416   1_556 S
C635   C25     1.425   1_556 S
C636   C640    1.408   .     A
C638   C639    1.403   .     A
C638   C25     1.427   1_556 S
C638   C15     1.406   1_556 S
C639   O667    1.392   .     S
C639   C640    1.397   .     A
C640   H659    1.079   .     S
H644   C835    1.110   .     S
H646   C835    1.111   .     S
H652   C687    1.086   .     S
H654   C1028   1.089   1_545 S
H660   C754    1.088   1_455 S
O661   Zn680   1.925   .     S
O661   Zn678   1.939   .     S
O661   Zn679   1.949   .     S
O661   Zn677   1.962   .     S
O662   Zn678   1.935   .     S
O663   Zn680   1.942   .     S
O664   Zn679   1.930   .     S
O665   Zn677   1.923   .     S
O666   C834    1.415   .     S
O666   C825    1.401   .     S
O669   Zn677   1.936   .     S
O670   Zn680   1.946   .     S
O671   Zn678   1.923   .     S
O672   Zn679   1.932   .     S
O673   Zn680   1.930   .     S
O674   Zn677   1.925   .     S
O675   Zn678   1.947   .     S
O676   Zn679   1.934   .     S
C681   O739    1.267   .     A
C681   C687    1.435   .     S
C681   O741    1.267   .     A
C682   C696    1.390   .     A
C682   C705    1.412   .     A
C682   H724    1.076   .     S
C683   H709    1.084   .     S
C683   C695    1.387   .     A
C683   C696    1.394   .     A
C684   O740    1.286   .     A
C684   C686    1.453   .     S
C684   O742    1.284   .     A
C685   C694    1.485   .     S
C685   C697    1.413   .     A
C685   C704    1.421   .     A
C686   C755    1.334   .     S
C686   H796    1.088   .     S
C688   C691    1.454   .     S
C688   C893    1.344   .     S
C688   H926    1.089   .     S
C689   C690    1.444   .     S
C689   C1096   1.344   1_545 S
C689   O1142   1.401   1_545 S
C690   O737    1.270   .     A
C690   O743    1.275   .     A
C691   O738    1.266   .     A
C691   O744    1.277   .     A
C692   C697    1.391   .     A
C692   H726    1.083   .     S
C692   C90     1.388   1_556 S
C693   O730    1.273   .     A
C693   O732    1.281   .     A
C693   C696    1.452   .     S
C694   O731    1.283   .     A
C694   O733    1.286   .     A
C695   H723    1.083   .     S
C697   O736    1.381   .     S
C698   H710    1.114   .     S
C698   H711    1.113   .     S
C698   C699    1.518   .     S
C698   O1142   1.415   1_545 S
C699   H713    1.111   .     S
C699   H1120   1.110   1_545 S
C699   H1122   1.111   1_545 S
C700   H717    1.109   .     S
C700   O735    1.413   .     S
C700   H715    1.115   .     S
C700   H716    1.110   .     S
C701   O736    1.412   .     S
C701   H721    1.106   .     S
C701   H719    1.115   .     S
C701   H718    1.113   .     S
C702   H725    1.075   .     S
C703   C704    1.420   .     A
C703   C90     1.416   1_556 S
C703   C93     1.425   1_556 S
C704   C708    1.408   .     A
C706   C707    1.403   .     A
C706   C93     1.427   1_556 S
C706   C83     1.406   1_556 S
C707   O735    1.392   .     S
C707   C708    1.397   .     A
C708   H727    1.079   .     S
H712   C903    1.110   .     S
H714   C903    1.111   .     S
H720   C755    1.086   .     S
H722   C1096   1.089   1_545 S
O729   Zn748   1.925   .     S
O729   Zn746   1.939   .     S
O729   Zn747   1.949   .     S
O729   Zn745   1.962   .     S
O730   Zn746   1.935   .     S
O731   Zn748   1.942   .     S
O732   Zn747   1.930   .     S
O733   Zn745   1.923   .     S
O734   C902    1.415   .     S
O734   C893    1.401   .     S
O737   Zn745   1.936   .     S
O738   Zn748   1.946   .     S
O739   Zn746   1.923   .     S
O740   Zn747   1.932   .     S
O741   Zn748   1.930   .     S
O742   Zn745   1.925   .     S
O743   Zn746   1.947   .     S
O744   Zn747   1.934   .     S
C749   O807    1.267   .     A
C749   C755    1.435   .     S
C749   O809    1.267   .     A
C750   C764    1.390   .     A
C750   C773    1.412   .     A
C750   H792    1.076   .     S
C751   H777    1.084   .     S
C751   C763    1.387   .     A
C751   C764    1.394   .     A
C752   O808    1.286   .     A
C752   C754    1.453   .     S
C752   O810    1.284   .     A
C753   C762    1.485   .     S
C753   C765    1.413   .     A
C753   C772    1.421   .     A
C754   C619    1.334   1_655 S
C754   H660    1.088   1_655 S
C756   C759    1.454   .     S
C756   C961    1.344   .     S
C756   H994    1.089   .     S
C757   C758    1.444   .     S
C757   C1164   1.344   1_545 S
C757   O1210   1.401   1_545 S
C758   O805    1.270   .     A
C758   O811    1.275   .     A
C759   O806    1.266   .     A
C759   O812    1.277   .     A
C760   C765    1.391   .     A
C760   H794    1.083   .     S
C760   C158    1.388   1_556 S
C761   O798    1.273   .     A
C761   O800    1.281   .     A
C761   C764    1.452   .     S
C762   O799    1.283   .     A
C762   O801    1.286   .     A
C763   H791    1.083   .     S
C765   O804    1.381   .     S
C766   H778    1.114   .     S
C766   H779    1.113   .     S
C766   C767    1.518   .     S
C766   O1210   1.415   1_545 S
C767   H781    1.111   .     S
C767   H1188   1.110   1_545 S
C767   H1190   1.111   1_545 S
C768   H785    1.109   .     S
C768   O803    1.413   .     S
C768   H783    1.115   .     S
C768   H784    1.110   .     S
C769   O804    1.412   .     S
C769   H789    1.106   .     S
C769   H787    1.115   .     S
C769   H786    1.113   .     S
C770   H793    1.075   .     S
C771   C772    1.420   .     A
C771   C158    1.416   1_556 S
C771   C161    1.425   1_556 S
C772   C776    1.408   .     A
C774   C775    1.403   .     A
C774   C161    1.427   1_556 S
C774   C151    1.406   1_556 S
C775   O803    1.392   .     S
C775   C776    1.397   .     A
C776   H795    1.079   .     S
H780   C971    1.110   .     S
H782   C971    1.111   .     S
H788   C619    1.086   1_655 S
H790   C1164   1.089   1_545 S
O797   Zn816   1.925   .     S
O797   Zn814   1.939   .     S
O797   Zn815   1.949   .     S
O797   Zn813   1.962   .     S
O798   Zn814   1.935   .     S
O799   Zn816   1.942   .     S
O800   Zn815   1.930   .     S
O801   Zn813   1.923   .     S
O802   C970    1.415   .     S
O802   C961    1.401   .     S
O805   Zn813   1.936   .     S
O806   Zn816   1.946   .     S
O807   Zn814   1.923   .     S
O808   Zn815   1.932   .     S
O809   Zn816   1.930   .     S
O810   Zn813   1.925   .     S
O811   Zn814   1.947   .     S
O812   Zn815   1.934   .     S
C817   O875    1.267   .     A
C817   C823    1.435   .     S
C817   O877    1.267   .     A
C818   C832    1.390   .     A
C818   C841    1.412   .     A
C818   H860    1.076   .     S
C819   H845    1.084   .     S
C819   C831    1.387   .     A
C819   C832    1.394   .     A
C820   O876    1.286   .     A
C820   C822    1.453   .     S
C820   O878    1.284   .     A
C821   C830    1.485   .     S
C821   C833    1.413   .     A
C821   C840    1.421   .     A
C822   C891    1.334   .     S
C822   H932    1.088   .     S
C823   C958    1.334   1_455 S
C823   H992    1.086   1_455 S
C824   C827    1.454   .     S
C824   C1029   1.344   .     S
C824   H1062   1.089   .     S
C825   C826    1.444   .     S
C826   O873    1.270   .     A
C826   O879    1.275   .     A
C827   O874    1.266   .     A
C827   O880    1.277   .     A
C828   C833    1.391   .     A
C828   H862    1.083   .     S
C828   C226    1.388   1_556 S
C829   O866    1.273   .     A
C829   O868    1.281   .     A
C829   C832    1.452   .     S
C830   O867    1.283   .     A
C830   O869    1.286   .     A
C831   H859    1.083   .     S
C833   O872    1.381   .     S
C834   H846    1.114   .     S
C834   H847    1.113   .     S
C834   C835    1.518   .     S
C835   H849    1.111   .     S
C836   H853    1.109   .     S
C836   O871    1.413   .     S
C836   H851    1.115   .     S
C836   H852    1.110   .     S
C837   O872    1.412   .     S
C837   H857    1.106   .     S
C837   H855    1.115   .     S
C837   H854    1.113   .     S
C838   H861    1.075   .     S
C839   C840    1.420   .     A
C839   C226    1.416   1_556 S
C839   C229    1.425   1_556 S
C840   C844    1.408   .     A
C842   C843    1.403   .     A
C842   C229    1.427   1_556 S
C842   C219    1.406   1_556 S
C843   O871    1.392   .     S
C843   C844    1.397   .     A
C844   H863    1.079   .     S
H848   C1039   1.110   .     S
H850   C1039   1.111   .     S
H856   C891    1.086   .     S
H864   C958    1.088   1_455 S
O865   Zn884   1.925   .     S
O865   Zn882   1.939   .     S
O865   Zn883   1.949   .     S
O865   Zn881   1.962   .     S
O866   Zn882   1.935   .     S
O867   Zn884   1.942   .     S
O868   Zn883   1.930   .     S
O869   Zn881   1.923   .     S
O870   C1038   1.415   .     S
O870   C1029   1.401   .     S
O873   Zn881   1.936   .     S
O874   Zn884   1.946   .     S
O875   Zn882   1.923   .     S
O876   Zn883   1.932   .     S
O877   Zn884   1.930   .     S
O878   Zn881   1.925   .     S
O879   Zn882   1.947   .     S
O880   Zn883   1.934   .     S
C885   O943    1.267   .     A
C885   C891    1.435   .     S
C885   O945    1.267   .     A
C886   C900    1.390   .     A
C886   C909    1.412   .     A
C886   H928    1.076   .     S
C887   H913    1.084   .     S
C887   C899    1.387   .     A
C887   C900    1.394   .     A
C888   O944    1.286   .     A
C888   C890    1.453   .     S
C888   O946    1.284   .     A
C889   C898    1.485   .     S
C889   C901    1.413   .     A
C889   C908    1.421   .     A
C890   C959    1.334   .     S
C890   H1000   1.088   .     S
C892   C895    1.454   .     S
C892   C1097   1.344   .     S
C892   H1130   1.089   .     S
C893   C894    1.444   .     S
C894   O941    1.270   .     A
C894   O947    1.275   .     A
C895   O942    1.266   .     A
C895   O948    1.277   .     A
C896   C901    1.391   .     A
C896   H930    1.083   .     S
C896   C294    1.388   1_556 S
C897   O934    1.273   .     A
C897   O936    1.281   .     A
C897   C900    1.452   .     S
C898   O935    1.283   .     A
C898   O937    1.286   .     A
C899   H927    1.083   .     S
C901   O940    1.381   .     S
C902   H914    1.114   .     S
C902   H915    1.113   .     S
C902   C903    1.518   .     S
C903   H917    1.111   .     S
C904   H921    1.109   .     S
C904   O939    1.413   .     S
C904   H919    1.115   .     S
C904   H920    1.110   .     S
C905   O940    1.412   .     S
C905   H925    1.106   .     S
C905   H923    1.115   .     S
C905   H922    1.113   .     S
C906   H929    1.075   .     S
C907   C908    1.420   .     A
C907   C294    1.416   1_556 S
C907   C297    1.425   1_556 S
C908   C912    1.408   .     A
C910   C911    1.403   .     A
C910   C297    1.427   1_556 S
C910   C287    1.406   1_556 S
C911   O939    1.392   .     S
C911   C912    1.397   .     A
C912   H931    1.079   .     S
H916   C1107   1.110   .     S
H918   C1107   1.111   .     S
H924   C959    1.086   .     S
O933   Zn952   1.925   .     S
O933   Zn950   1.939   .     S
O933   Zn951   1.949   .     S
O933   Zn949   1.962   .     S
O934   Zn950   1.935   .     S
O935   Zn952   1.942   .     S
O936   Zn951   1.930   .     S
O937   Zn949   1.923   .     S
O938   C1106   1.415   .     S
O938   C1097   1.401   .     S
O941   Zn949   1.936   .     S
O942   Zn952   1.946   .     S
O943   Zn950   1.923   .     S
O944   Zn951   1.932   .     S
O945   Zn952   1.930   .     S
O946   Zn949   1.925   .     S
O947   Zn950   1.947   .     S
O948   Zn951   1.934   .     S
C953   O1011   1.267   .     A
C953   C959    1.435   .     S
C953   O1013   1.267   .     A
C954   C968    1.390   .     A
C954   C977    1.412   .     A
C954   H996    1.076   .     S
C955   H981    1.084   .     S
C955   C967    1.387   .     A
C955   C968    1.394   .     A
C956   O1012   1.286   .     A
C956   C958    1.453   .     S
C956   O1014   1.284   .     A
C957   C966    1.485   .     S
C957   C969    1.413   .     A
C957   C976    1.421   .     A
C958   C823    1.334   1_655 S
C958   H864    1.088   1_655 S
C960   C963    1.454   .     S
C960   C1165   1.344   .     S
C960   H1198   1.089   .     S
C961   C962    1.444   .     S
C962   O1009   1.270   .     A
C962   O1015   1.275   .     A
C963   O1010   1.266   .     A
C963   O1016   1.277   .     A
C964   C969    1.391   .     A
C964   H998    1.083   .     S
C964   C362    1.388   1_556 S
C965   O1002   1.273   .     A
C965   O1004   1.281   .     A
C965   C968    1.452   .     S
C966   O1003   1.283   .     A
C966   O1005   1.286   .     A
C967   H995    1.083   .     S
C969   O1008   1.381   .     S
C970   H982    1.114   .     S
C970   H983    1.113   .     S
C970   C971    1.518   .     S
C971   H985    1.111   .     S
C972   H989    1.109   .     S
C972   O1007   1.413   .     S
C972   H987    1.115   .     S
C972   H988    1.110   .     S
C973   O1008   1.412   .     S
C973   H993    1.106   .     S
C973   H991    1.115   .     S
C973   H990    1.113   .     S
C974   H997    1.075   .     S
C975   C976    1.420   .     A
C975   C362    1.416   1_556 S
C975   C365    1.425   1_556 S
C976   C980    1.408   .     A
C978   C979    1.403   .     A
C978   C365    1.427   1_556 S
C978   C355    1.406   1_556 S
C979   O1007   1.392   .     S
C979   C980    1.397   .     A
C980   H999    1.079   .     S
H984   C1175   1.110   .     S
H986   C1175   1.111   .     S
H992   C823    1.086   1_655 S
O1001  Zn1020  1.925   .     S
O1001  Zn1018  1.939   .     S
O1001  Zn1019  1.949   .     S
O1001  Zn1017  1.962   .     S
O1002  Zn1018  1.935   .     S
O1003  Zn1020  1.942   .     S
O1004  Zn1019  1.930   .     S
O1005  Zn1017  1.923   .     S
O1006  C1174   1.415   .     S
O1006  C1165   1.401   .     S
O1009  Zn1017  1.936   .     S
O1010  Zn1020  1.946   .     S
O1011  Zn1018  1.923   .     S
O1012  Zn1019  1.932   .     S
O1013  Zn1020  1.930   .     S
O1014  Zn1017  1.925   .     S
O1015  Zn1018  1.947   .     S
O1016  Zn1019  1.934   .     S
C1021  O1079   1.267   .     A
C1021  C1027   1.435   .     S
C1021  O1081   1.267   .     A
C1022  C1036   1.390   .     A
C1022  C1045   1.412   .     A
C1022  H1064   1.076   .     S
C1023  H1049   1.084   .     S
C1023  C1035   1.387   .     A
C1023  C1036   1.394   .     A
C1024  O1080   1.286   .     A
C1024  C1026   1.453   .     S
C1024  O1082   1.284   .     A
C1025  C1034   1.485   .     S
C1025  C1037   1.413   .     A
C1025  C1044   1.421   .     A
C1026  C1095   1.334   .     S
C1026  H1136   1.088   .     S
C1027  C1162   1.334   1_455 S
C1027  H1196   1.086   1_455 S
C1028  C1031   1.454   .     S
C1028  C621    1.344   1_565 S
C1028  H654    1.089   1_565 S
C1029  C1030   1.444   .     S
C1030  O1077   1.270   .     A
C1030  O1083   1.275   .     A
C1031  O1078   1.266   .     A
C1031  O1084   1.277   .     A
C1032  C1037   1.391   .     A
C1032  H1066   1.083   .     S
C1032  C430    1.388   1_556 S
C1033  O1070   1.273   .     A
C1033  O1072   1.281   .     A
C1033  C1036   1.452   .     S
C1034  O1071   1.283   .     A
C1034  O1073   1.286   .     A
C1035  H1063   1.083   .     S
C1037  O1076   1.381   .     S
C1038  H1050   1.114   .     S
C1038  H1051   1.113   .     S
C1038  C1039   1.518   .     S
C1039  H1053   1.111   .     S
C1040  H1057   1.109   .     S
C1040  O1075   1.413   .     S
C1040  H1055   1.115   .     S
C1040  H1056   1.110   .     S
C1041  O1076   1.412   .     S
C1041  H1061   1.106   .     S
C1041  H1059   1.115   .     S
C1041  H1058   1.113   .     S
C1042  H1065   1.075   .     S
C1043  C1044   1.420   .     A
C1043  C430    1.416   1_556 S
C1043  C433    1.425   1_556 S
C1044  C1048   1.408   .     A
C1046  C1047   1.403   .     A
C1046  C433    1.427   1_556 S
C1046  C423    1.406   1_556 S
C1047  O1075   1.392   .     S
C1047  C1048   1.397   .     A
C1048  H1067   1.079   .     S
H1052  C631    1.110   1_565 S
H1054  C631    1.111   1_565 S
H1060  C1095   1.086   .     S
H1068  C1162   1.088   1_455 S
O1069  Zn1088  1.925   .     S
O1069  Zn1086  1.939   .     S
O1069  Zn1087  1.949   .     S
O1069  Zn1085  1.962   .     S
O1070  Zn1086  1.935   .     S
O1071  Zn1088  1.942   .     S
O1072  Zn1087  1.930   .     S
O1073  Zn1085  1.923   .     S
O1074  C630    1.415   1_565 S
O1074  C621    1.401   1_565 S
O1077  Zn1085  1.936   .     S
O1078  Zn1088  1.946   .     S
O1079  Zn1086  1.923   .     S
O1080  Zn1087  1.932   .     S
O1081  Zn1088  1.930   .     S
O1082  Zn1085  1.925   .     S
O1083  Zn1086  1.947   .     S
O1084  Zn1087  1.934   .     S
C1089  O1147   1.267   .     A
C1089  C1095   1.435   .     S
C1089  O1149   1.267   .     A
C1090  C1104   1.390   .     A
C1090  C1113   1.412   .     A
C1090  H1132   1.076   .     S
C1091  H1117   1.084   .     S
C1091  C1103   1.387   .     A
C1091  C1104   1.394   .     A
C1092  O1148   1.286   .     A
C1092  C1094   1.453   .     S
C1092  O1150   1.284   .     A
C1093  C1102   1.485   .     S
C1093  C1105   1.413   .     A
C1093  C1112   1.421   .     A
C1094  C1163   1.334   .     S
C1094  H1204   1.088   .     S
C1096  C1099   1.454   .     S
C1096  C689    1.344   1_565 S
C1096  H722    1.089   1_565 S
C1097  C1098   1.444   .     S
C1098  O1145   1.270   .     A
C1098  O1151   1.275   .     A
C1099  O1146   1.266   .     A
C1099  O1152   1.277   .     A
C1100  C1105   1.391   .     A
C1100  H1134   1.083   .     S
C1100  C498    1.388   1_556 S
C1101  O1138   1.273   .     A
C1101  O1140   1.281   .     A
C1101  C1104   1.452   .     S
C1102  O1139   1.283   .     A
C1102  O1141   1.286   .     A
C1103  H1131   1.083   .     S
C1105  O1144   1.381   .     S
C1106  H1118   1.114   .     S
C1106  H1119   1.113   .     S
C1106  C1107   1.518   .     S
C1107  H1121   1.111   .     S
C1108  H1125   1.109   .     S
C1108  O1143   1.413   .     S
C1108  H1123   1.115   .     S
C1108  H1124   1.110   .     S
C1109  O1144   1.412   .     S
C1109  H1129   1.106   .     S
C1109  H1127   1.115   .     S
C1109  H1126   1.113   .     S
C1110  H1133   1.075   .     S
C1111  C1112   1.420   .     A
C1111  C498    1.416   1_556 S
C1111  C501    1.425   1_556 S
C1112  C1116   1.408   .     A
C1114  C1115   1.403   .     A
C1114  C501    1.427   1_556 S
C1114  C491    1.406   1_556 S
C1115  O1143   1.392   .     S
C1115  C1116   1.397   .     A
C1116  H1135   1.079   .     S
H1120  C699    1.110   1_565 S
H1122  C699    1.111   1_565 S
H1128  C1163   1.086   .     S
O1137  Zn1156  1.925   .     S
O1137  Zn1154  1.939   .     S
O1137  Zn1155  1.949   .     S
O1137  Zn1153  1.962   .     S
O1138  Zn1154  1.935   .     S
O1139  Zn1156  1.942   .     S
O1140  Zn1155  1.930   .     S
O1141  Zn1153  1.923   .     S
O1142  C698    1.415   1_565 S
O1142  C689    1.401   1_565 S
O1145  Zn1153  1.936   .     S
O1146  Zn1156  1.946   .     S
O1147  Zn1154  1.923   .     S
O1148  Zn1155  1.932   .     S
O1149  Zn1156  1.930   .     S
O1150  Zn1153  1.925   .     S
O1151  Zn1154  1.947   .     S
O1152  Zn1155  1.934   .     S
C1157  O1215   1.267   .     A
C1157  C1163   1.435   .     S
C1157  O1217   1.267   .     A
C1158  C1172   1.390   .     A
C1158  C1181   1.412   .     A
C1158  H1200   1.076   .     S
C1159  H1185   1.084   .     S
C1159  C1171   1.387   .     A
C1159  C1172   1.394   .     A
C1160  O1216   1.286   .     A
C1160  C1162   1.453   .     S
C1160  O1218   1.284   .     A
C1161  C1170   1.485   .     S
C1161  C1173   1.413   .     A
C1161  C1180   1.421   .     A
C1162  C1027   1.334   1_655 S
C1162  H1068   1.088   1_655 S
C1164  C1167   1.454   .     S
C1164  C757    1.344   1_565 S
C1164  H790    1.089   1_565 S
C1165  C1166   1.444   .     S
C1166  O1213   1.270   .     A
C1166  O1219   1.275   .     A
C1167  O1214   1.266   .     A
C1167  O1220   1.277   .     A
C1168  C1173   1.391   .     A
C1168  H1202   1.083   .     S
C1168  C566    1.388   1_556 S
C1169  O1206   1.273   .     A
C1169  O1208   1.281   .     A
C1169  C1172   1.452   .     S
C1170  O1207   1.283   .     A
C1170  O1209   1.286   .     A
C1171  H1199   1.083   .     S
C1173  O1212   1.381   .     S
C1174  H1186   1.114   .     S
C1174  H1187   1.113   .     S
C1174  C1175   1.518   .     S
C1175  H1189   1.111   .     S
C1176  H1193   1.109   .     S
C1176  O1211   1.413   .     S
C1176  H1191   1.115   .     S
C1176  H1192   1.110   .     S
C1177  O1212   1.412   .     S
C1177  H1197   1.106   .     S
C1177  H1195   1.115   .     S
C1177  H1194   1.113   .     S
C1178  H1201   1.075   .     S
C1179  C1180   1.420   .     A
C1179  C566    1.416   1_556 S
C1179  C569    1.425   1_556 S
C1180  C1184   1.408   .     A
C1182  C1183   1.403   .     A
C1182  C569    1.427   1_556 S
C1182  C559    1.406   1_556 S
C1183  O1211   1.392   .     S
C1183  C1184   1.397   .     A
C1184  H1203   1.079   .     S
H1188  C767    1.110   1_565 S
H1190  C767    1.111   1_565 S
H1196  C1027   1.086   1_655 S
O1205  Zn1224  1.925   .     S
O1205  Zn1222  1.939   .     S
O1205  Zn1223  1.949   .     S
O1205  Zn1221  1.962   .     S
O1206  Zn1222  1.935   .     S
O1207  Zn1224  1.942   .     S
O1208  Zn1223  1.930   .     S
O1209  Zn1221  1.923   .     S
O1210  C766    1.415   1_565 S
O1210  C757    1.401   1_565 S
O1213  Zn1221  1.936   .     S
O1214  Zn1224  1.946   .     S
O1215  Zn1222  1.923   .     S
O1216  Zn1223  1.932   .     S
O1217  Zn1224  1.930   .     S
O1218  Zn1221  1.925   .     S
O1219  Zn1222  1.947   .     S
O1220  Zn1223  1.934   .     S
