data_str_m1_o1_o17_pcu_sym.152
_audit_creation_date              2020-01-03
_audit_creation_method            'Materials Studio'
_symmetry_space_group_name_H-M    'P1'
_symmetry_Int_Tables_number       1
_symmetry_cell_setting            triclinic
loop_
_symmetry_equiv_pos_as_xyz
  x,y,z
_cell_length_a                    36.5525
_cell_length_b                    36.5149
_cell_length_c                    34.4570
_cell_angle_alpha                 90.0287
_cell_angle_beta                  89.9681
_cell_angle_gamma                 90.0214
loop_
_atom_site_label
_atom_site_type_symbol
_atom_site_fract_x
_atom_site_fract_y
_atom_site_fract_z
_atom_site_U_iso_or_equiv
_atom_site_adp_type
_atom_site_occupancy
C1     C     0.00955   0.28230   0.41803   0.00000  Uiso   1.00
C2     C     0.48719   0.21886   0.58195   0.00000  Uiso   1.00
C3     C     0.21797   0.49009   0.41806   0.00000  Uiso   1.00
C4     C     0.28099   0.01316   0.58196   0.00000  Uiso   1.00
C5     C     0.49041   0.21779   0.41802   0.00000  Uiso   1.00
C6     C     0.01289   0.28111   0.58196   0.00000  Uiso   1.00
C7     C     0.28218   0.01003   0.41802   0.00000  Uiso   1.00
C8     C     0.21908   0.48677   0.58195   0.00000  Uiso   1.00
C9     C     0.26280   0.03114   0.91804   0.00000  Uiso   1.00
C10    C     0.24047   0.46770   0.08197   0.00000  Uiso   1.00
C11    C     0.46901   0.23685   0.91804   0.00000  Uiso   1.00
C12    C     0.03203   0.25991   0.08194   0.00000  Uiso   1.00
C13    C     0.23712   0.46888   0.91804   0.00000  Uiso   1.00
C14    C     0.25958   0.03221   0.08198   0.00000  Uiso   1.00
C15    C     0.03092   0.26322   0.91805   0.00000  Uiso   1.00
C16    C     0.46783   0.23997   0.08198   0.00000  Uiso   1.00
C17    C     0.49998   0.25004   0.39798   0.00000  Uiso   1.00
C18    C     0.00003   0.24999   0.60198   0.00000  Uiso   1.00
C19    C     0.25007   0.00005   0.39800   0.00000  Uiso   1.00
C20    C     0.25002   0.49997   0.60198   0.00000  Uiso   1.00
C21    C     0.24997   0.00001   0.89802   0.00000  Uiso   1.00
C22    C     0.25002   0.49996   0.10201   0.00000  Uiso   1.00
C23    C     0.49998   0.25003   0.89802   0.00000  Uiso   1.00
C24    C     0.49993   0.24995   0.10200   0.00000  Uiso   1.00
C25    C     0.47886   0.18682   0.47984   0.00000  Uiso   1.00
C26    C     0.02209   0.31289   0.52008   0.00000  Uiso   1.00
C27    C     0.31290   0.02207   0.47987   0.00000  Uiso   1.00
C28    C     0.18743   0.47733   0.52006   0.00000  Uiso   1.00
C29    C     0.02124   0.31318   0.47989   0.00000  Uiso   1.00
C30    C     0.47802   0.18709   0.52003   0.00000  Uiso   1.00
C31    C     0.18715   0.47821   0.47988   0.00000  Uiso   1.00
C32    C     0.31260   0.02287   0.52006   0.00000  Uiso   1.00
C33    C     0.22793   0.43711   0.97992   0.00000  Uiso   1.00
C34    C     0.27112   0.06319   0.02016   0.00000  Uiso   1.00
C35    C     0.06257   0.27266   0.97994   0.00000  Uiso   1.00
C36    C     0.43710   0.22794   0.02013   0.00000  Uiso   1.00
C37    C     0.27196   0.06292   0.97996   0.00000  Uiso   1.00
C38    C     0.22878   0.43681   0.02011   0.00000  Uiso   1.00
C39    C     0.43740   0.22714   0.97994   0.00000  Uiso   1.00
C40    C     0.06285   0.27179   0.02012   0.00000  Uiso   1.00
C41    C     0.25004   0.00001   0.35573   0.00000  Uiso   1.00
C42    C     0.25000   0.49999   0.64426   0.00000  Uiso   1.00
C43    C     0.49999   0.25002   0.35572   0.00000  Uiso   1.00
C44    C     0.00001   0.25001   0.64427   0.00000  Uiso   1.00
C45    C    -0.00000   0.25001   0.85574   0.00000  Uiso   1.00
C46    C     0.49996   0.24999   0.14426   0.00000  Uiso   1.00
C47    C     0.24999   0.49999   0.85573   0.00000  Uiso   1.00
C48    C     0.25001   0.49998   0.14428   0.00000  Uiso   1.00
C49    C     0.18007   0.06999   0.24998   0.00000  Uiso   1.00
C50    C     0.31991   0.42999   0.75000   0.00000  Uiso   1.00
C51    C     0.43009   0.17999   0.25001   0.00000  Uiso   1.00
C52    C     0.06993   0.31999   0.74998   0.00000  Uiso   1.00
C53    C     0.31999   0.43006   0.25000   0.00000  Uiso   1.00
C54    C     0.18002   0.06994   0.75001   0.00000  Uiso   1.00
C55    C     0.06999   0.31992   0.24997   0.00000  Uiso   1.00
C56    C     0.43002   0.18007   0.75002   0.00000  Uiso   1.00
C57    C     0.18007   0.43001   0.75002   0.00000  Uiso   1.00
C58    C     0.31991   0.07001   0.24998   0.00000  Uiso   1.00
C59    C     0.43009   0.32001   0.75000   0.00000  Uiso   1.00
C60    C     0.06993   0.18001   0.25002   0.00000  Uiso   1.00
C61    C     0.31998   0.06993   0.74998   0.00000  Uiso   1.00
C62    C     0.18001   0.43007   0.25002   0.00000  Uiso   1.00
C63    C     0.06999   0.18006   0.74999   0.00000  Uiso   1.00
C64    C     0.43001   0.31994   0.25000   0.00000  Uiso   1.00
C65    C     0.15884   0.36824   0.23078   0.00000  Uiso   1.00
C66    C     0.34146   0.13147   0.76992   0.00000  Uiso   1.00
C67    C     0.12915   0.15628   0.22571   0.00000  Uiso   1.00
C68    C     0.36776   0.34059   0.76789   0.00000  Uiso   1.00
C69    C     0.38173   0.09108   0.26911   0.00000  Uiso   1.00
C70    C     0.11930   0.40789   0.72862   0.00000  Uiso   1.00
C71    C     0.36797   0.34044   0.23250   0.00000  Uiso   1.00
C72    C     0.13241   0.15995   0.76642   0.00000  Uiso   1.00
C73    C     0.15969   0.13266   0.76698   0.00000  Uiso   1.00
C74    C     0.34069   0.36772   0.23198   0.00000  Uiso   1.00
C75    C     0.09209   0.38052   0.72892   0.00000  Uiso   1.00
C76    C     0.40907   0.11832   0.26853   0.00000  Uiso   1.00
C77    C     0.34044   0.36781   0.76726   0.00000  Uiso   1.00
C78    C     0.15630   0.12885   0.22587   0.00000  Uiso   1.00
C79    C     0.36875   0.15876   0.76943   0.00000  Uiso   1.00
C80    C     0.13157   0.34092   0.23129   0.00000  Uiso   1.00
C81    C     0.40854   0.11853   0.73008   0.00000  Uiso   1.00
C82    C     0.09116   0.38176   0.26922   0.00000  Uiso   1.00
C83    C     0.38224   0.40941   0.73211   0.00000  Uiso   1.00
C84    C     0.12085   0.09372   0.27429   0.00000  Uiso   1.00
C85    C     0.13070   0.34211   0.77138   0.00000  Uiso   1.00
C86    C     0.36827   0.15892   0.23089   0.00000  Uiso   1.00
C87    C     0.11759   0.09005   0.73358   0.00000  Uiso   1.00
C88    C     0.38202   0.40955   0.26750   0.00000  Uiso   1.00
C89    C     0.40931   0.38227   0.26802   0.00000  Uiso   1.00
C90    C     0.09031   0.11734   0.73302   0.00000  Uiso   1.00
C91    C     0.34093   0.13168   0.23147   0.00000  Uiso   1.00
C92    C     0.15791   0.36948   0.77108   0.00000  Uiso   1.00
C93    C     0.09370   0.12115   0.27413   0.00000  Uiso   1.00
C94    C     0.40956   0.38219   0.73274   0.00000  Uiso   1.00
C95    C     0.11843   0.40908   0.26870   0.00000  Uiso   1.00
C96    C     0.38125   0.09124   0.73057   0.00000  Uiso   1.00
C97    C     0.48984   0.21795   0.45891   0.00000  Uiso   1.00
C98    C     0.01198   0.28147   0.54106   0.00000  Uiso   1.00
C99    C     0.28197   0.01066   0.45892   0.00000  Uiso   1.00
C100   C     0.21871   0.48775   0.54105   0.00000  Uiso   1.00
C101   C     0.01020   0.28209   0.45893   0.00000  Uiso   1.00
C102   C     0.48811   0.21850   0.54104   0.00000  Uiso   1.00
C103   C     0.21813   0.48953   0.45894   0.00000  Uiso   1.00
C104   C     0.28135   0.01234   0.54105   0.00000  Uiso   1.00
C105   C     0.23803   0.46852   0.95894   0.00000  Uiso   1.00
C106   C     0.26015   0.03206   0.04109   0.00000  Uiso   1.00
C107   C     0.03129   0.26225   0.95895   0.00000  Uiso   1.00
C108   C     0.46803   0.23934   0.04108   0.00000  Uiso   1.00
C109   C     0.26188   0.03150   0.95896   0.00000  Uiso   1.00
C110   C     0.23981   0.46790   0.04107   0.00000  Uiso   1.00
C111   C     0.46865   0.23766   0.95895   0.00000  Uiso   1.00
C112   C     0.03187   0.26047   0.04106   0.00000  Uiso   1.00
C113   C     0.09803   0.34810   0.25024   0.00000  Uiso   1.00
C114   C     0.40198   0.15189   0.74976   0.00000  Uiso   1.00
C115   C     0.15185   0.09799   0.25015   0.00000  Uiso   1.00
C116   C     0.34808   0.40193   0.74967   0.00000  Uiso   1.00
C117   C     0.40192   0.15194   0.24971   0.00000  Uiso   1.00
C118   C     0.09813   0.34801   0.75020   0.00000  Uiso   1.00
C119   C     0.34803   0.40188   0.24973   0.00000  Uiso   1.00
C120   C     0.15197   0.09811   0.75029   0.00000  Uiso   1.00
C121   C     0.09803   0.15189   0.74971   0.00000  Uiso   1.00
C122   C     0.40197   0.34811   0.25026   0.00000  Uiso   1.00
C123   C     0.15187   0.40199   0.74980   0.00000  Uiso   1.00
C124   C     0.34808   0.09806   0.25029   0.00000  Uiso   1.00
C125   C     0.40192   0.34807   0.75033   0.00000  Uiso   1.00
C126   C     0.09815   0.15201   0.24985   0.00000  Uiso   1.00
C127   C     0.34802   0.09811   0.75024   0.00000  Uiso   1.00
C128   C     0.15197   0.40189   0.24976   0.00000  Uiso   1.00
C129   C     0.00003   0.25001   0.47941   0.00000  Uiso   1.00
C130   C     0.00004   0.24999   0.52057   0.00000  Uiso   1.00
C131   C     0.25004   0.00010   0.47942   0.00000  Uiso   1.00
C132   C     0.25003   0.00007   0.52058   0.00000  Uiso   1.00
C133   C     0.24996   0.00001   0.97943   0.00000  Uiso   1.00
C134   C     0.24997   0.49999   0.02059   0.00000  Uiso   1.00
C135   C     0.49997   0.24993   0.97942   0.00000  Uiso   1.00
C136   C     0.49996   0.24990   0.02058   0.00000  Uiso   1.00
H137   H     0.47040   0.16190   0.46542   0.00000  Uiso   1.00
H138   H     0.03037   0.33790   0.53440   0.00000  Uiso   1.00
H139   H     0.33767   0.03091   0.46547   0.00000  Uiso   1.00
H140   H     0.16252   0.46881   0.53438   0.00000  Uiso   1.00
H141   H     0.02977   0.33809   0.46551   0.00000  Uiso   1.00
H142   H     0.46977   0.16207   0.53434   0.00000  Uiso   1.00
H143   H     0.16234   0.46949   0.46547   0.00000  Uiso   1.00
H144   H     0.33749   0.03145   0.53438   0.00000  Uiso   1.00
H145   H     0.21966   0.41209   0.96560   0.00000  Uiso   1.00
H146   H     0.27957   0.08811   0.03458   0.00000  Uiso   1.00
H147   H     0.08748   0.28118   0.96562   0.00000  Uiso   1.00
H148   H     0.41232   0.21910   0.03453   0.00000  Uiso   1.00
H149   H     0.28020   0.08794   0.96566   0.00000  Uiso   1.00
H150   H     0.22025   0.41190   0.03449   0.00000  Uiso   1.00
H151   H     0.41251   0.21856   0.96562   0.00000  Uiso   1.00
H152   H     0.08766   0.28050   0.03453   0.00000  Uiso   1.00
O153   O     0.25000  -0.00000   0.25000   0.00000  Uiso   1.00
O154   O     0.25000  -0.00000   0.75000   0.00000  Uiso   1.00
O155   O     0.00000   0.25000   0.25000   0.00000  Uiso   1.00
O156   O     0.00000   0.25000   0.75000   0.00000  Uiso   1.00
O157   O     0.25000   0.46963   0.33755   0.00000  Uiso   1.00
O158   O     0.25000   0.03036   0.66245   0.00000  Uiso   1.00
O159   O     0.03037   0.25000   0.33755   0.00000  Uiso   1.00
O160   O     0.46964   0.25000   0.66245   0.00000  Uiso   1.00
O161   O     0.25000   0.03036   0.33755   0.00000  Uiso   1.00
O162   O     0.25000   0.46963   0.66245   0.00000  Uiso   1.00
O163   O     0.46964   0.25000   0.33755   0.00000  Uiso   1.00
O164   O     0.03037   0.25000   0.66245   0.00000  Uiso   1.00
O165   O     0.00000   0.21963   0.83755   0.00000  Uiso   1.00
O166   O     0.00000   0.28036   0.16245   0.00000  Uiso   1.00
O167   O     0.28037  -0.00000   0.83755   0.00000  Uiso   1.00
O168   O     0.21964  -0.00000   0.16245   0.00000  Uiso   1.00
O169   O     0.00000   0.28036   0.83755   0.00000  Uiso   1.00
O170   O     0.00000   0.21963   0.16245   0.00000  Uiso   1.00
O171   O     0.21964  -0.00000   0.83755   0.00000  Uiso   1.00
O172   O     0.28037  -0.00000   0.16245   0.00000  Uiso   1.00
O173   O     0.20725   0.07307   0.27302   0.00000  Uiso   1.00
O174   O     0.29276   0.42692   0.72698   0.00000  Uiso   1.00
O175   O     0.42693   0.20724   0.27302   0.00000  Uiso   1.00
O176   O     0.07308   0.29275   0.72698   0.00000  Uiso   1.00
O177   O     0.29276   0.42692   0.27302   0.00000  Uiso   1.00
O178   O     0.20725   0.07307   0.72698   0.00000  Uiso   1.00
O179   O     0.07308   0.29275   0.27302   0.00000  Uiso   1.00
O180   O     0.42693   0.20724   0.72698   0.00000  Uiso   1.00
O181   O     0.20725   0.42692   0.72698   0.00000  Uiso   1.00
O182   O     0.29276   0.07307   0.27302   0.00000  Uiso   1.00
O183   O     0.42693   0.29275   0.72698   0.00000  Uiso   1.00
O184   O     0.07308   0.20724   0.27302   0.00000  Uiso   1.00
O185   O     0.29276   0.07307   0.72698   0.00000  Uiso   1.00
O186   O     0.20725   0.42692   0.27302   0.00000  Uiso   1.00
O187   O     0.07308   0.20724   0.72698   0.00000  Uiso   1.00
O188   O     0.42693   0.29275   0.27302   0.00000  Uiso   1.00
O189   O     0.45725   0.32307   0.77302   0.00000  Uiso   1.00
O190   O     0.04276   0.17692   0.22698   0.00000  Uiso   1.00
O191   O     0.17693   0.45724   0.77302   0.00000  Uiso   1.00
O192   O     0.32308   0.04275   0.22698   0.00000  Uiso   1.00
O193   O     0.04276   0.17692   0.77302   0.00000  Uiso   1.00
O194   O     0.45725   0.32307   0.22698   0.00000  Uiso   1.00
O195   O     0.32308   0.04275   0.77302   0.00000  Uiso   1.00
O196   O     0.17693   0.45724   0.22698   0.00000  Uiso   1.00
O197   O     0.45725   0.17692   0.22698   0.00000  Uiso   1.00
O198   O     0.04276   0.32307   0.77302   0.00000  Uiso   1.00
O199   O     0.17693   0.04275   0.22698   0.00000  Uiso   1.00
O200   O     0.32308   0.45724   0.77302   0.00000  Uiso   1.00
O201   O     0.04276   0.32307   0.22698   0.00000  Uiso   1.00
O202   O     0.45725   0.17692   0.77302   0.00000  Uiso   1.00
O203   O     0.32308   0.45724   0.22698   0.00000  Uiso   1.00
O204   O     0.17693   0.04275   0.77302   0.00000  Uiso   1.00
Zn205  Zn    0.20660  -0.00000   0.21735   0.00000  Uiso   1.00
Zn206  Zn    0.29341  -0.00000   0.78265   0.00000  Uiso   1.00
Zn207  Zn    0.00000   0.20659   0.21735   0.00000  Uiso   1.00
Zn208  Zn    0.00000   0.29340   0.78265   0.00000  Uiso   1.00
Zn209  Zn    0.29341  -0.00000   0.21735   0.00000  Uiso   1.00
Zn210  Zn    0.20660  -0.00000   0.78265   0.00000  Uiso   1.00
Zn211  Zn    0.00000   0.29340   0.21735   0.00000  Uiso   1.00
Zn212  Zn    0.00000   0.20659   0.78265   0.00000  Uiso   1.00
Zn213  Zn    0.45660   0.25000   0.71735   0.00000  Uiso   1.00
Zn214  Zn    0.04341   0.25000   0.28265   0.00000  Uiso   1.00
Zn215  Zn    0.25000   0.45659   0.71735   0.00000  Uiso   1.00
Zn216  Zn    0.25000   0.04340   0.28265   0.00000  Uiso   1.00
Zn217  Zn    0.04341   0.25000   0.71735   0.00000  Uiso   1.00
Zn218  Zn    0.45660   0.25000   0.28265   0.00000  Uiso   1.00
Zn219  Zn    0.25000   0.04340   0.71735   0.00000  Uiso   1.00
Zn220  Zn    0.25000   0.45659   0.28265   0.00000  Uiso   1.00
C221   C     0.19466   0.36155   0.20943   0.00000  Uiso   1.00
H222   H     0.21373   0.38510   0.20975   0.00000  Uiso   1.00
H223   H     0.20930   0.33810   0.22282   0.00000  Uiso   1.00
H224   H     0.18904   0.35561   0.17840   0.00000  Uiso   1.00
C225   C     0.30593   0.13788   0.79188   0.00000  Uiso   1.00
H226   H     0.28681   0.11437   0.79140   0.00000  Uiso   1.00
H227   H     0.31196   0.14333   0.82292   0.00000  Uiso   1.00
H228   H     0.29117   0.16156   0.77912   0.00000  Uiso   1.00
C229   C     0.13342   0.18977   0.19986   0.00000  Uiso   1.00
H230   H     0.11063   0.20964   0.20192   0.00000  Uiso   1.00
H231   H     0.15870   0.20484   0.20791   0.00000  Uiso   1.00
H232   H     0.13494   0.18112   0.16900   0.00000  Uiso   1.00
C233   C     0.36052   0.30417   0.78790   0.00000  Uiso   1.00
H234   H     0.38413   0.28521   0.78799   0.00000  Uiso   1.00
H235   H     0.35350   0.30900   0.81883   0.00000  Uiso   1.00
H236   H     0.33763   0.28977   0.77320   0.00000  Uiso   1.00
C237   C     0.38840   0.05517   0.29033   0.00000  Uiso   1.00
H238   H     0.36485   0.03610   0.29005   0.00000  Uiso   1.00
H239   H     0.41177   0.04051   0.27682   0.00000  Uiso   1.00
H240   H     0.39441   0.06076   0.32136   0.00000  Uiso   1.00
C241   C     0.11351   0.44290   0.70554   0.00000  Uiso   1.00
H242   H     0.13670   0.46238   0.70679   0.00000  Uiso   1.00
H243   H     0.10950   0.43614   0.67441   0.00000  Uiso   1.00
H244   H     0.08915   0.45765   0.71678   0.00000  Uiso   1.00
C245   C     0.36192   0.30302   0.21403   0.00000  Uiso   1.00
H246   H     0.38299   0.29813   0.19139   0.00000  Uiso   1.00
H247   H     0.36415   0.28141   0.23654   0.00000  Uiso   1.00
H248   H     0.33498   0.29939   0.20000   0.00000  Uiso   1.00
C249   C     0.13888   0.19776   0.78383   0.00000  Uiso   1.00
H250   H     0.11822   0.20321   0.80677   0.00000  Uiso   1.00
H251   H     0.16607   0.20164   0.79724   0.00000  Uiso   1.00
H252   H     0.13632   0.21890   0.76086   0.00000  Uiso   1.00
C253   C     0.19641   0.14035   0.78609   0.00000  Uiso   1.00
H254   H     0.21545   0.11679   0.78619   0.00000  Uiso   1.00
H255   H     0.21043   0.16308   0.77070   0.00000  Uiso   1.00
H256   H     0.19215   0.14782   0.81700   0.00000  Uiso   1.00
C257   C     0.30436   0.36045   0.21189   0.00000  Uiso   1.00
H258   H     0.28528   0.38397   0.21206   0.00000  Uiso   1.00
H259   H     0.30922   0.35373   0.18088   0.00000  Uiso   1.00
H260   H     0.29009   0.33734   0.22636   0.00000  Uiso   1.00
C261   C     0.05636   0.38497   0.70681   0.00000  Uiso   1.00
H262   H     0.03319   0.38418   0.72757   0.00000  Uiso   1.00
H263   H     0.05387   0.41077   0.69027   0.00000  Uiso   1.00
H264   H     0.05326   0.36219   0.68573   0.00000  Uiso   1.00
C265   C     0.44606   0.11254   0.28785   0.00000  Uiso   1.00
H266   H     0.46799   0.11422   0.26564   0.00000  Uiso   1.00
H267   H     0.45066   0.13413   0.31001   0.00000  Uiso   1.00
H268   H     0.44932   0.08589   0.30263   0.00000  Uiso   1.00
C269   C     0.30292   0.36148   0.78521   0.00000  Uiso   1.00
H270   H     0.29750   0.38262   0.80768   0.00000  Uiso   1.00
H271   H     0.28177   0.36344   0.76225   0.00000  Uiso   1.00
H272   H     0.29930   0.33453   0.79927   0.00000  Uiso   1.00
C273   C     0.19030   0.13150   0.20050   0.00000  Uiso   1.00
H274   H     0.19148   0.10759   0.18060   0.00000  Uiso   1.00
H275   H     0.19180   0.15633   0.18224   0.00000  Uiso   1.00
H276   H     0.21505   0.13144   0.21913   0.00000  Uiso   1.00
C277   C     0.36347   0.19541   0.78976   0.00000  Uiso   1.00
H278   H     0.38536   0.19936   0.81169   0.00000  Uiso   1.00
H279   H     0.36503   0.21786   0.76811   0.00000  Uiso   1.00
H280   H     0.33706   0.19852   0.80503   0.00000  Uiso   1.00
C281   C     0.13717   0.30397   0.21164   0.00000  Uiso   1.00
H282   H     0.11567   0.29972   0.18934   0.00000  Uiso   1.00
H283   H     0.16384   0.30065   0.19693   0.00000  Uiso   1.00
H284   H     0.13523   0.28177   0.23355   0.00000  Uiso   1.00
C285   C     0.44407   0.11212   0.70812   0.00000  Uiso   1.00
H286   H     0.46318   0.13564   0.70860   0.00000  Uiso   1.00
H287   H     0.45883   0.08845   0.72088   0.00000  Uiso   1.00
H288   H     0.43804   0.10667   0.67707   0.00000  Uiso   1.00
C289   C     0.05534   0.38845   0.29057   0.00000  Uiso   1.00
H290   H     0.03627   0.36490   0.29025   0.00000  Uiso   1.00
H291   H     0.06097   0.39439   0.32160   0.00000  Uiso   1.00
H292   H     0.04070   0.41190   0.27718   0.00000  Uiso   1.00
C293   C     0.38948   0.44583   0.71210   0.00000  Uiso   1.00
H294   H     0.36587   0.46479   0.71201   0.00000  Uiso   1.00
H295   H     0.41237   0.46023   0.72680   0.00000  Uiso   1.00
H296   H     0.39650   0.44100   0.68116   0.00000  Uiso   1.00
C297   C     0.11658   0.06023   0.30014   0.00000  Uiso   1.00
H298   H     0.13937   0.04035   0.29808   0.00000  Uiso   1.00
H299   H     0.11506   0.06888   0.33100   0.00000  Uiso   1.00
H300   H     0.09130   0.04516   0.29209   0.00000  Uiso   1.00
C301   C     0.13649   0.30710   0.79446   0.00000  Uiso   1.00
H302   H     0.11330   0.28762   0.79321   0.00000  Uiso   1.00
H303   H     0.16085   0.29235   0.78321   0.00000  Uiso   1.00
H304   H     0.14050   0.31386   0.82558   0.00000  Uiso   1.00
C305   C     0.36160   0.19483   0.20967   0.00000  Uiso   1.00
H306   H     0.38515   0.21390   0.20995   0.00000  Uiso   1.00
H307   H     0.35559   0.18924   0.17864   0.00000  Uiso   1.00
H308   H     0.33823   0.20949   0.22317   0.00000  Uiso   1.00
C309   C     0.11112   0.05224   0.71617   0.00000  Uiso   1.00
H310   H     0.13178   0.04680   0.69323   0.00000  Uiso   1.00
H311   H     0.11369   0.03110   0.73914   0.00000  Uiso   1.00
H312   H     0.08394   0.04836   0.70276   0.00000  Uiso   1.00
C313   C     0.38808   0.44697   0.28597   0.00000  Uiso   1.00
H314   H     0.36700   0.45187   0.30862   0.00000  Uiso   1.00
H315   H     0.41502   0.45061   0.30001   0.00000  Uiso   1.00
H316   H     0.38585   0.46859   0.26346   0.00000  Uiso   1.00
C317   C     0.44564   0.38955   0.28811   0.00000  Uiso   1.00
H318   H     0.46472   0.36603   0.28794   0.00000  Uiso   1.00
H319   H     0.45991   0.41266   0.27364   0.00000  Uiso   1.00
H320   H     0.44078   0.39627   0.31912   0.00000  Uiso   1.00
C321   C     0.05359   0.10965   0.71391   0.00000  Uiso   1.00
H322   H     0.03455   0.13321   0.71381   0.00000  Uiso   1.00
H323   H     0.05785   0.10218   0.68300   0.00000  Uiso   1.00
H324   H     0.03957   0.08692   0.72930   0.00000  Uiso   1.00
C325   C     0.30394   0.13746   0.21215   0.00000  Uiso   1.00
H326   H     0.28201   0.13579   0.23437   0.00000  Uiso   1.00
H327   H     0.30068   0.16411   0.19737   0.00000  Uiso   1.00
H328   H     0.29933   0.11587   0.18999   0.00000  Uiso   1.00
C329   C     0.19364   0.36503   0.79319   0.00000  Uiso   1.00
H330   H     0.21681   0.36581   0.77243   0.00000  Uiso   1.00
H331   H     0.19675   0.38781   0.81427   0.00000  Uiso   1.00
H332   H     0.19613   0.33923   0.80973   0.00000  Uiso   1.00
C333   C     0.05970   0.11850   0.29950   0.00000  Uiso   1.00
H334   H     0.05852   0.14241   0.31939   0.00000  Uiso   1.00
H335   H     0.03495   0.11856   0.28087   0.00000  Uiso   1.00
H336   H     0.05820   0.09366   0.31776   0.00000  Uiso   1.00
C337   C     0.44708   0.38852   0.71479   0.00000  Uiso   1.00
H338   H     0.45250   0.36738   0.69232   0.00000  Uiso   1.00
H339   H     0.45070   0.41547   0.70073   0.00000  Uiso   1.00
H340   H     0.46823   0.38655   0.73775   0.00000  Uiso   1.00
C341   C     0.11283   0.44603   0.28835   0.00000  Uiso   1.00
H342   H     0.13433   0.45029   0.31065   0.00000  Uiso   1.00
H343   H     0.11477   0.46823   0.26644   0.00000  Uiso   1.00
H344   H     0.08616   0.44936   0.30306   0.00000  Uiso   1.00
C345   C     0.38653   0.05459   0.71024   0.00000  Uiso   1.00
H346   H     0.36464   0.05064   0.68831   0.00000  Uiso   1.00
H347   H     0.41295   0.05148   0.69498   0.00000  Uiso   1.00
H348   H     0.38497   0.03214   0.73189   0.00000  Uiso   1.00
C349   C     0.01754   0.31644   0.39602   0.00000  Uiso   1.00
O350   O     0.04367   0.31771   0.37388   0.00000  Uiso   1.00
O351   O     0.49505   0.34706   0.40082   0.00000  Uiso   1.00
H352   H     0.00308   0.36854   0.38424   0.00000  Uiso   1.00
C353   C     0.47319   0.18676   0.60414   0.00000  Uiso   1.00
O354   O     0.49256   0.17191   0.62841   0.00000  Uiso   1.00
O355   O     0.43764   0.17405   0.59758   0.00000  Uiso   1.00
H356   H     0.43117   0.15232   0.61457   0.00000  Uiso   1.00
C357   C     0.18407   0.48138   0.39605   0.00000  Uiso   1.00
O358   O     0.18303   0.45454   0.37487   0.00000  Uiso   1.00
O359   O     0.15342   0.00399   0.39982   0.00000  Uiso   1.00
H360   H     0.13210   0.49543   0.38331   0.00000  Uiso   1.00
C361   C     0.31299   0.02726   0.60417   0.00000  Uiso   1.00
O362   O     0.32811   0.00775   0.62813   0.00000  Uiso   1.00
O363   O     0.32536   0.06302   0.59793   0.00000  Uiso   1.00
H364   H     0.34711   0.06951   0.61483   0.00000  Uiso   1.00
C365   C     0.48214   0.18375   0.39597   0.00000  Uiso   1.00
O366   O     0.45551   0.18249   0.37456   0.00000  Uiso   1.00
O367   O     0.00491   0.15324   0.39994   0.00000  Uiso   1.00
H368   H     0.49665   0.13182   0.38338   0.00000  Uiso   1.00
C369   C     0.02686   0.31323   0.60413   0.00000  Uiso   1.00
O370   O     0.00740   0.32818   0.62829   0.00000  Uiso   1.00
O371   O     0.06241   0.32593   0.59756   0.00000  Uiso   1.00
H372   H     0.06879   0.34785   0.61430   0.00000  Uiso   1.00
C373   C     0.31619   0.01843   0.39599   0.00000  Uiso   1.00
O374   O     0.31720   0.04467   0.37399   0.00000  Uiso   1.00
O375   O     0.34700   0.49619   0.40064   0.00000  Uiso   1.00
H376   H     0.36838   0.00449   0.38407   0.00000  Uiso   1.00
C377   C     0.18722   0.47226   0.60412   0.00000  Uiso   1.00
O378   O     0.17210   0.49138   0.62847   0.00000  Uiso   1.00
O379   O     0.17502   0.43652   0.59741   0.00000  Uiso   1.00
H380   H     0.15338   0.42969   0.61435   0.00000  Uiso   1.00
C381   C     0.27680   0.06324   0.89585   0.00000  Uiso   1.00
O382   O     0.25742   0.07809   0.87159   0.00000  Uiso   1.00
O383   O     0.31234   0.07597   0.90242   0.00000  Uiso   1.00
H384   H     0.31880   0.09769   0.88543   0.00000  Uiso   1.00
C385   C     0.23248   0.43355   0.10398   0.00000  Uiso   1.00
O386   O     0.20637   0.43228   0.12613   0.00000  Uiso   1.00
O387   O     0.25499   0.40294   0.09917   0.00000  Uiso   1.00
H388   H     0.24697   0.38145   0.11576   0.00000  Uiso   1.00
C389   C     0.43700   0.22274   0.89583   0.00000  Uiso   1.00
O390   O     0.42189   0.24226   0.87187   0.00000  Uiso   1.00
O391   O     0.42464   0.18699   0.90207   0.00000  Uiso   1.00
H392   H     0.40288   0.18051   0.88516   0.00000  Uiso   1.00
C393   C     0.06593   0.26861   0.10395   0.00000  Uiso   1.00
O394   O     0.06697   0.29546   0.12513   0.00000  Uiso   1.00
O395   O     0.09658   0.24601   0.10019   0.00000  Uiso   1.00
H396   H     0.11789   0.25456   0.11669   0.00000  Uiso   1.00
C397   C     0.22316   0.43676   0.89587   0.00000  Uiso   1.00
O398   O     0.24262   0.42182   0.87171   0.00000  Uiso   1.00
O399   O     0.18761   0.42406   0.90244   0.00000  Uiso   1.00
H400   H     0.18123   0.40213   0.88570   0.00000  Uiso   1.00
C401   C     0.26783   0.06626   0.10403   0.00000  Uiso   1.00
O402   O     0.29445   0.06753   0.12545   0.00000  Uiso   1.00
O403   O     0.24506   0.09676   0.10005   0.00000  Uiso   1.00
H404   H     0.25330   0.11819   0.11661   0.00000  Uiso   1.00
C405   C     0.06279   0.27774   0.89588   0.00000  Uiso   1.00
O406   O     0.07790   0.25861   0.87153   0.00000  Uiso   1.00
O407   O     0.07499   0.31347   0.90259   0.00000  Uiso   1.00
H408   H     0.09662   0.32030   0.88565   0.00000  Uiso   1.00
C409   C     0.43381   0.23157   0.10401   0.00000  Uiso   1.00
O410   O     0.43280   0.20533   0.12600   0.00000  Uiso   1.00
O411   O     0.40301   0.25381   0.09937   0.00000  Uiso   1.00
H412   H     0.38163   0.24551   0.11594   0.00000  Uiso   1.00
C413   C     0.50955   0.28230   0.41803   0.00000  Uiso   1.00
C414   C     0.98719   0.21886   0.58195   0.00000  Uiso   1.00
C415   C     0.71797   0.49009   0.41806   0.00000  Uiso   1.00
C416   C     0.78099   0.01316   0.58196   0.00000  Uiso   1.00
C417   C     0.99041   0.21779   0.41802   0.00000  Uiso   1.00
C418   C     0.51289   0.28111   0.58196   0.00000  Uiso   1.00
C419   C     0.78218   0.01003   0.41802   0.00000  Uiso   1.00
C420   C     0.71908   0.48677   0.58195   0.00000  Uiso   1.00
C421   C     0.76280   0.03114   0.91804   0.00000  Uiso   1.00
C422   C     0.74047   0.46770   0.08197   0.00000  Uiso   1.00
C423   C     0.96901   0.23685   0.91804   0.00000  Uiso   1.00
C424   C     0.53203   0.25991   0.08194   0.00000  Uiso   1.00
C425   C     0.73712   0.46888   0.91804   0.00000  Uiso   1.00
C426   C     0.75958   0.03221   0.08198   0.00000  Uiso   1.00
C427   C     0.53092   0.26322   0.91805   0.00000  Uiso   1.00
C428   C     0.96783   0.23997   0.08198   0.00000  Uiso   1.00
C429   C     0.99998   0.25004   0.39798   0.00000  Uiso   1.00
C430   C     0.50003   0.24999   0.60198   0.00000  Uiso   1.00
C431   C     0.75007   0.00005   0.39800   0.00000  Uiso   1.00
C432   C     0.75002   0.49997   0.60198   0.00000  Uiso   1.00
C433   C     0.74997   0.00001   0.89802   0.00000  Uiso   1.00
C434   C     0.75002   0.49996   0.10201   0.00000  Uiso   1.00
C435   C     0.99998   0.25003   0.89802   0.00000  Uiso   1.00
C436   C     0.99993   0.24995   0.10200   0.00000  Uiso   1.00
C437   C     0.97886   0.18682   0.47984   0.00000  Uiso   1.00
C438   C     0.52209   0.31289   0.52008   0.00000  Uiso   1.00
C439   C     0.81290   0.02207   0.47987   0.00000  Uiso   1.00
C440   C     0.68743   0.47733   0.52006   0.00000  Uiso   1.00
C441   C     0.52124   0.31318   0.47989   0.00000  Uiso   1.00
C442   C     0.97802   0.18709   0.52003   0.00000  Uiso   1.00
C443   C     0.68715   0.47821   0.47988   0.00000  Uiso   1.00
C444   C     0.81260   0.02287   0.52006   0.00000  Uiso   1.00
C445   C     0.72793   0.43711   0.97992   0.00000  Uiso   1.00
C446   C     0.77112   0.06319   0.02016   0.00000  Uiso   1.00
C447   C     0.56257   0.27266   0.97994   0.00000  Uiso   1.00
C448   C     0.93710   0.22794   0.02013   0.00000  Uiso   1.00
C449   C     0.77196   0.06292   0.97996   0.00000  Uiso   1.00
C450   C     0.72878   0.43681   0.02011   0.00000  Uiso   1.00
C451   C     0.93740   0.22714   0.97994   0.00000  Uiso   1.00
C452   C     0.56285   0.27179   0.02012   0.00000  Uiso   1.00
C453   C     0.75004   0.00001   0.35573   0.00000  Uiso   1.00
C454   C     0.75000   0.49999   0.64426   0.00000  Uiso   1.00
C455   C     0.99999   0.25002   0.35572   0.00000  Uiso   1.00
C456   C     0.50001   0.25001   0.64427   0.00000  Uiso   1.00
C457   C     0.50000   0.25001   0.85574   0.00000  Uiso   1.00
C458   C     0.99996   0.24999   0.14426   0.00000  Uiso   1.00
C459   C     0.74999   0.49999   0.85573   0.00000  Uiso   1.00
C460   C     0.75001   0.49998   0.14428   0.00000  Uiso   1.00
C461   C     0.68007   0.06999   0.24998   0.00000  Uiso   1.00
C462   C     0.81991   0.42999   0.75000   0.00000  Uiso   1.00
C463   C     0.93009   0.17999   0.25001   0.00000  Uiso   1.00
C464   C     0.56993   0.31999   0.74998   0.00000  Uiso   1.00
C465   C     0.81999   0.43006   0.25000   0.00000  Uiso   1.00
C466   C     0.68002   0.06994   0.75001   0.00000  Uiso   1.00
C467   C     0.56999   0.31992   0.24997   0.00000  Uiso   1.00
C468   C     0.93002   0.18007   0.75002   0.00000  Uiso   1.00
C469   C     0.68007   0.43001   0.75002   0.00000  Uiso   1.00
C470   C     0.81991   0.07001   0.24998   0.00000  Uiso   1.00
C471   C     0.93009   0.32001   0.75000   0.00000  Uiso   1.00
C472   C     0.56993   0.18001   0.25002   0.00000  Uiso   1.00
C473   C     0.81998   0.06993   0.74998   0.00000  Uiso   1.00
C474   C     0.68001   0.43007   0.25002   0.00000  Uiso   1.00
C475   C     0.56999   0.18006   0.74999   0.00000  Uiso   1.00
C476   C     0.93001   0.31994   0.25000   0.00000  Uiso   1.00
C477   C     0.65884   0.36824   0.23078   0.00000  Uiso   1.00
C478   C     0.84146   0.13147   0.76992   0.00000  Uiso   1.00
C479   C     0.62915   0.15628   0.22571   0.00000  Uiso   1.00
C480   C     0.86776   0.34059   0.76789   0.00000  Uiso   1.00
C481   C     0.88173   0.09108   0.26911   0.00000  Uiso   1.00
C482   C     0.61930   0.40789   0.72862   0.00000  Uiso   1.00
C483   C     0.86797   0.34044   0.23250   0.00000  Uiso   1.00
C484   C     0.63241   0.15995   0.76642   0.00000  Uiso   1.00
C485   C     0.65969   0.13266   0.76698   0.00000  Uiso   1.00
C486   C     0.84069   0.36772   0.23198   0.00000  Uiso   1.00
C487   C     0.59209   0.38052   0.72892   0.00000  Uiso   1.00
C488   C     0.90907   0.11832   0.26853   0.00000  Uiso   1.00
C489   C     0.84044   0.36781   0.76726   0.00000  Uiso   1.00
C490   C     0.65630   0.12885   0.22587   0.00000  Uiso   1.00
C491   C     0.86875   0.15876   0.76943   0.00000  Uiso   1.00
C492   C     0.63157   0.34092   0.23129   0.00000  Uiso   1.00
C493   C     0.90854   0.11853   0.73008   0.00000  Uiso   1.00
C494   C     0.59116   0.38176   0.26922   0.00000  Uiso   1.00
C495   C     0.88224   0.40941   0.73211   0.00000  Uiso   1.00
C496   C     0.62085   0.09372   0.27429   0.00000  Uiso   1.00
C497   C     0.63070   0.34211   0.77138   0.00000  Uiso   1.00
C498   C     0.86827   0.15892   0.23089   0.00000  Uiso   1.00
C499   C     0.61759   0.09005   0.73358   0.00000  Uiso   1.00
C500   C     0.88202   0.40955   0.26750   0.00000  Uiso   1.00
C501   C     0.90931   0.38227   0.26802   0.00000  Uiso   1.00
C502   C     0.59031   0.11734   0.73302   0.00000  Uiso   1.00
C503   C     0.84093   0.13168   0.23147   0.00000  Uiso   1.00
C504   C     0.65791   0.36948   0.77108   0.00000  Uiso   1.00
C505   C     0.59370   0.12115   0.27413   0.00000  Uiso   1.00
C506   C     0.90956   0.38219   0.73274   0.00000  Uiso   1.00
C507   C     0.61843   0.40908   0.26870   0.00000  Uiso   1.00
C508   C     0.88125   0.09124   0.73057   0.00000  Uiso   1.00
C509   C     0.98984   0.21795   0.45891   0.00000  Uiso   1.00
C510   C     0.51198   0.28147   0.54106   0.00000  Uiso   1.00
C511   C     0.78197   0.01066   0.45892   0.00000  Uiso   1.00
C512   C     0.71871   0.48775   0.54105   0.00000  Uiso   1.00
C513   C     0.51020   0.28209   0.45893   0.00000  Uiso   1.00
C514   C     0.98811   0.21850   0.54104   0.00000  Uiso   1.00
C515   C     0.71813   0.48953   0.45894   0.00000  Uiso   1.00
C516   C     0.78135   0.01234   0.54105   0.00000  Uiso   1.00
C517   C     0.73803   0.46852   0.95894   0.00000  Uiso   1.00
C518   C     0.76015   0.03206   0.04109   0.00000  Uiso   1.00
C519   C     0.53129   0.26225   0.95895   0.00000  Uiso   1.00
C520   C     0.96803   0.23934   0.04108   0.00000  Uiso   1.00
C521   C     0.76188   0.03150   0.95896   0.00000  Uiso   1.00
C522   C     0.73981   0.46790   0.04107   0.00000  Uiso   1.00
C523   C     0.96865   0.23766   0.95895   0.00000  Uiso   1.00
C524   C     0.53187   0.26047   0.04106   0.00000  Uiso   1.00
C525   C     0.59803   0.34810   0.25024   0.00000  Uiso   1.00
C526   C     0.90198   0.15189   0.74976   0.00000  Uiso   1.00
C527   C     0.65185   0.09799   0.25015   0.00000  Uiso   1.00
C528   C     0.84808   0.40193   0.74967   0.00000  Uiso   1.00
C529   C     0.90192   0.15194   0.24971   0.00000  Uiso   1.00
C530   C     0.59813   0.34801   0.75020   0.00000  Uiso   1.00
C531   C     0.84803   0.40188   0.24973   0.00000  Uiso   1.00
C532   C     0.65197   0.09811   0.75029   0.00000  Uiso   1.00
C533   C     0.59803   0.15189   0.74971   0.00000  Uiso   1.00
C534   C     0.90197   0.34811   0.25026   0.00000  Uiso   1.00
C535   C     0.65187   0.40199   0.74980   0.00000  Uiso   1.00
C536   C     0.84808   0.09806   0.25029   0.00000  Uiso   1.00
C537   C     0.90192   0.34807   0.75033   0.00000  Uiso   1.00
C538   C     0.59815   0.15201   0.24985   0.00000  Uiso   1.00
C539   C     0.84802   0.09811   0.75024   0.00000  Uiso   1.00
C540   C     0.65197   0.40189   0.24976   0.00000  Uiso   1.00
C541   C     0.50003   0.25001   0.47941   0.00000  Uiso   1.00
C542   C     0.50004   0.24999   0.52057   0.00000  Uiso   1.00
C543   C     0.75004   0.00010   0.47942   0.00000  Uiso   1.00
C544   C     0.75003   0.00007   0.52058   0.00000  Uiso   1.00
C545   C     0.74996   0.00001   0.97943   0.00000  Uiso   1.00
C546   C     0.74997   0.49999   0.02059   0.00000  Uiso   1.00
C547   C     0.99997   0.24993   0.97942   0.00000  Uiso   1.00
C548   C     0.99996   0.24990   0.02058   0.00000  Uiso   1.00
H549   H     0.97040   0.16190   0.46542   0.00000  Uiso   1.00
H550   H     0.53037   0.33790   0.53440   0.00000  Uiso   1.00
H551   H     0.83767   0.03091   0.46547   0.00000  Uiso   1.00
H552   H     0.66252   0.46881   0.53438   0.00000  Uiso   1.00
H553   H     0.52977   0.33809   0.46551   0.00000  Uiso   1.00
H554   H     0.96977   0.16207   0.53434   0.00000  Uiso   1.00
H555   H     0.66234   0.46949   0.46547   0.00000  Uiso   1.00
H556   H     0.83749   0.03145   0.53438   0.00000  Uiso   1.00
H557   H     0.71966   0.41209   0.96560   0.00000  Uiso   1.00
H558   H     0.77957   0.08811   0.03458   0.00000  Uiso   1.00
H559   H     0.58748   0.28118   0.96562   0.00000  Uiso   1.00
H560   H     0.91232   0.21910   0.03453   0.00000  Uiso   1.00
H561   H     0.78020   0.08794   0.96566   0.00000  Uiso   1.00
H562   H     0.72025   0.41190   0.03449   0.00000  Uiso   1.00
H563   H     0.91251   0.21856   0.96562   0.00000  Uiso   1.00
H564   H     0.58766   0.28050   0.03453   0.00000  Uiso   1.00
O565   O     0.75000  -0.00000   0.25000   0.00000  Uiso   1.00
O566   O     0.75000  -0.00000   0.75000   0.00000  Uiso   1.00
O567   O     0.50000   0.25000   0.25000   0.00000  Uiso   1.00
O568   O     0.50000   0.25000   0.75000   0.00000  Uiso   1.00
O569   O     0.75000   0.46963   0.33755   0.00000  Uiso   1.00
O570   O     0.75000   0.03036   0.66245   0.00000  Uiso   1.00
O571   O     0.53037   0.25000   0.33755   0.00000  Uiso   1.00
O572   O     0.96964   0.25000   0.66245   0.00000  Uiso   1.00
O573   O     0.75000   0.03036   0.33755   0.00000  Uiso   1.00
O574   O     0.75000   0.46963   0.66245   0.00000  Uiso   1.00
O575   O     0.96964   0.25000   0.33755   0.00000  Uiso   1.00
O576   O     0.53037   0.25000   0.66245   0.00000  Uiso   1.00
O577   O     0.50000   0.21963   0.83755   0.00000  Uiso   1.00
O578   O     0.50000   0.28036   0.16245   0.00000  Uiso   1.00
O579   O     0.78037  -0.00000   0.83755   0.00000  Uiso   1.00
O580   O     0.71964  -0.00000   0.16245   0.00000  Uiso   1.00
O581   O     0.50000   0.28036   0.83755   0.00000  Uiso   1.00
O582   O     0.50000   0.21963   0.16245   0.00000  Uiso   1.00
O583   O     0.71964  -0.00000   0.83755   0.00000  Uiso   1.00
O584   O     0.78037  -0.00000   0.16245   0.00000  Uiso   1.00
O585   O     0.70725   0.07307   0.27302   0.00000  Uiso   1.00
O586   O     0.79276   0.42692   0.72698   0.00000  Uiso   1.00
O587   O     0.92693   0.20724   0.27302   0.00000  Uiso   1.00
O588   O     0.57308   0.29275   0.72698   0.00000  Uiso   1.00
O589   O     0.79276   0.42692   0.27302   0.00000  Uiso   1.00
O590   O     0.70725   0.07307   0.72698   0.00000  Uiso   1.00
O591   O     0.57308   0.29275   0.27302   0.00000  Uiso   1.00
O592   O     0.92693   0.20724   0.72698   0.00000  Uiso   1.00
O593   O     0.70725   0.42692   0.72698   0.00000  Uiso   1.00
O594   O     0.79276   0.07307   0.27302   0.00000  Uiso   1.00
O595   O     0.92693   0.29275   0.72698   0.00000  Uiso   1.00
O596   O     0.57308   0.20724   0.27302   0.00000  Uiso   1.00
O597   O     0.79276   0.07307   0.72698   0.00000  Uiso   1.00
O598   O     0.70725   0.42692   0.27302   0.00000  Uiso   1.00
O599   O     0.57308   0.20724   0.72698   0.00000  Uiso   1.00
O600   O     0.92693   0.29275   0.27302   0.00000  Uiso   1.00
O601   O     0.95725   0.32307   0.77302   0.00000  Uiso   1.00
O602   O     0.54276   0.17692   0.22698   0.00000  Uiso   1.00
O603   O     0.67693   0.45724   0.77302   0.00000  Uiso   1.00
O604   O     0.82308   0.04275   0.22698   0.00000  Uiso   1.00
O605   O     0.54276   0.17692   0.77302   0.00000  Uiso   1.00
O606   O     0.95725   0.32307   0.22698   0.00000  Uiso   1.00
O607   O     0.82308   0.04275   0.77302   0.00000  Uiso   1.00
O608   O     0.67693   0.45724   0.22698   0.00000  Uiso   1.00
O609   O     0.95725   0.17692   0.22698   0.00000  Uiso   1.00
O610   O     0.54276   0.32307   0.77302   0.00000  Uiso   1.00
O611   O     0.67693   0.04275   0.22698   0.00000  Uiso   1.00
O612   O     0.82308   0.45724   0.77302   0.00000  Uiso   1.00
O613   O     0.54276   0.32307   0.22698   0.00000  Uiso   1.00
O614   O     0.95725   0.17692   0.77302   0.00000  Uiso   1.00
O615   O     0.82308   0.45724   0.22698   0.00000  Uiso   1.00
O616   O     0.67693   0.04275   0.77302   0.00000  Uiso   1.00
Zn617  Zn    0.70660  -0.00000   0.21735   0.00000  Uiso   1.00
Zn618  Zn    0.79341  -0.00000   0.78265   0.00000  Uiso   1.00
Zn619  Zn    0.50000   0.20659   0.21735   0.00000  Uiso   1.00
Zn620  Zn    0.50000   0.29340   0.78265   0.00000  Uiso   1.00
Zn621  Zn    0.79341  -0.00000   0.21735   0.00000  Uiso   1.00
Zn622  Zn    0.70660  -0.00000   0.78265   0.00000  Uiso   1.00
Zn623  Zn    0.50000   0.29340   0.21735   0.00000  Uiso   1.00
Zn624  Zn    0.50000   0.20659   0.78265   0.00000  Uiso   1.00
Zn625  Zn    0.95660   0.25000   0.71735   0.00000  Uiso   1.00
Zn626  Zn    0.54341   0.25000   0.28265   0.00000  Uiso   1.00
Zn627  Zn    0.75000   0.45659   0.71735   0.00000  Uiso   1.00
Zn628  Zn    0.75000   0.04340   0.28265   0.00000  Uiso   1.00
Zn629  Zn    0.54341   0.25000   0.71735   0.00000  Uiso   1.00
Zn630  Zn    0.95660   0.25000   0.28265   0.00000  Uiso   1.00
Zn631  Zn    0.75000   0.04340   0.71735   0.00000  Uiso   1.00
Zn632  Zn    0.75000   0.45659   0.28265   0.00000  Uiso   1.00
C633   C     0.69466   0.36155   0.20943   0.00000  Uiso   1.00
H634   H     0.71373   0.38510   0.20975   0.00000  Uiso   1.00
H635   H     0.70930   0.33810   0.22282   0.00000  Uiso   1.00
H636   H     0.68904   0.35561   0.17840   0.00000  Uiso   1.00
C637   C     0.80593   0.13788   0.79188   0.00000  Uiso   1.00
H638   H     0.78681   0.11437   0.79140   0.00000  Uiso   1.00
H639   H     0.81196   0.14333   0.82292   0.00000  Uiso   1.00
H640   H     0.79117   0.16156   0.77912   0.00000  Uiso   1.00
C641   C     0.63342   0.18977   0.19986   0.00000  Uiso   1.00
H642   H     0.61063   0.20964   0.20192   0.00000  Uiso   1.00
H643   H     0.65870   0.20484   0.20791   0.00000  Uiso   1.00
H644   H     0.63494   0.18112   0.16900   0.00000  Uiso   1.00
C645   C     0.86052   0.30417   0.78790   0.00000  Uiso   1.00
H646   H     0.88413   0.28521   0.78799   0.00000  Uiso   1.00
H647   H     0.85350   0.30900   0.81883   0.00000  Uiso   1.00
H648   H     0.83763   0.28977   0.77320   0.00000  Uiso   1.00
C649   C     0.88840   0.05517   0.29033   0.00000  Uiso   1.00
H650   H     0.86485   0.03610   0.29005   0.00000  Uiso   1.00
H651   H     0.91177   0.04051   0.27682   0.00000  Uiso   1.00
H652   H     0.89441   0.06076   0.32136   0.00000  Uiso   1.00
C653   C     0.61351   0.44290   0.70554   0.00000  Uiso   1.00
H654   H     0.63670   0.46238   0.70679   0.00000  Uiso   1.00
H655   H     0.60950   0.43614   0.67441   0.00000  Uiso   1.00
H656   H     0.58915   0.45765   0.71678   0.00000  Uiso   1.00
C657   C     0.86192   0.30302   0.21403   0.00000  Uiso   1.00
H658   H     0.88299   0.29813   0.19139   0.00000  Uiso   1.00
H659   H     0.86415   0.28141   0.23654   0.00000  Uiso   1.00
H660   H     0.83498   0.29939   0.20000   0.00000  Uiso   1.00
C661   C     0.63888   0.19776   0.78383   0.00000  Uiso   1.00
H662   H     0.61822   0.20321   0.80677   0.00000  Uiso   1.00
H663   H     0.66607   0.20164   0.79724   0.00000  Uiso   1.00
H664   H     0.63632   0.21890   0.76086   0.00000  Uiso   1.00
C665   C     0.69641   0.14035   0.78609   0.00000  Uiso   1.00
H666   H     0.71545   0.11679   0.78619   0.00000  Uiso   1.00
H667   H     0.71043   0.16308   0.77070   0.00000  Uiso   1.00
H668   H     0.69215   0.14782   0.81700   0.00000  Uiso   1.00
C669   C     0.80436   0.36045   0.21189   0.00000  Uiso   1.00
H670   H     0.78528   0.38397   0.21206   0.00000  Uiso   1.00
H671   H     0.80922   0.35373   0.18088   0.00000  Uiso   1.00
H672   H     0.79009   0.33734   0.22636   0.00000  Uiso   1.00
C673   C     0.55636   0.38497   0.70681   0.00000  Uiso   1.00
H674   H     0.53319   0.38418   0.72757   0.00000  Uiso   1.00
H675   H     0.55387   0.41077   0.69027   0.00000  Uiso   1.00
H676   H     0.55326   0.36219   0.68573   0.00000  Uiso   1.00
C677   C     0.94606   0.11254   0.28785   0.00000  Uiso   1.00
H678   H     0.96799   0.11422   0.26564   0.00000  Uiso   1.00
H679   H     0.95066   0.13413   0.31001   0.00000  Uiso   1.00
H680   H     0.94932   0.08589   0.30263   0.00000  Uiso   1.00
C681   C     0.80292   0.36148   0.78521   0.00000  Uiso   1.00
H682   H     0.79750   0.38262   0.80768   0.00000  Uiso   1.00
H683   H     0.78177   0.36344   0.76225   0.00000  Uiso   1.00
H684   H     0.79930   0.33453   0.79927   0.00000  Uiso   1.00
C685   C     0.69030   0.13150   0.20050   0.00000  Uiso   1.00
H686   H     0.69148   0.10759   0.18060   0.00000  Uiso   1.00
H687   H     0.69180   0.15633   0.18224   0.00000  Uiso   1.00
H688   H     0.71505   0.13144   0.21913   0.00000  Uiso   1.00
C689   C     0.86347   0.19541   0.78976   0.00000  Uiso   1.00
H690   H     0.88536   0.19936   0.81169   0.00000  Uiso   1.00
H691   H     0.86503   0.21786   0.76811   0.00000  Uiso   1.00
H692   H     0.83706   0.19852   0.80503   0.00000  Uiso   1.00
C693   C     0.63717   0.30397   0.21164   0.00000  Uiso   1.00
H694   H     0.61567   0.29972   0.18934   0.00000  Uiso   1.00
H695   H     0.66384   0.30065   0.19693   0.00000  Uiso   1.00
H696   H     0.63523   0.28177   0.23355   0.00000  Uiso   1.00
C697   C     0.94407   0.11212   0.70812   0.00000  Uiso   1.00
H698   H     0.96318   0.13564   0.70860   0.00000  Uiso   1.00
H699   H     0.95883   0.08845   0.72088   0.00000  Uiso   1.00
H700   H     0.93804   0.10667   0.67707   0.00000  Uiso   1.00
C701   C     0.55534   0.38845   0.29057   0.00000  Uiso   1.00
H702   H     0.53627   0.36490   0.29025   0.00000  Uiso   1.00
H703   H     0.56097   0.39439   0.32160   0.00000  Uiso   1.00
H704   H     0.54070   0.41190   0.27718   0.00000  Uiso   1.00
C705   C     0.88948   0.44583   0.71210   0.00000  Uiso   1.00
H706   H     0.86587   0.46479   0.71201   0.00000  Uiso   1.00
H707   H     0.91237   0.46023   0.72680   0.00000  Uiso   1.00
H708   H     0.89650   0.44100   0.68116   0.00000  Uiso   1.00
C709   C     0.61658   0.06023   0.30014   0.00000  Uiso   1.00
H710   H     0.63937   0.04035   0.29808   0.00000  Uiso   1.00
H711   H     0.61506   0.06888   0.33100   0.00000  Uiso   1.00
H712   H     0.59130   0.04516   0.29209   0.00000  Uiso   1.00
C713   C     0.63649   0.30710   0.79446   0.00000  Uiso   1.00
H714   H     0.61330   0.28762   0.79321   0.00000  Uiso   1.00
H715   H     0.66085   0.29235   0.78321   0.00000  Uiso   1.00
H716   H     0.64050   0.31386   0.82558   0.00000  Uiso   1.00
C717   C     0.86160   0.19483   0.20967   0.00000  Uiso   1.00
H718   H     0.88515   0.21390   0.20995   0.00000  Uiso   1.00
H719   H     0.85559   0.18924   0.17864   0.00000  Uiso   1.00
H720   H     0.83823   0.20949   0.22317   0.00000  Uiso   1.00
C721   C     0.61112   0.05224   0.71617   0.00000  Uiso   1.00
H722   H     0.63178   0.04680   0.69323   0.00000  Uiso   1.00
H723   H     0.61369   0.03110   0.73914   0.00000  Uiso   1.00
H724   H     0.58394   0.04836   0.70276   0.00000  Uiso   1.00
C725   C     0.88808   0.44697   0.28597   0.00000  Uiso   1.00
H726   H     0.86700   0.45187   0.30862   0.00000  Uiso   1.00
H727   H     0.91502   0.45061   0.30001   0.00000  Uiso   1.00
H728   H     0.88585   0.46859   0.26346   0.00000  Uiso   1.00
C729   C     0.94564   0.38955   0.28811   0.00000  Uiso   1.00
H730   H     0.96472   0.36603   0.28794   0.00000  Uiso   1.00
H731   H     0.95991   0.41266   0.27364   0.00000  Uiso   1.00
H732   H     0.94078   0.39627   0.31912   0.00000  Uiso   1.00
C733   C     0.55359   0.10965   0.71391   0.00000  Uiso   1.00
H734   H     0.53455   0.13321   0.71381   0.00000  Uiso   1.00
H735   H     0.55785   0.10218   0.68300   0.00000  Uiso   1.00
H736   H     0.53957   0.08692   0.72930   0.00000  Uiso   1.00
C737   C     0.80394   0.13746   0.21215   0.00000  Uiso   1.00
H738   H     0.78201   0.13579   0.23437   0.00000  Uiso   1.00
H739   H     0.80068   0.16411   0.19737   0.00000  Uiso   1.00
H740   H     0.79933   0.11587   0.18999   0.00000  Uiso   1.00
C741   C     0.69364   0.36503   0.79319   0.00000  Uiso   1.00
H742   H     0.71681   0.36581   0.77243   0.00000  Uiso   1.00
H743   H     0.69675   0.38781   0.81427   0.00000  Uiso   1.00
H744   H     0.69613   0.33923   0.80973   0.00000  Uiso   1.00
C745   C     0.55970   0.11850   0.29950   0.00000  Uiso   1.00
H746   H     0.55852   0.14241   0.31939   0.00000  Uiso   1.00
H747   H     0.53495   0.11856   0.28087   0.00000  Uiso   1.00
H748   H     0.55820   0.09366   0.31776   0.00000  Uiso   1.00
C749   C     0.94708   0.38852   0.71479   0.00000  Uiso   1.00
H750   H     0.95250   0.36738   0.69232   0.00000  Uiso   1.00
H751   H     0.95070   0.41547   0.70073   0.00000  Uiso   1.00
H752   H     0.96823   0.38655   0.73775   0.00000  Uiso   1.00
C753   C     0.61283   0.44603   0.28835   0.00000  Uiso   1.00
H754   H     0.63433   0.45029   0.31065   0.00000  Uiso   1.00
H755   H     0.61477   0.46823   0.26644   0.00000  Uiso   1.00
H756   H     0.58616   0.44936   0.30306   0.00000  Uiso   1.00
C757   C     0.88653   0.05459   0.71024   0.00000  Uiso   1.00
H758   H     0.86464   0.05064   0.68831   0.00000  Uiso   1.00
H759   H     0.91295   0.05148   0.69498   0.00000  Uiso   1.00
H760   H     0.88497   0.03214   0.73189   0.00000  Uiso   1.00
C761   C     0.51754   0.31644   0.39602   0.00000  Uiso   1.00
O762   O     0.54367   0.31771   0.37388   0.00000  Uiso   1.00
O763   O     0.99505   0.34706   0.40082   0.00000  Uiso   1.00
H764   H     0.50308   0.36854   0.38424   0.00000  Uiso   1.00
C765   C     0.97319   0.18676   0.60414   0.00000  Uiso   1.00
O766   O     0.99256   0.17191   0.62841   0.00000  Uiso   1.00
O767   O     0.93764   0.17405   0.59758   0.00000  Uiso   1.00
H768   H     0.93117   0.15232   0.61457   0.00000  Uiso   1.00
C769   C     0.68407   0.48138   0.39605   0.00000  Uiso   1.00
O770   O     0.68303   0.45454   0.37487   0.00000  Uiso   1.00
O771   O     0.65342   0.00399   0.39982   0.00000  Uiso   1.00
H772   H     0.63210   0.49543   0.38331   0.00000  Uiso   1.00
C773   C     0.81299   0.02726   0.60417   0.00000  Uiso   1.00
O774   O     0.82811   0.00775   0.62813   0.00000  Uiso   1.00
O775   O     0.82536   0.06302   0.59793   0.00000  Uiso   1.00
H776   H     0.84711   0.06951   0.61483   0.00000  Uiso   1.00
C777   C     0.98214   0.18375   0.39597   0.00000  Uiso   1.00
O778   O     0.95551   0.18249   0.37456   0.00000  Uiso   1.00
O779   O     0.50491   0.15324   0.39994   0.00000  Uiso   1.00
H780   H     0.99665   0.13182   0.38338   0.00000  Uiso   1.00
C781   C     0.52686   0.31323   0.60413   0.00000  Uiso   1.00
O782   O     0.50740   0.32818   0.62829   0.00000  Uiso   1.00
O783   O     0.56241   0.32593   0.59756   0.00000  Uiso   1.00
H784   H     0.56879   0.34785   0.61430   0.00000  Uiso   1.00
C785   C     0.81619   0.01843   0.39599   0.00000  Uiso   1.00
O786   O     0.81720   0.04467   0.37399   0.00000  Uiso   1.00
O787   O     0.84700   0.49619   0.40064   0.00000  Uiso   1.00
H788   H     0.86838   0.00449   0.38407   0.00000  Uiso   1.00
C789   C     0.68722   0.47226   0.60412   0.00000  Uiso   1.00
O790   O     0.67210   0.49138   0.62847   0.00000  Uiso   1.00
O791   O     0.67502   0.43652   0.59741   0.00000  Uiso   1.00
H792   H     0.65338   0.42969   0.61435   0.00000  Uiso   1.00
C793   C     0.77680   0.06324   0.89585   0.00000  Uiso   1.00
O794   O     0.75742   0.07809   0.87159   0.00000  Uiso   1.00
O795   O     0.81234   0.07597   0.90242   0.00000  Uiso   1.00
H796   H     0.81880   0.09769   0.88543   0.00000  Uiso   1.00
C797   C     0.73248   0.43355   0.10398   0.00000  Uiso   1.00
O798   O     0.70637   0.43228   0.12613   0.00000  Uiso   1.00
O799   O     0.75499   0.40294   0.09917   0.00000  Uiso   1.00
H800   H     0.74697   0.38145   0.11576   0.00000  Uiso   1.00
C801   C     0.93700   0.22274   0.89583   0.00000  Uiso   1.00
O802   O     0.92189   0.24226   0.87187   0.00000  Uiso   1.00
O803   O     0.92464   0.18699   0.90207   0.00000  Uiso   1.00
H804   H     0.90288   0.18051   0.88516   0.00000  Uiso   1.00
C805   C     0.56593   0.26861   0.10395   0.00000  Uiso   1.00
O806   O     0.56697   0.29546   0.12513   0.00000  Uiso   1.00
O807   O     0.59658   0.24601   0.10019   0.00000  Uiso   1.00
H808   H     0.61789   0.25456   0.11669   0.00000  Uiso   1.00
C809   C     0.72316   0.43676   0.89587   0.00000  Uiso   1.00
O810   O     0.74262   0.42182   0.87171   0.00000  Uiso   1.00
O811   O     0.68761   0.42406   0.90244   0.00000  Uiso   1.00
H812   H     0.68123   0.40213   0.88570   0.00000  Uiso   1.00
C813   C     0.76783   0.06626   0.10403   0.00000  Uiso   1.00
O814   O     0.79445   0.06753   0.12545   0.00000  Uiso   1.00
O815   O     0.74506   0.09676   0.10005   0.00000  Uiso   1.00
H816   H     0.75330   0.11819   0.11661   0.00000  Uiso   1.00
C817   C     0.56279   0.27774   0.89588   0.00000  Uiso   1.00
O818   O     0.57790   0.25861   0.87153   0.00000  Uiso   1.00
O819   O     0.57499   0.31347   0.90259   0.00000  Uiso   1.00
H820   H     0.59662   0.32030   0.88565   0.00000  Uiso   1.00
C821   C     0.93381   0.23157   0.10401   0.00000  Uiso   1.00
O822   O     0.93280   0.20533   0.12600   0.00000  Uiso   1.00
O823   O     0.90301   0.25381   0.09937   0.00000  Uiso   1.00
H824   H     0.88163   0.24551   0.11594   0.00000  Uiso   1.00
C825   C     0.00955   0.78230   0.41803   0.00000  Uiso   1.00
C826   C     0.48719   0.71886   0.58195   0.00000  Uiso   1.00
C827   C     0.21797   0.99009   0.41806   0.00000  Uiso   1.00
C828   C     0.28099   0.51316   0.58196   0.00000  Uiso   1.00
C829   C     0.49041   0.71779   0.41802   0.00000  Uiso   1.00
C830   C     0.01289   0.78111   0.58196   0.00000  Uiso   1.00
C831   C     0.28218   0.51003   0.41802   0.00000  Uiso   1.00
C832   C     0.21908   0.98677   0.58195   0.00000  Uiso   1.00
C833   C     0.26280   0.53114   0.91804   0.00000  Uiso   1.00
C834   C     0.24047   0.96770   0.08197   0.00000  Uiso   1.00
C835   C     0.46901   0.73685   0.91804   0.00000  Uiso   1.00
C836   C     0.03203   0.75991   0.08194   0.00000  Uiso   1.00
C837   C     0.23712   0.96888   0.91804   0.00000  Uiso   1.00
C838   C     0.25958   0.53221   0.08198   0.00000  Uiso   1.00
C839   C     0.03092   0.76322   0.91805   0.00000  Uiso   1.00
C840   C     0.46783   0.73997   0.08198   0.00000  Uiso   1.00
C841   C     0.49998   0.75004   0.39798   0.00000  Uiso   1.00
C842   C     0.00003   0.74999   0.60198   0.00000  Uiso   1.00
C843   C     0.25007   0.50005   0.39800   0.00000  Uiso   1.00
C844   C     0.25002   0.99997   0.60198   0.00000  Uiso   1.00
C845   C     0.24997   0.50001   0.89802   0.00000  Uiso   1.00
C846   C     0.25002   0.99996   0.10201   0.00000  Uiso   1.00
C847   C     0.49998   0.75003   0.89802   0.00000  Uiso   1.00
C848   C     0.49993   0.74995   0.10200   0.00000  Uiso   1.00
C849   C     0.47886   0.68682   0.47984   0.00000  Uiso   1.00
C850   C     0.02209   0.81289   0.52008   0.00000  Uiso   1.00
C851   C     0.31290   0.52207   0.47987   0.00000  Uiso   1.00
C852   C     0.18743   0.97733   0.52006   0.00000  Uiso   1.00
C853   C     0.02124   0.81318   0.47989   0.00000  Uiso   1.00
C854   C     0.47802   0.68709   0.52003   0.00000  Uiso   1.00
C855   C     0.18715   0.97821   0.47988   0.00000  Uiso   1.00
C856   C     0.31260   0.52287   0.52006   0.00000  Uiso   1.00
C857   C     0.22793   0.93711   0.97992   0.00000  Uiso   1.00
C858   C     0.27112   0.56319   0.02016   0.00000  Uiso   1.00
C859   C     0.06257   0.77266   0.97994   0.00000  Uiso   1.00
C860   C     0.43710   0.72794   0.02013   0.00000  Uiso   1.00
C861   C     0.27196   0.56292   0.97996   0.00000  Uiso   1.00
C862   C     0.22878   0.93681   0.02011   0.00000  Uiso   1.00
C863   C     0.43740   0.72714   0.97994   0.00000  Uiso   1.00
C864   C     0.06285   0.77179   0.02012   0.00000  Uiso   1.00
C865   C     0.25004   0.50001   0.35573   0.00000  Uiso   1.00
C866   C     0.25000   0.99999   0.64426   0.00000  Uiso   1.00
C867   C     0.49999   0.75002   0.35572   0.00000  Uiso   1.00
C868   C     0.00001   0.75001   0.64427   0.00000  Uiso   1.00
C869   C    -0.00000   0.75001   0.85574   0.00000  Uiso   1.00
C870   C     0.49996   0.74999   0.14426   0.00000  Uiso   1.00
C871   C     0.24999   0.99999   0.85573   0.00000  Uiso   1.00
C872   C     0.25001   0.99998   0.14428   0.00000  Uiso   1.00
C873   C     0.18007   0.56999   0.24998   0.00000  Uiso   1.00
C874   C     0.31991   0.92999   0.75000   0.00000  Uiso   1.00
C875   C     0.43009   0.67999   0.25001   0.00000  Uiso   1.00
C876   C     0.06993   0.81999   0.74998   0.00000  Uiso   1.00
C877   C     0.31999   0.93006   0.25000   0.00000  Uiso   1.00
C878   C     0.18002   0.56994   0.75001   0.00000  Uiso   1.00
C879   C     0.06999   0.81992   0.24997   0.00000  Uiso   1.00
C880   C     0.43002   0.68007   0.75002   0.00000  Uiso   1.00
C881   C     0.18007   0.93001   0.75002   0.00000  Uiso   1.00
C882   C     0.31991   0.57001   0.24998   0.00000  Uiso   1.00
C883   C     0.43009   0.82001   0.75000   0.00000  Uiso   1.00
C884   C     0.06993   0.68001   0.25002   0.00000  Uiso   1.00
C885   C     0.31998   0.56993   0.74998   0.00000  Uiso   1.00
C886   C     0.18001   0.93007   0.25002   0.00000  Uiso   1.00
C887   C     0.06999   0.68006   0.74999   0.00000  Uiso   1.00
C888   C     0.43001   0.81994   0.25000   0.00000  Uiso   1.00
C889   C     0.15884   0.86824   0.23078   0.00000  Uiso   1.00
C890   C     0.34146   0.63147   0.76992   0.00000  Uiso   1.00
C891   C     0.12915   0.65628   0.22571   0.00000  Uiso   1.00
C892   C     0.36776   0.84059   0.76789   0.00000  Uiso   1.00
C893   C     0.38173   0.59108   0.26911   0.00000  Uiso   1.00
C894   C     0.11930   0.90789   0.72862   0.00000  Uiso   1.00
C895   C     0.36797   0.84044   0.23250   0.00000  Uiso   1.00
C896   C     0.13241   0.65995   0.76642   0.00000  Uiso   1.00
C897   C     0.15969   0.63266   0.76698   0.00000  Uiso   1.00
C898   C     0.34069   0.86772   0.23198   0.00000  Uiso   1.00
C899   C     0.09209   0.88052   0.72892   0.00000  Uiso   1.00
C900   C     0.40907   0.61832   0.26853   0.00000  Uiso   1.00
C901   C     0.34044   0.86781   0.76726   0.00000  Uiso   1.00
C902   C     0.15630   0.62885   0.22587   0.00000  Uiso   1.00
C903   C     0.36875   0.65876   0.76943   0.00000  Uiso   1.00
C904   C     0.13157   0.84092   0.23129   0.00000  Uiso   1.00
C905   C     0.40854   0.61853   0.73008   0.00000  Uiso   1.00
C906   C     0.09116   0.88176   0.26922   0.00000  Uiso   1.00
C907   C     0.38224   0.90941   0.73211   0.00000  Uiso   1.00
C908   C     0.12085   0.59372   0.27429   0.00000  Uiso   1.00
C909   C     0.13070   0.84211   0.77138   0.00000  Uiso   1.00
C910   C     0.36827   0.65892   0.23089   0.00000  Uiso   1.00
C911   C     0.11759   0.59005   0.73358   0.00000  Uiso   1.00
C912   C     0.38202   0.90955   0.26750   0.00000  Uiso   1.00
C913   C     0.40931   0.88227   0.26802   0.00000  Uiso   1.00
C914   C     0.09031   0.61734   0.73302   0.00000  Uiso   1.00
C915   C     0.34093   0.63168   0.23147   0.00000  Uiso   1.00
C916   C     0.15791   0.86948   0.77108   0.00000  Uiso   1.00
C917   C     0.09370   0.62115   0.27413   0.00000  Uiso   1.00
C918   C     0.40956   0.88219   0.73274   0.00000  Uiso   1.00
C919   C     0.11843   0.90908   0.26870   0.00000  Uiso   1.00
C920   C     0.38125   0.59124   0.73057   0.00000  Uiso   1.00
C921   C     0.48984   0.71795   0.45891   0.00000  Uiso   1.00
C922   C     0.01198   0.78147   0.54106   0.00000  Uiso   1.00
C923   C     0.28197   0.51066   0.45892   0.00000  Uiso   1.00
C924   C     0.21871   0.98775   0.54105   0.00000  Uiso   1.00
C925   C     0.01020   0.78209   0.45893   0.00000  Uiso   1.00
C926   C     0.48811   0.71850   0.54104   0.00000  Uiso   1.00
C927   C     0.21813   0.98953   0.45894   0.00000  Uiso   1.00
C928   C     0.28135   0.51234   0.54105   0.00000  Uiso   1.00
C929   C     0.23803   0.96852   0.95894   0.00000  Uiso   1.00
C930   C     0.26015   0.53206   0.04109   0.00000  Uiso   1.00
C931   C     0.03129   0.76225   0.95895   0.00000  Uiso   1.00
C932   C     0.46803   0.73934   0.04108   0.00000  Uiso   1.00
C933   C     0.26188   0.53150   0.95896   0.00000  Uiso   1.00
C934   C     0.23981   0.96790   0.04107   0.00000  Uiso   1.00
C935   C     0.46865   0.73766   0.95895   0.00000  Uiso   1.00
C936   C     0.03187   0.76047   0.04106   0.00000  Uiso   1.00
C937   C     0.09803   0.84810   0.25024   0.00000  Uiso   1.00
C938   C     0.40198   0.65189   0.74976   0.00000  Uiso   1.00
C939   C     0.15185   0.59799   0.25015   0.00000  Uiso   1.00
C940   C     0.34808   0.90193   0.74967   0.00000  Uiso   1.00
C941   C     0.40192   0.65194   0.24971   0.00000  Uiso   1.00
C942   C     0.09813   0.84801   0.75020   0.00000  Uiso   1.00
C943   C     0.34803   0.90188   0.24973   0.00000  Uiso   1.00
C944   C     0.15197   0.59811   0.75029   0.00000  Uiso   1.00
C945   C     0.09803   0.65189   0.74971   0.00000  Uiso   1.00
C946   C     0.40197   0.84811   0.25026   0.00000  Uiso   1.00
C947   C     0.15187   0.90199   0.74980   0.00000  Uiso   1.00
C948   C     0.34808   0.59806   0.25029   0.00000  Uiso   1.00
C949   C     0.40192   0.84807   0.75033   0.00000  Uiso   1.00
C950   C     0.09815   0.65201   0.24985   0.00000  Uiso   1.00
C951   C     0.34802   0.59811   0.75024   0.00000  Uiso   1.00
C952   C     0.15197   0.90189   0.24976   0.00000  Uiso   1.00
C953   C     0.00003   0.75001   0.47941   0.00000  Uiso   1.00
C954   C     0.00004   0.74999   0.52057   0.00000  Uiso   1.00
C955   C     0.25004   0.50010   0.47942   0.00000  Uiso   1.00
C956   C     0.25003   0.50007   0.52058   0.00000  Uiso   1.00
C957   C     0.24996   0.50001   0.97943   0.00000  Uiso   1.00
C958   C     0.24997   0.99999   0.02059   0.00000  Uiso   1.00
C959   C     0.49997   0.74993   0.97942   0.00000  Uiso   1.00
C960   C     0.49996   0.74990   0.02058   0.00000  Uiso   1.00
H961   H     0.47040   0.66190   0.46542   0.00000  Uiso   1.00
H962   H     0.03037   0.83790   0.53440   0.00000  Uiso   1.00
H963   H     0.33767   0.53091   0.46547   0.00000  Uiso   1.00
H964   H     0.16252   0.96881   0.53438   0.00000  Uiso   1.00
H965   H     0.02977   0.83809   0.46551   0.00000  Uiso   1.00
H966   H     0.46977   0.66207   0.53434   0.00000  Uiso   1.00
H967   H     0.16234   0.96949   0.46547   0.00000  Uiso   1.00
H968   H     0.33749   0.53145   0.53438   0.00000  Uiso   1.00
H969   H     0.21966   0.91209   0.96560   0.00000  Uiso   1.00
H970   H     0.27957   0.58811   0.03458   0.00000  Uiso   1.00
H971   H     0.08748   0.78118   0.96562   0.00000  Uiso   1.00
H972   H     0.41232   0.71910   0.03453   0.00000  Uiso   1.00
H973   H     0.28020   0.58794   0.96566   0.00000  Uiso   1.00
H974   H     0.22025   0.91190   0.03449   0.00000  Uiso   1.00
H975   H     0.41251   0.71856   0.96562   0.00000  Uiso   1.00
H976   H     0.08766   0.78050   0.03453   0.00000  Uiso   1.00
O977   O     0.25000   0.50000   0.25000   0.00000  Uiso   1.00
O978   O     0.25000   0.50000   0.75000   0.00000  Uiso   1.00
O979   O     0.00000   0.75000   0.25000   0.00000  Uiso   1.00
O980   O     0.00000   0.75000   0.75000   0.00000  Uiso   1.00
O981   O     0.25000   0.96963   0.33755   0.00000  Uiso   1.00
O982   O     0.25000   0.53036   0.66245   0.00000  Uiso   1.00
O983   O     0.03037   0.75000   0.33755   0.00000  Uiso   1.00
O984   O     0.46964   0.75000   0.66245   0.00000  Uiso   1.00
O985   O     0.25000   0.53036   0.33755   0.00000  Uiso   1.00
O986   O     0.25000   0.96963   0.66245   0.00000  Uiso   1.00
O987   O     0.46964   0.75000   0.33755   0.00000  Uiso   1.00
O988   O     0.03037   0.75000   0.66245   0.00000  Uiso   1.00
O989   O     0.00000   0.71963   0.83755   0.00000  Uiso   1.00
O990   O     0.00000   0.78036   0.16245   0.00000  Uiso   1.00
O991   O     0.28037   0.50000   0.83755   0.00000  Uiso   1.00
O992   O     0.21964   0.50000   0.16245   0.00000  Uiso   1.00
O993   O     0.00000   0.78036   0.83755   0.00000  Uiso   1.00
O994   O     0.00000   0.71963   0.16245   0.00000  Uiso   1.00
O995   O     0.21964   0.50000   0.83755   0.00000  Uiso   1.00
O996   O     0.28037   0.50000   0.16245   0.00000  Uiso   1.00
O997   O     0.20725   0.57307   0.27302   0.00000  Uiso   1.00
O998   O     0.29276   0.92692   0.72698   0.00000  Uiso   1.00
O999   O     0.42693   0.70724   0.27302   0.00000  Uiso   1.00
O1000  O     0.07308   0.79275   0.72698   0.00000  Uiso   1.00
O1001  O     0.29276   0.92692   0.27302   0.00000  Uiso   1.00
O1002  O     0.20725   0.57307   0.72698   0.00000  Uiso   1.00
O1003  O     0.07308   0.79275   0.27302   0.00000  Uiso   1.00
O1004  O     0.42693   0.70724   0.72698   0.00000  Uiso   1.00
O1005  O     0.20725   0.92692   0.72698   0.00000  Uiso   1.00
O1006  O     0.29276   0.57307   0.27302   0.00000  Uiso   1.00
O1007  O     0.42693   0.79275   0.72698   0.00000  Uiso   1.00
O1008  O     0.07308   0.70724   0.27302   0.00000  Uiso   1.00
O1009  O     0.29276   0.57307   0.72698   0.00000  Uiso   1.00
O1010  O     0.20725   0.92692   0.27302   0.00000  Uiso   1.00
O1011  O     0.07308   0.70724   0.72698   0.00000  Uiso   1.00
O1012  O     0.42693   0.79275   0.27302   0.00000  Uiso   1.00
O1013  O     0.45725   0.82307   0.77302   0.00000  Uiso   1.00
O1014  O     0.04276   0.67692   0.22698   0.00000  Uiso   1.00
O1015  O     0.17693   0.95724   0.77302   0.00000  Uiso   1.00
O1016  O     0.32308   0.54275   0.22698   0.00000  Uiso   1.00
O1017  O     0.04276   0.67692   0.77302   0.00000  Uiso   1.00
O1018  O     0.45725   0.82307   0.22698   0.00000  Uiso   1.00
O1019  O     0.32308   0.54275   0.77302   0.00000  Uiso   1.00
O1020  O     0.17693   0.95724   0.22698   0.00000  Uiso   1.00
O1021  O     0.45725   0.67692   0.22698   0.00000  Uiso   1.00
O1022  O     0.04276   0.82307   0.77302   0.00000  Uiso   1.00
O1023  O     0.17693   0.54275   0.22698   0.00000  Uiso   1.00
O1024  O     0.32308   0.95724   0.77302   0.00000  Uiso   1.00
O1025  O     0.04276   0.82307   0.22698   0.00000  Uiso   1.00
O1026  O     0.45725   0.67692   0.77302   0.00000  Uiso   1.00
O1027  O     0.32308   0.95724   0.22698   0.00000  Uiso   1.00
O1028  O     0.17693   0.54275   0.77302   0.00000  Uiso   1.00
Zn1029 Zn    0.20660   0.50000   0.21735   0.00000  Uiso   1.00
Zn1030 Zn    0.29341   0.50000   0.78265   0.00000  Uiso   1.00
Zn1031 Zn    0.00000   0.70659   0.21735   0.00000  Uiso   1.00
Zn1032 Zn    0.00000   0.79340   0.78265   0.00000  Uiso   1.00
Zn1033 Zn    0.29341   0.50000   0.21735   0.00000  Uiso   1.00
Zn1034 Zn    0.20660   0.50000   0.78265   0.00000  Uiso   1.00
Zn1035 Zn    0.00000   0.79340   0.21735   0.00000  Uiso   1.00
Zn1036 Zn    0.00000   0.70659   0.78265   0.00000  Uiso   1.00
Zn1037 Zn    0.45660   0.75000   0.71735   0.00000  Uiso   1.00
Zn1038 Zn    0.04341   0.75000   0.28265   0.00000  Uiso   1.00
Zn1039 Zn    0.25000   0.95659   0.71735   0.00000  Uiso   1.00
Zn1040 Zn    0.25000   0.54340   0.28265   0.00000  Uiso   1.00
Zn1041 Zn    0.04341   0.75000   0.71735   0.00000  Uiso   1.00
Zn1042 Zn    0.45660   0.75000   0.28265   0.00000  Uiso   1.00
Zn1043 Zn    0.25000   0.54340   0.71735   0.00000  Uiso   1.00
Zn1044 Zn    0.25000   0.95659   0.28265   0.00000  Uiso   1.00
C1045  C     0.19466   0.86155   0.20943   0.00000  Uiso   1.00
H1046  H     0.21373   0.88510   0.20975   0.00000  Uiso   1.00
H1047  H     0.20930   0.83810   0.22282   0.00000  Uiso   1.00
H1048  H     0.18904   0.85561   0.17840   0.00000  Uiso   1.00
C1049  C     0.30593   0.63788   0.79188   0.00000  Uiso   1.00
H1050  H     0.28681   0.61437   0.79140   0.00000  Uiso   1.00
H1051  H     0.31196   0.64333   0.82292   0.00000  Uiso   1.00
H1052  H     0.29117   0.66156   0.77912   0.00000  Uiso   1.00
C1053  C     0.13342   0.68977   0.19986   0.00000  Uiso   1.00
H1054  H     0.11063   0.70964   0.20192   0.00000  Uiso   1.00
H1055  H     0.15870   0.70484   0.20791   0.00000  Uiso   1.00
H1056  H     0.13494   0.68112   0.16900   0.00000  Uiso   1.00
C1057  C     0.36052   0.80417   0.78790   0.00000  Uiso   1.00
H1058  H     0.38413   0.78521   0.78799   0.00000  Uiso   1.00
H1059  H     0.35350   0.80900   0.81883   0.00000  Uiso   1.00
H1060  H     0.33763   0.78977   0.77320   0.00000  Uiso   1.00
C1061  C     0.38840   0.55517   0.29033   0.00000  Uiso   1.00
H1062  H     0.36485   0.53610   0.29005   0.00000  Uiso   1.00
H1063  H     0.41177   0.54051   0.27682   0.00000  Uiso   1.00
H1064  H     0.39441   0.56076   0.32136   0.00000  Uiso   1.00
C1065  C     0.11351   0.94290   0.70554   0.00000  Uiso   1.00
H1066  H     0.13670   0.96238   0.70679   0.00000  Uiso   1.00
H1067  H     0.10950   0.93614   0.67441   0.00000  Uiso   1.00
H1068  H     0.08915   0.95765   0.71678   0.00000  Uiso   1.00
C1069  C     0.36192   0.80302   0.21403   0.00000  Uiso   1.00
H1070  H     0.38299   0.79813   0.19139   0.00000  Uiso   1.00
H1071  H     0.36415   0.78141   0.23654   0.00000  Uiso   1.00
H1072  H     0.33498   0.79939   0.20000   0.00000  Uiso   1.00
C1073  C     0.13888   0.69776   0.78383   0.00000  Uiso   1.00
H1074  H     0.11822   0.70321   0.80677   0.00000  Uiso   1.00
H1075  H     0.16607   0.70164   0.79724   0.00000  Uiso   1.00
H1076  H     0.13632   0.71890   0.76086   0.00000  Uiso   1.00
C1077  C     0.19641   0.64035   0.78609   0.00000  Uiso   1.00
H1078  H     0.21545   0.61679   0.78619   0.00000  Uiso   1.00
H1079  H     0.21043   0.66308   0.77070   0.00000  Uiso   1.00
H1080  H     0.19215   0.64782   0.81700   0.00000  Uiso   1.00
C1081  C     0.30436   0.86045   0.21189   0.00000  Uiso   1.00
H1082  H     0.28528   0.88397   0.21206   0.00000  Uiso   1.00
H1083  H     0.30922   0.85373   0.18088   0.00000  Uiso   1.00
H1084  H     0.29009   0.83734   0.22636   0.00000  Uiso   1.00
C1085  C     0.05636   0.88497   0.70681   0.00000  Uiso   1.00
H1086  H     0.03319   0.88418   0.72757   0.00000  Uiso   1.00
H1087  H     0.05387   0.91077   0.69027   0.00000  Uiso   1.00
H1088  H     0.05326   0.86219   0.68573   0.00000  Uiso   1.00
C1089  C     0.44606   0.61254   0.28785   0.00000  Uiso   1.00
H1090  H     0.46799   0.61422   0.26564   0.00000  Uiso   1.00
H1091  H     0.45066   0.63413   0.31001   0.00000  Uiso   1.00
H1092  H     0.44932   0.58589   0.30263   0.00000  Uiso   1.00
C1093  C     0.30292   0.86148   0.78521   0.00000  Uiso   1.00
H1094  H     0.29750   0.88262   0.80768   0.00000  Uiso   1.00
H1095  H     0.28177   0.86344   0.76225   0.00000  Uiso   1.00
H1096  H     0.29930   0.83453   0.79927   0.00000  Uiso   1.00
C1097  C     0.19030   0.63150   0.20050   0.00000  Uiso   1.00
H1098  H     0.19148   0.60759   0.18060   0.00000  Uiso   1.00
H1099  H     0.19180   0.65633   0.18224   0.00000  Uiso   1.00
H1100  H     0.21505   0.63144   0.21913   0.00000  Uiso   1.00
C1101  C     0.36347   0.69541   0.78976   0.00000  Uiso   1.00
H1102  H     0.38536   0.69936   0.81169   0.00000  Uiso   1.00
H1103  H     0.36503   0.71786   0.76811   0.00000  Uiso   1.00
H1104  H     0.33706   0.69852   0.80503   0.00000  Uiso   1.00
C1105  C     0.13717   0.80397   0.21164   0.00000  Uiso   1.00
H1106  H     0.11567   0.79972   0.18934   0.00000  Uiso   1.00
H1107  H     0.16384   0.80065   0.19693   0.00000  Uiso   1.00
H1108  H     0.13523   0.78177   0.23355   0.00000  Uiso   1.00
C1109  C     0.44407   0.61212   0.70812   0.00000  Uiso   1.00
H1110  H     0.46318   0.63564   0.70860   0.00000  Uiso   1.00
H1111  H     0.45883   0.58845   0.72088   0.00000  Uiso   1.00
H1112  H     0.43804   0.60667   0.67707   0.00000  Uiso   1.00
C1113  C     0.05534   0.88845   0.29057   0.00000  Uiso   1.00
H1114  H     0.03627   0.86490   0.29025   0.00000  Uiso   1.00
H1115  H     0.06097   0.89439   0.32160   0.00000  Uiso   1.00
H1116  H     0.04070   0.91190   0.27718   0.00000  Uiso   1.00
C1117  C     0.38948   0.94583   0.71210   0.00000  Uiso   1.00
H1118  H     0.36587   0.96479   0.71201   0.00000  Uiso   1.00
H1119  H     0.41237   0.96023   0.72680   0.00000  Uiso   1.00
H1120  H     0.39650   0.94100   0.68116   0.00000  Uiso   1.00
C1121  C     0.11658   0.56023   0.30014   0.00000  Uiso   1.00
H1122  H     0.13937   0.54035   0.29808   0.00000  Uiso   1.00
H1123  H     0.11506   0.56888   0.33100   0.00000  Uiso   1.00
H1124  H     0.09130   0.54516   0.29209   0.00000  Uiso   1.00
C1125  C     0.13649   0.80710   0.79446   0.00000  Uiso   1.00
H1126  H     0.11330   0.78762   0.79321   0.00000  Uiso   1.00
H1127  H     0.16085   0.79235   0.78321   0.00000  Uiso   1.00
H1128  H     0.14050   0.81386   0.82558   0.00000  Uiso   1.00
C1129  C     0.36160   0.69483   0.20967   0.00000  Uiso   1.00
H1130  H     0.38515   0.71390   0.20995   0.00000  Uiso   1.00
H1131  H     0.35559   0.68924   0.17864   0.00000  Uiso   1.00
H1132  H     0.33823   0.70949   0.22317   0.00000  Uiso   1.00
C1133  C     0.11112   0.55224   0.71617   0.00000  Uiso   1.00
H1134  H     0.13178   0.54680   0.69323   0.00000  Uiso   1.00
H1135  H     0.11369   0.53110   0.73914   0.00000  Uiso   1.00
H1136  H     0.08394   0.54836   0.70276   0.00000  Uiso   1.00
C1137  C     0.38808   0.94697   0.28597   0.00000  Uiso   1.00
H1138  H     0.36700   0.95187   0.30862   0.00000  Uiso   1.00
H1139  H     0.41502   0.95061   0.30001   0.00000  Uiso   1.00
H1140  H     0.38585   0.96859   0.26346   0.00000  Uiso   1.00
C1141  C     0.44564   0.88955   0.28811   0.00000  Uiso   1.00
H1142  H     0.46472   0.86603   0.28794   0.00000  Uiso   1.00
H1143  H     0.45991   0.91266   0.27364   0.00000  Uiso   1.00
H1144  H     0.44078   0.89627   0.31912   0.00000  Uiso   1.00
C1145  C     0.05359   0.60965   0.71391   0.00000  Uiso   1.00
H1146  H     0.03455   0.63321   0.71381   0.00000  Uiso   1.00
H1147  H     0.05785   0.60218   0.68300   0.00000  Uiso   1.00
H1148  H     0.03957   0.58692   0.72930   0.00000  Uiso   1.00
C1149  C     0.30394   0.63746   0.21215   0.00000  Uiso   1.00
H1150  H     0.28201   0.63579   0.23437   0.00000  Uiso   1.00
H1151  H     0.30068   0.66411   0.19737   0.00000  Uiso   1.00
H1152  H     0.29933   0.61587   0.18999   0.00000  Uiso   1.00
C1153  C     0.19364   0.86503   0.79319   0.00000  Uiso   1.00
H1154  H     0.21681   0.86581   0.77243   0.00000  Uiso   1.00
H1155  H     0.19675   0.88781   0.81427   0.00000  Uiso   1.00
H1156  H     0.19613   0.83923   0.80973   0.00000  Uiso   1.00
C1157  C     0.05970   0.61850   0.29950   0.00000  Uiso   1.00
H1158  H     0.05852   0.64241   0.31939   0.00000  Uiso   1.00
H1159  H     0.03495   0.61856   0.28087   0.00000  Uiso   1.00
H1160  H     0.05820   0.59366   0.31776   0.00000  Uiso   1.00
C1161  C     0.44708   0.88852   0.71479   0.00000  Uiso   1.00
H1162  H     0.45250   0.86738   0.69232   0.00000  Uiso   1.00
H1163  H     0.45070   0.91547   0.70073   0.00000  Uiso   1.00
H1164  H     0.46823   0.88655   0.73775   0.00000  Uiso   1.00
C1165  C     0.11283   0.94603   0.28835   0.00000  Uiso   1.00
H1166  H     0.13433   0.95029   0.31065   0.00000  Uiso   1.00
H1167  H     0.11477   0.96823   0.26644   0.00000  Uiso   1.00
H1168  H     0.08616   0.94936   0.30306   0.00000  Uiso   1.00
C1169  C     0.38653   0.55459   0.71024   0.00000  Uiso   1.00
H1170  H     0.36464   0.55064   0.68831   0.00000  Uiso   1.00
H1171  H     0.41295   0.55148   0.69498   0.00000  Uiso   1.00
H1172  H     0.38497   0.53214   0.73189   0.00000  Uiso   1.00
C1173  C     0.01754   0.81644   0.39602   0.00000  Uiso   1.00
O1174  O     0.04367   0.81771   0.37388   0.00000  Uiso   1.00
O1175  O     0.49505   0.84706   0.40082   0.00000  Uiso   1.00
H1176  H     0.00308   0.86854   0.38424   0.00000  Uiso   1.00
C1177  C     0.47319   0.68676   0.60414   0.00000  Uiso   1.00
O1178  O     0.49256   0.67191   0.62841   0.00000  Uiso   1.00
O1179  O     0.43764   0.67405   0.59758   0.00000  Uiso   1.00
H1180  H     0.43117   0.65232   0.61457   0.00000  Uiso   1.00
C1181  C     0.18407   0.98138   0.39605   0.00000  Uiso   1.00
O1182  O     0.18303   0.95454   0.37487   0.00000  Uiso   1.00
O1183  O     0.15342   0.50399   0.39982   0.00000  Uiso   1.00
H1184  H     0.13210   0.99543   0.38331   0.00000  Uiso   1.00
C1185  C     0.31299   0.52726   0.60417   0.00000  Uiso   1.00
O1186  O     0.32811   0.50775   0.62813   0.00000  Uiso   1.00
O1187  O     0.32536   0.56302   0.59793   0.00000  Uiso   1.00
H1188  H     0.34711   0.56951   0.61483   0.00000  Uiso   1.00
C1189  C     0.48214   0.68375   0.39597   0.00000  Uiso   1.00
O1190  O     0.45551   0.68249   0.37456   0.00000  Uiso   1.00
O1191  O     0.00491   0.65324   0.39994   0.00000  Uiso   1.00
H1192  H     0.49665   0.63182   0.38338   0.00000  Uiso   1.00
C1193  C     0.02686   0.81323   0.60413   0.00000  Uiso   1.00
O1194  O     0.00740   0.82818   0.62829   0.00000  Uiso   1.00
O1195  O     0.06241   0.82593   0.59756   0.00000  Uiso   1.00
H1196  H     0.06879   0.84785   0.61430   0.00000  Uiso   1.00
C1197  C     0.31619   0.51843   0.39599   0.00000  Uiso   1.00
O1198  O     0.31720   0.54467   0.37399   0.00000  Uiso   1.00
O1199  O     0.34700   0.99619   0.40064   0.00000  Uiso   1.00
H1200  H     0.36838   0.50449   0.38407   0.00000  Uiso   1.00
C1201  C     0.18722   0.97226   0.60412   0.00000  Uiso   1.00
O1202  O     0.17210   0.99138   0.62847   0.00000  Uiso   1.00
O1203  O     0.17502   0.93652   0.59741   0.00000  Uiso   1.00
H1204  H     0.15338   0.92969   0.61435   0.00000  Uiso   1.00
C1205  C     0.27680   0.56324   0.89585   0.00000  Uiso   1.00
O1206  O     0.25742   0.57809   0.87159   0.00000  Uiso   1.00
O1207  O     0.31234   0.57597   0.90242   0.00000  Uiso   1.00
H1208  H     0.31880   0.59769   0.88543   0.00000  Uiso   1.00
C1209  C     0.23248   0.93355   0.10398   0.00000  Uiso   1.00
O1210  O     0.20637   0.93228   0.12613   0.00000  Uiso   1.00
O1211  O     0.25499   0.90294   0.09917   0.00000  Uiso   1.00
H1212  H     0.24697   0.88145   0.11576   0.00000  Uiso   1.00
C1213  C     0.43700   0.72274   0.89583   0.00000  Uiso   1.00
O1214  O     0.42189   0.74226   0.87187   0.00000  Uiso   1.00
O1215  O     0.42464   0.68699   0.90207   0.00000  Uiso   1.00
H1216  H     0.40288   0.68051   0.88516   0.00000  Uiso   1.00
C1217  C     0.06593   0.76861   0.10395   0.00000  Uiso   1.00
O1218  O     0.06697   0.79546   0.12513   0.00000  Uiso   1.00
O1219  O     0.09658   0.74601   0.10019   0.00000  Uiso   1.00
H1220  H     0.11789   0.75456   0.11669   0.00000  Uiso   1.00
C1221  C     0.22316   0.93676   0.89587   0.00000  Uiso   1.00
O1222  O     0.24262   0.92182   0.87171   0.00000  Uiso   1.00
O1223  O     0.18761   0.92406   0.90244   0.00000  Uiso   1.00
H1224  H     0.18123   0.90213   0.88570   0.00000  Uiso   1.00
C1225  C     0.26783   0.56626   0.10403   0.00000  Uiso   1.00
O1226  O     0.29445   0.56753   0.12545   0.00000  Uiso   1.00
O1227  O     0.24506   0.59676   0.10005   0.00000  Uiso   1.00
H1228  H     0.25330   0.61819   0.11661   0.00000  Uiso   1.00
C1229  C     0.06279   0.77774   0.89588   0.00000  Uiso   1.00
O1230  O     0.07790   0.75861   0.87153   0.00000  Uiso   1.00
O1231  O     0.07499   0.81347   0.90259   0.00000  Uiso   1.00
H1232  H     0.09662   0.82030   0.88565   0.00000  Uiso   1.00
C1233  C     0.43381   0.73157   0.10401   0.00000  Uiso   1.00
O1234  O     0.43280   0.70533   0.12600   0.00000  Uiso   1.00
O1235  O     0.40301   0.75381   0.09937   0.00000  Uiso   1.00
H1236  H     0.38163   0.74551   0.11594   0.00000  Uiso   1.00
C1237  C     0.50955   0.78230   0.41803   0.00000  Uiso   1.00
C1238  C     0.98719   0.71886   0.58195   0.00000  Uiso   1.00
C1239  C     0.71797   0.99009   0.41806   0.00000  Uiso   1.00
C1240  C     0.78099   0.51316   0.58196   0.00000  Uiso   1.00
C1241  C     0.99041   0.71779   0.41802   0.00000  Uiso   1.00
C1242  C     0.51289   0.78111   0.58196   0.00000  Uiso   1.00
C1243  C     0.78218   0.51003   0.41802   0.00000  Uiso   1.00
C1244  C     0.71908   0.98677   0.58195   0.00000  Uiso   1.00
C1245  C     0.76280   0.53114   0.91804   0.00000  Uiso   1.00
C1246  C     0.74047   0.96770   0.08197   0.00000  Uiso   1.00
C1247  C     0.96901   0.73685   0.91804   0.00000  Uiso   1.00
C1248  C     0.53203   0.75991   0.08194   0.00000  Uiso   1.00
C1249  C     0.73712   0.96888   0.91804   0.00000  Uiso   1.00
C1250  C     0.75958   0.53221   0.08198   0.00000  Uiso   1.00
C1251  C     0.53092   0.76322   0.91805   0.00000  Uiso   1.00
C1252  C     0.96783   0.73997   0.08198   0.00000  Uiso   1.00
C1253  C     0.99998   0.75004   0.39798   0.00000  Uiso   1.00
C1254  C     0.50003   0.74999   0.60198   0.00000  Uiso   1.00
C1255  C     0.75007   0.50005   0.39800   0.00000  Uiso   1.00
C1256  C     0.75002   0.99997   0.60198   0.00000  Uiso   1.00
C1257  C     0.74997   0.50001   0.89802   0.00000  Uiso   1.00
C1258  C     0.75002   0.99996   0.10201   0.00000  Uiso   1.00
C1259  C     0.99998   0.75003   0.89802   0.00000  Uiso   1.00
C1260  C     0.99993   0.74995   0.10200   0.00000  Uiso   1.00
C1261  C     0.97886   0.68682   0.47984   0.00000  Uiso   1.00
C1262  C     0.52209   0.81289   0.52008   0.00000  Uiso   1.00
C1263  C     0.81290   0.52207   0.47987   0.00000  Uiso   1.00
C1264  C     0.68743   0.97733   0.52006   0.00000  Uiso   1.00
C1265  C     0.52124   0.81318   0.47989   0.00000  Uiso   1.00
C1266  C     0.97802   0.68709   0.52003   0.00000  Uiso   1.00
C1267  C     0.68715   0.97821   0.47988   0.00000  Uiso   1.00
C1268  C     0.81260   0.52287   0.52006   0.00000  Uiso   1.00
C1269  C     0.72793   0.93711   0.97992   0.00000  Uiso   1.00
C1270  C     0.77112   0.56319   0.02016   0.00000  Uiso   1.00
C1271  C     0.56257   0.77266   0.97994   0.00000  Uiso   1.00
C1272  C     0.93710   0.72794   0.02013   0.00000  Uiso   1.00
C1273  C     0.77196   0.56292   0.97996   0.00000  Uiso   1.00
C1274  C     0.72878   0.93681   0.02011   0.00000  Uiso   1.00
C1275  C     0.93740   0.72714   0.97994   0.00000  Uiso   1.00
C1276  C     0.56285   0.77179   0.02012   0.00000  Uiso   1.00
C1277  C     0.75004   0.50001   0.35573   0.00000  Uiso   1.00
C1278  C     0.75000   0.99999   0.64426   0.00000  Uiso   1.00
C1279  C     0.99999   0.75002   0.35572   0.00000  Uiso   1.00
C1280  C     0.50001   0.75001   0.64427   0.00000  Uiso   1.00
C1281  C     0.50000   0.75001   0.85574   0.00000  Uiso   1.00
C1282  C     0.99996   0.74999   0.14426   0.00000  Uiso   1.00
C1283  C     0.74999   0.99999   0.85573   0.00000  Uiso   1.00
C1284  C     0.75001   0.99998   0.14428   0.00000  Uiso   1.00
C1285  C     0.68007   0.56999   0.24998   0.00000  Uiso   1.00
C1286  C     0.81991   0.92999   0.75000   0.00000  Uiso   1.00
C1287  C     0.93009   0.67999   0.25001   0.00000  Uiso   1.00
C1288  C     0.56993   0.81999   0.74998   0.00000  Uiso   1.00
C1289  C     0.81999   0.93006   0.25000   0.00000  Uiso   1.00
C1290  C     0.68002   0.56994   0.75001   0.00000  Uiso   1.00
C1291  C     0.56999   0.81992   0.24997   0.00000  Uiso   1.00
C1292  C     0.93002   0.68007   0.75002   0.00000  Uiso   1.00
C1293  C     0.68007   0.93001   0.75002   0.00000  Uiso   1.00
C1294  C     0.81991   0.57001   0.24998   0.00000  Uiso   1.00
C1295  C     0.93009   0.82001   0.75000   0.00000  Uiso   1.00
C1296  C     0.56993   0.68001   0.25002   0.00000  Uiso   1.00
C1297  C     0.81998   0.56993   0.74998   0.00000  Uiso   1.00
C1298  C     0.68001   0.93007   0.25002   0.00000  Uiso   1.00
C1299  C     0.56999   0.68006   0.74999   0.00000  Uiso   1.00
C1300  C     0.93001   0.81994   0.25000   0.00000  Uiso   1.00
C1301  C     0.65884   0.86824   0.23078   0.00000  Uiso   1.00
C1302  C     0.84146   0.63147   0.76992   0.00000  Uiso   1.00
C1303  C     0.62915   0.65628   0.22571   0.00000  Uiso   1.00
C1304  C     0.86776   0.84059   0.76789   0.00000  Uiso   1.00
C1305  C     0.88173   0.59108   0.26911   0.00000  Uiso   1.00
C1306  C     0.61930   0.90789   0.72862   0.00000  Uiso   1.00
C1307  C     0.86797   0.84044   0.23250   0.00000  Uiso   1.00
C1308  C     0.63241   0.65995   0.76642   0.00000  Uiso   1.00
C1309  C     0.65969   0.63266   0.76698   0.00000  Uiso   1.00
C1310  C     0.84069   0.86772   0.23198   0.00000  Uiso   1.00
C1311  C     0.59209   0.88052   0.72892   0.00000  Uiso   1.00
C1312  C     0.90907   0.61832   0.26853   0.00000  Uiso   1.00
C1313  C     0.84044   0.86781   0.76726   0.00000  Uiso   1.00
C1314  C     0.65630   0.62885   0.22587   0.00000  Uiso   1.00
C1315  C     0.86875   0.65876   0.76943   0.00000  Uiso   1.00
C1316  C     0.63157   0.84092   0.23129   0.00000  Uiso   1.00
C1317  C     0.90854   0.61853   0.73008   0.00000  Uiso   1.00
C1318  C     0.59116   0.88176   0.26922   0.00000  Uiso   1.00
C1319  C     0.88224   0.90941   0.73211   0.00000  Uiso   1.00
C1320  C     0.62085   0.59372   0.27429   0.00000  Uiso   1.00
C1321  C     0.63070   0.84211   0.77138   0.00000  Uiso   1.00
C1322  C     0.86827   0.65892   0.23089   0.00000  Uiso   1.00
C1323  C     0.61759   0.59005   0.73358   0.00000  Uiso   1.00
C1324  C     0.88202   0.90955   0.26750   0.00000  Uiso   1.00
C1325  C     0.90931   0.88227   0.26802   0.00000  Uiso   1.00
C1326  C     0.59031   0.61734   0.73302   0.00000  Uiso   1.00
C1327  C     0.84093   0.63168   0.23147   0.00000  Uiso   1.00
C1328  C     0.65791   0.86948   0.77108   0.00000  Uiso   1.00
C1329  C     0.59370   0.62115   0.27413   0.00000  Uiso   1.00
C1330  C     0.90956   0.88219   0.73274   0.00000  Uiso   1.00
C1331  C     0.61843   0.90908   0.26870   0.00000  Uiso   1.00
C1332  C     0.88125   0.59124   0.73057   0.00000  Uiso   1.00
C1333  C     0.98984   0.71795   0.45891   0.00000  Uiso   1.00
C1334  C     0.51198   0.78147   0.54106   0.00000  Uiso   1.00
C1335  C     0.78197   0.51066   0.45892   0.00000  Uiso   1.00
C1336  C     0.71871   0.98775   0.54105   0.00000  Uiso   1.00
C1337  C     0.51020   0.78209   0.45893   0.00000  Uiso   1.00
C1338  C     0.98811   0.71850   0.54104   0.00000  Uiso   1.00
C1339  C     0.71813   0.98953   0.45894   0.00000  Uiso   1.00
C1340  C     0.78135   0.51234   0.54105   0.00000  Uiso   1.00
C1341  C     0.73803   0.96852   0.95894   0.00000  Uiso   1.00
C1342  C     0.76015   0.53206   0.04109   0.00000  Uiso   1.00
C1343  C     0.53129   0.76225   0.95895   0.00000  Uiso   1.00
C1344  C     0.96803   0.73934   0.04108   0.00000  Uiso   1.00
C1345  C     0.76188   0.53150   0.95896   0.00000  Uiso   1.00
C1346  C     0.73981   0.96790   0.04107   0.00000  Uiso   1.00
C1347  C     0.96865   0.73766   0.95895   0.00000  Uiso   1.00
C1348  C     0.53187   0.76047   0.04106   0.00000  Uiso   1.00
C1349  C     0.59803   0.84810   0.25024   0.00000  Uiso   1.00
C1350  C     0.90198   0.65189   0.74976   0.00000  Uiso   1.00
C1351  C     0.65185   0.59799   0.25015   0.00000  Uiso   1.00
C1352  C     0.84808   0.90193   0.74967   0.00000  Uiso   1.00
C1353  C     0.90192   0.65194   0.24971   0.00000  Uiso   1.00
C1354  C     0.59813   0.84801   0.75020   0.00000  Uiso   1.00
C1355  C     0.84803   0.90188   0.24973   0.00000  Uiso   1.00
C1356  C     0.65197   0.59811   0.75029   0.00000  Uiso   1.00
C1357  C     0.59803   0.65189   0.74971   0.00000  Uiso   1.00
C1358  C     0.90197   0.84811   0.25026   0.00000  Uiso   1.00
C1359  C     0.65187   0.90199   0.74980   0.00000  Uiso   1.00
C1360  C     0.84808   0.59806   0.25029   0.00000  Uiso   1.00
C1361  C     0.90192   0.84807   0.75033   0.00000  Uiso   1.00
C1362  C     0.59815   0.65201   0.24985   0.00000  Uiso   1.00
C1363  C     0.84802   0.59811   0.75024   0.00000  Uiso   1.00
C1364  C     0.65197   0.90189   0.24976   0.00000  Uiso   1.00
C1365  C     0.50003   0.75001   0.47941   0.00000  Uiso   1.00
C1366  C     0.50004   0.74999   0.52057   0.00000  Uiso   1.00
C1367  C     0.75004   0.50010   0.47942   0.00000  Uiso   1.00
C1368  C     0.75003   0.50007   0.52058   0.00000  Uiso   1.00
C1369  C     0.74996   0.50001   0.97943   0.00000  Uiso   1.00
C1370  C     0.74997   0.99999   0.02059   0.00000  Uiso   1.00
C1371  C     0.99997   0.74993   0.97942   0.00000  Uiso   1.00
C1372  C     0.99996   0.74990   0.02058   0.00000  Uiso   1.00
H1373  H     0.97040   0.66190   0.46542   0.00000  Uiso   1.00
H1374  H     0.53037   0.83790   0.53440   0.00000  Uiso   1.00
H1375  H     0.83767   0.53091   0.46547   0.00000  Uiso   1.00
H1376  H     0.66252   0.96881   0.53438   0.00000  Uiso   1.00
H1377  H     0.52977   0.83809   0.46551   0.00000  Uiso   1.00
H1378  H     0.96977   0.66207   0.53434   0.00000  Uiso   1.00
H1379  H     0.66234   0.96949   0.46547   0.00000  Uiso   1.00
H1380  H     0.83749   0.53145   0.53438   0.00000  Uiso   1.00
H1381  H     0.71966   0.91209   0.96560   0.00000  Uiso   1.00
H1382  H     0.77957   0.58811   0.03458   0.00000  Uiso   1.00
H1383  H     0.58748   0.78118   0.96562   0.00000  Uiso   1.00
H1384  H     0.91232   0.71910   0.03453   0.00000  Uiso   1.00
H1385  H     0.78020   0.58794   0.96566   0.00000  Uiso   1.00
H1386  H     0.72025   0.91190   0.03449   0.00000  Uiso   1.00
H1387  H     0.91251   0.71856   0.96562   0.00000  Uiso   1.00
H1388  H     0.58766   0.78050   0.03453   0.00000  Uiso   1.00
O1389  O     0.75000   0.50000   0.25000   0.00000  Uiso   1.00
O1390  O     0.75000   0.50000   0.75000   0.00000  Uiso   1.00
O1391  O     0.50000   0.75000   0.25000   0.00000  Uiso   1.00
O1392  O     0.50000   0.75000   0.75000   0.00000  Uiso   1.00
O1393  O     0.75000   0.96963   0.33755   0.00000  Uiso   1.00
O1394  O     0.75000   0.53036   0.66245   0.00000  Uiso   1.00
O1395  O     0.53037   0.75000   0.33755   0.00000  Uiso   1.00
O1396  O     0.96964   0.75000   0.66245   0.00000  Uiso   1.00
O1397  O     0.75000   0.53036   0.33755   0.00000  Uiso   1.00
O1398  O     0.75000   0.96963   0.66245   0.00000  Uiso   1.00
O1399  O     0.96964   0.75000   0.33755   0.00000  Uiso   1.00
O1400  O     0.53037   0.75000   0.66245   0.00000  Uiso   1.00
O1401  O     0.50000   0.71963   0.83755   0.00000  Uiso   1.00
O1402  O     0.50000   0.78036   0.16245   0.00000  Uiso   1.00
O1403  O     0.78037   0.50000   0.83755   0.00000  Uiso   1.00
O1404  O     0.71964   0.50000   0.16245   0.00000  Uiso   1.00
O1405  O     0.50000   0.78036   0.83755   0.00000  Uiso   1.00
O1406  O     0.50000   0.71963   0.16245   0.00000  Uiso   1.00
O1407  O     0.71964   0.50000   0.83755   0.00000  Uiso   1.00
O1408  O     0.78037   0.50000   0.16245   0.00000  Uiso   1.00
O1409  O     0.70725   0.57307   0.27302   0.00000  Uiso   1.00
O1410  O     0.79276   0.92692   0.72698   0.00000  Uiso   1.00
O1411  O     0.92693   0.70724   0.27302   0.00000  Uiso   1.00
O1412  O     0.57308   0.79275   0.72698   0.00000  Uiso   1.00
O1413  O     0.79276   0.92692   0.27302   0.00000  Uiso   1.00
O1414  O     0.70725   0.57307   0.72698   0.00000  Uiso   1.00
O1415  O     0.57308   0.79275   0.27302   0.00000  Uiso   1.00
O1416  O     0.92693   0.70724   0.72698   0.00000  Uiso   1.00
O1417  O     0.70725   0.92692   0.72698   0.00000  Uiso   1.00
O1418  O     0.79276   0.57307   0.27302   0.00000  Uiso   1.00
O1419  O     0.92693   0.79275   0.72698   0.00000  Uiso   1.00
O1420  O     0.57308   0.70724   0.27302   0.00000  Uiso   1.00
O1421  O     0.79276   0.57307   0.72698   0.00000  Uiso   1.00
O1422  O     0.70725   0.92692   0.27302   0.00000  Uiso   1.00
O1423  O     0.57308   0.70724   0.72698   0.00000  Uiso   1.00
O1424  O     0.92693   0.79275   0.27302   0.00000  Uiso   1.00
O1425  O     0.95725   0.82307   0.77302   0.00000  Uiso   1.00
O1426  O     0.54276   0.67692   0.22698   0.00000  Uiso   1.00
O1427  O     0.67693   0.95724   0.77302   0.00000  Uiso   1.00
O1428  O     0.82308   0.54275   0.22698   0.00000  Uiso   1.00
O1429  O     0.54276   0.67692   0.77302   0.00000  Uiso   1.00
O1430  O     0.95725   0.82307   0.22698   0.00000  Uiso   1.00
O1431  O     0.82308   0.54275   0.77302   0.00000  Uiso   1.00
O1432  O     0.67693   0.95724   0.22698   0.00000  Uiso   1.00
O1433  O     0.95725   0.67692   0.22698   0.00000  Uiso   1.00
O1434  O     0.54276   0.82307   0.77302   0.00000  Uiso   1.00
O1435  O     0.67693   0.54275   0.22698   0.00000  Uiso   1.00
O1436  O     0.82308   0.95724   0.77302   0.00000  Uiso   1.00
O1437  O     0.54276   0.82307   0.22698   0.00000  Uiso   1.00
O1438  O     0.95725   0.67692   0.77302   0.00000  Uiso   1.00
O1439  O     0.82308   0.95724   0.22698   0.00000  Uiso   1.00
O1440  O     0.67693   0.54275   0.77302   0.00000  Uiso   1.00
Zn1441 Zn    0.70660   0.50000   0.21735   0.00000  Uiso   1.00
Zn1442 Zn    0.79341   0.50000   0.78265   0.00000  Uiso   1.00
Zn1443 Zn    0.50000   0.70659   0.21735   0.00000  Uiso   1.00
Zn1444 Zn    0.50000   0.79340   0.78265   0.00000  Uiso   1.00
Zn1445 Zn    0.79341   0.50000   0.21735   0.00000  Uiso   1.00
Zn1446 Zn    0.70660   0.50000   0.78265   0.00000  Uiso   1.00
Zn1447 Zn    0.50000   0.79340   0.21735   0.00000  Uiso   1.00
Zn1448 Zn    0.50000   0.70659   0.78265   0.00000  Uiso   1.00
Zn1449 Zn    0.95660   0.75000   0.71735   0.00000  Uiso   1.00
Zn1450 Zn    0.54341   0.75000   0.28265   0.00000  Uiso   1.00
Zn1451 Zn    0.75000   0.95659   0.71735   0.00000  Uiso   1.00
Zn1452 Zn    0.75000   0.54340   0.28265   0.00000  Uiso   1.00
Zn1453 Zn    0.54341   0.75000   0.71735   0.00000  Uiso   1.00
Zn1454 Zn    0.95660   0.75000   0.28265   0.00000  Uiso   1.00
Zn1455 Zn    0.75000   0.54340   0.71735   0.00000  Uiso   1.00
Zn1456 Zn    0.75000   0.95659   0.28265   0.00000  Uiso   1.00
C1457  C     0.69466   0.86155   0.20943   0.00000  Uiso   1.00
H1458  H     0.71373   0.88510   0.20975   0.00000  Uiso   1.00
H1459  H     0.70930   0.83810   0.22282   0.00000  Uiso   1.00
H1460  H     0.68904   0.85561   0.17840   0.00000  Uiso   1.00
C1461  C     0.80593   0.63788   0.79188   0.00000  Uiso   1.00
H1462  H     0.78681   0.61437   0.79140   0.00000  Uiso   1.00
H1463  H     0.81196   0.64333   0.82292   0.00000  Uiso   1.00
H1464  H     0.79117   0.66156   0.77912   0.00000  Uiso   1.00
C1465  C     0.63342   0.68977   0.19986   0.00000  Uiso   1.00
H1466  H     0.61063   0.70964   0.20192   0.00000  Uiso   1.00
H1467  H     0.65870   0.70484   0.20791   0.00000  Uiso   1.00
H1468  H     0.63494   0.68112   0.16900   0.00000  Uiso   1.00
C1469  C     0.86052   0.80417   0.78790   0.00000  Uiso   1.00
H1470  H     0.88413   0.78521   0.78799   0.00000  Uiso   1.00
H1471  H     0.85350   0.80900   0.81883   0.00000  Uiso   1.00
H1472  H     0.83763   0.78977   0.77320   0.00000  Uiso   1.00
C1473  C     0.88840   0.55517   0.29033   0.00000  Uiso   1.00
H1474  H     0.86485   0.53610   0.29005   0.00000  Uiso   1.00
H1475  H     0.91177   0.54051   0.27682   0.00000  Uiso   1.00
H1476  H     0.89441   0.56076   0.32136   0.00000  Uiso   1.00
C1477  C     0.61351   0.94290   0.70554   0.00000  Uiso   1.00
H1478  H     0.63670   0.96238   0.70679   0.00000  Uiso   1.00
H1479  H     0.60950   0.93614   0.67441   0.00000  Uiso   1.00
H1480  H     0.58915   0.95765   0.71678   0.00000  Uiso   1.00
C1481  C     0.86192   0.80302   0.21403   0.00000  Uiso   1.00
H1482  H     0.88299   0.79813   0.19139   0.00000  Uiso   1.00
H1483  H     0.86415   0.78141   0.23654   0.00000  Uiso   1.00
H1484  H     0.83498   0.79939   0.20000   0.00000  Uiso   1.00
C1485  C     0.63888   0.69776   0.78383   0.00000  Uiso   1.00
H1486  H     0.61822   0.70321   0.80677   0.00000  Uiso   1.00
H1487  H     0.66607   0.70164   0.79724   0.00000  Uiso   1.00
H1488  H     0.63632   0.71890   0.76086   0.00000  Uiso   1.00
C1489  C     0.69641   0.64035   0.78609   0.00000  Uiso   1.00
H1490  H     0.71545   0.61679   0.78619   0.00000  Uiso   1.00
H1491  H     0.71043   0.66308   0.77070   0.00000  Uiso   1.00
H1492  H     0.69215   0.64782   0.81700   0.00000  Uiso   1.00
C1493  C     0.80436   0.86045   0.21189   0.00000  Uiso   1.00
H1494  H     0.78528   0.88397   0.21206   0.00000  Uiso   1.00
H1495  H     0.80922   0.85373   0.18088   0.00000  Uiso   1.00
H1496  H     0.79009   0.83734   0.22636   0.00000  Uiso   1.00
C1497  C     0.55636   0.88497   0.70681   0.00000  Uiso   1.00
H1498  H     0.53319   0.88418   0.72757   0.00000  Uiso   1.00
H1499  H     0.55387   0.91077   0.69027   0.00000  Uiso   1.00
H1500  H     0.55326   0.86219   0.68573   0.00000  Uiso   1.00
C1501  C     0.94606   0.61254   0.28785   0.00000  Uiso   1.00
H1502  H     0.96799   0.61422   0.26564   0.00000  Uiso   1.00
H1503  H     0.95066   0.63413   0.31001   0.00000  Uiso   1.00
H1504  H     0.94932   0.58589   0.30263   0.00000  Uiso   1.00
C1505  C     0.80292   0.86148   0.78521   0.00000  Uiso   1.00
H1506  H     0.79750   0.88262   0.80768   0.00000  Uiso   1.00
H1507  H     0.78177   0.86344   0.76225   0.00000  Uiso   1.00
H1508  H     0.79930   0.83453   0.79927   0.00000  Uiso   1.00
C1509  C     0.69030   0.63150   0.20050   0.00000  Uiso   1.00
H1510  H     0.69148   0.60759   0.18060   0.00000  Uiso   1.00
H1511  H     0.69180   0.65633   0.18224   0.00000  Uiso   1.00
H1512  H     0.71505   0.63144   0.21913   0.00000  Uiso   1.00
C1513  C     0.86347   0.69541   0.78976   0.00000  Uiso   1.00
H1514  H     0.88536   0.69936   0.81169   0.00000  Uiso   1.00
H1515  H     0.86503   0.71786   0.76811   0.00000  Uiso   1.00
H1516  H     0.83706   0.69852   0.80503   0.00000  Uiso   1.00
C1517  C     0.63717   0.80397   0.21164   0.00000  Uiso   1.00
H1518  H     0.61567   0.79972   0.18934   0.00000  Uiso   1.00
H1519  H     0.66384   0.80065   0.19693   0.00000  Uiso   1.00
H1520  H     0.63523   0.78177   0.23355   0.00000  Uiso   1.00
C1521  C     0.94407   0.61212   0.70812   0.00000  Uiso   1.00
H1522  H     0.96318   0.63564   0.70860   0.00000  Uiso   1.00
H1523  H     0.95883   0.58845   0.72088   0.00000  Uiso   1.00
H1524  H     0.93804   0.60667   0.67707   0.00000  Uiso   1.00
C1525  C     0.55534   0.88845   0.29057   0.00000  Uiso   1.00
H1526  H     0.53627   0.86490   0.29025   0.00000  Uiso   1.00
H1527  H     0.56097   0.89439   0.32160   0.00000  Uiso   1.00
H1528  H     0.54070   0.91190   0.27718   0.00000  Uiso   1.00
C1529  C     0.88948   0.94583   0.71210   0.00000  Uiso   1.00
H1530  H     0.86587   0.96479   0.71201   0.00000  Uiso   1.00
H1531  H     0.91237   0.96023   0.72680   0.00000  Uiso   1.00
H1532  H     0.89650   0.94100   0.68116   0.00000  Uiso   1.00
C1533  C     0.61658   0.56023   0.30014   0.00000  Uiso   1.00
H1534  H     0.63937   0.54035   0.29808   0.00000  Uiso   1.00
H1535  H     0.61506   0.56888   0.33100   0.00000  Uiso   1.00
H1536  H     0.59130   0.54516   0.29209   0.00000  Uiso   1.00
C1537  C     0.63649   0.80710   0.79446   0.00000  Uiso   1.00
H1538  H     0.61330   0.78762   0.79321   0.00000  Uiso   1.00
H1539  H     0.66085   0.79235   0.78321   0.00000  Uiso   1.00
H1540  H     0.64050   0.81386   0.82558   0.00000  Uiso   1.00
C1541  C     0.86160   0.69483   0.20967   0.00000  Uiso   1.00
H1542  H     0.88515   0.71390   0.20995   0.00000  Uiso   1.00
H1543  H     0.85559   0.68924   0.17864   0.00000  Uiso   1.00
H1544  H     0.83823   0.70949   0.22317   0.00000  Uiso   1.00
C1545  C     0.61112   0.55224   0.71617   0.00000  Uiso   1.00
H1546  H     0.63178   0.54680   0.69323   0.00000  Uiso   1.00
H1547  H     0.61369   0.53110   0.73914   0.00000  Uiso   1.00
H1548  H     0.58394   0.54836   0.70276   0.00000  Uiso   1.00
C1549  C     0.88808   0.94697   0.28597   0.00000  Uiso   1.00
H1550  H     0.86700   0.95187   0.30862   0.00000  Uiso   1.00
H1551  H     0.91502   0.95061   0.30001   0.00000  Uiso   1.00
H1552  H     0.88585   0.96859   0.26346   0.00000  Uiso   1.00
C1553  C     0.94564   0.88955   0.28811   0.00000  Uiso   1.00
H1554  H     0.96472   0.86603   0.28794   0.00000  Uiso   1.00
H1555  H     0.95991   0.91266   0.27364   0.00000  Uiso   1.00
H1556  H     0.94078   0.89627   0.31912   0.00000  Uiso   1.00
C1557  C     0.55359   0.60965   0.71391   0.00000  Uiso   1.00
H1558  H     0.53455   0.63321   0.71381   0.00000  Uiso   1.00
H1559  H     0.55785   0.60218   0.68300   0.00000  Uiso   1.00
H1560  H     0.53957   0.58692   0.72930   0.00000  Uiso   1.00
C1561  C     0.80394   0.63746   0.21215   0.00000  Uiso   1.00
H1562  H     0.78201   0.63579   0.23437   0.00000  Uiso   1.00
H1563  H     0.80068   0.66411   0.19737   0.00000  Uiso   1.00
H1564  H     0.79933   0.61587   0.18999   0.00000  Uiso   1.00
C1565  C     0.69364   0.86503   0.79319   0.00000  Uiso   1.00
H1566  H     0.71681   0.86581   0.77243   0.00000  Uiso   1.00
H1567  H     0.69675   0.88781   0.81427   0.00000  Uiso   1.00
H1568  H     0.69613   0.83923   0.80973   0.00000  Uiso   1.00
C1569  C     0.55970   0.61850   0.29950   0.00000  Uiso   1.00
H1570  H     0.55852   0.64241   0.31939   0.00000  Uiso   1.00
H1571  H     0.53495   0.61856   0.28087   0.00000  Uiso   1.00
H1572  H     0.55820   0.59366   0.31776   0.00000  Uiso   1.00
C1573  C     0.94708   0.88852   0.71479   0.00000  Uiso   1.00
H1574  H     0.95250   0.86738   0.69232   0.00000  Uiso   1.00
H1575  H     0.95070   0.91547   0.70073   0.00000  Uiso   1.00
H1576  H     0.96823   0.88655   0.73775   0.00000  Uiso   1.00
C1577  C     0.61283   0.94603   0.28835   0.00000  Uiso   1.00
H1578  H     0.63433   0.95029   0.31065   0.00000  Uiso   1.00
H1579  H     0.61477   0.96823   0.26644   0.00000  Uiso   1.00
H1580  H     0.58616   0.94936   0.30306   0.00000  Uiso   1.00
C1581  C     0.88653   0.55459   0.71024   0.00000  Uiso   1.00
H1582  H     0.86464   0.55064   0.68831   0.00000  Uiso   1.00
H1583  H     0.91295   0.55148   0.69498   0.00000  Uiso   1.00
H1584  H     0.88497   0.53214   0.73189   0.00000  Uiso   1.00
C1585  C     0.51754   0.81644   0.39602   0.00000  Uiso   1.00
O1586  O     0.54367   0.81771   0.37388   0.00000  Uiso   1.00
O1587  O     0.99505   0.84706   0.40082   0.00000  Uiso   1.00
H1588  H     0.50308   0.86854   0.38424   0.00000  Uiso   1.00
C1589  C     0.97319   0.68676   0.60414   0.00000  Uiso   1.00
O1590  O     0.99256   0.67191   0.62841   0.00000  Uiso   1.00
O1591  O     0.93764   0.67405   0.59758   0.00000  Uiso   1.00
H1592  H     0.93117   0.65232   0.61457   0.00000  Uiso   1.00
C1593  C     0.68407   0.98138   0.39605   0.00000  Uiso   1.00
O1594  O     0.68303   0.95454   0.37487   0.00000  Uiso   1.00
O1595  O     0.65342   0.50399   0.39982   0.00000  Uiso   1.00
H1596  H     0.63210   0.99543   0.38331   0.00000  Uiso   1.00
C1597  C     0.81299   0.52726   0.60417   0.00000  Uiso   1.00
O1598  O     0.82811   0.50775   0.62813   0.00000  Uiso   1.00
O1599  O     0.82536   0.56302   0.59793   0.00000  Uiso   1.00
H1600  H     0.84711   0.56951   0.61483   0.00000  Uiso   1.00
C1601  C     0.98214   0.68375   0.39597   0.00000  Uiso   1.00
O1602  O     0.95551   0.68249   0.37456   0.00000  Uiso   1.00
O1603  O     0.50491   0.65324   0.39994   0.00000  Uiso   1.00
H1604  H     0.99665   0.63182   0.38338   0.00000  Uiso   1.00
C1605  C     0.52686   0.81323   0.60413   0.00000  Uiso   1.00
O1606  O     0.50740   0.82818   0.62829   0.00000  Uiso   1.00
O1607  O     0.56241   0.82593   0.59756   0.00000  Uiso   1.00
H1608  H     0.56879   0.84785   0.61430   0.00000  Uiso   1.00
C1609  C     0.81619   0.51843   0.39599   0.00000  Uiso   1.00
O1610  O     0.81720   0.54467   0.37399   0.00000  Uiso   1.00
O1611  O     0.84700   0.99619   0.40064   0.00000  Uiso   1.00
H1612  H     0.86838   0.50449   0.38407   0.00000  Uiso   1.00
C1613  C     0.68722   0.97226   0.60412   0.00000  Uiso   1.00
O1614  O     0.67210   0.99138   0.62847   0.00000  Uiso   1.00
O1615  O     0.67502   0.93652   0.59741   0.00000  Uiso   1.00
H1616  H     0.65338   0.92969   0.61435   0.00000  Uiso   1.00
C1617  C     0.77680   0.56324   0.89585   0.00000  Uiso   1.00
O1618  O     0.75742   0.57809   0.87159   0.00000  Uiso   1.00
O1619  O     0.81234   0.57597   0.90242   0.00000  Uiso   1.00
H1620  H     0.81880   0.59769   0.88543   0.00000  Uiso   1.00
C1621  C     0.73248   0.93355   0.10398   0.00000  Uiso   1.00
O1622  O     0.70637   0.93228   0.12613   0.00000  Uiso   1.00
O1623  O     0.75499   0.90294   0.09917   0.00000  Uiso   1.00
H1624  H     0.74697   0.88145   0.11576   0.00000  Uiso   1.00
C1625  C     0.93700   0.72274   0.89583   0.00000  Uiso   1.00
O1626  O     0.92189   0.74226   0.87187   0.00000  Uiso   1.00
O1627  O     0.92464   0.68699   0.90207   0.00000  Uiso   1.00
H1628  H     0.90288   0.68051   0.88516   0.00000  Uiso   1.00
C1629  C     0.56593   0.76861   0.10395   0.00000  Uiso   1.00
O1630  O     0.56697   0.79546   0.12513   0.00000  Uiso   1.00
O1631  O     0.59658   0.74601   0.10019   0.00000  Uiso   1.00
H1632  H     0.61789   0.75456   0.11669   0.00000  Uiso   1.00
C1633  C     0.72316   0.93676   0.89587   0.00000  Uiso   1.00
O1634  O     0.74262   0.92182   0.87171   0.00000  Uiso   1.00
O1635  O     0.68761   0.92406   0.90244   0.00000  Uiso   1.00
H1636  H     0.68123   0.90213   0.88570   0.00000  Uiso   1.00
C1637  C     0.76783   0.56626   0.10403   0.00000  Uiso   1.00
O1638  O     0.79445   0.56753   0.12545   0.00000  Uiso   1.00
O1639  O     0.74506   0.59676   0.10005   0.00000  Uiso   1.00
H1640  H     0.75330   0.61819   0.11661   0.00000  Uiso   1.00
C1641  C     0.56279   0.77774   0.89588   0.00000  Uiso   1.00
O1642  O     0.57790   0.75861   0.87153   0.00000  Uiso   1.00
O1643  O     0.57499   0.81347   0.90259   0.00000  Uiso   1.00
H1644  H     0.59662   0.82030   0.88565   0.00000  Uiso   1.00
C1645  C     0.93381   0.73157   0.10401   0.00000  Uiso   1.00
O1646  O     0.93280   0.70533   0.12600   0.00000  Uiso   1.00
O1647  O     0.90301   0.75381   0.09937   0.00000  Uiso   1.00
H1648  H     0.88163   0.74551   0.11594   0.00000  Uiso   1.00
loop_
_geom_bond_atom_site_label_1
_geom_bond_atom_site_label_2
_geom_bond_distance
_geom_bond_site_symmetry_2
_ccdc_geom_bond_type
C1     C101    1.409   .     A
C1     C349    1.488   .     S
C1     C429    1.409   1_455 S
C2     C102    1.410   .     A
C2     C353    1.490   .     S
C2     C430    1.410   .     S
C3     C103    1.409   .     A
C3     C357    1.487   .     S
C3     C843    1.409   .     S
C4     C104    1.410   .     A
C4     C361    1.490   .     S
C4     C844    1.410   1_545 S
C5     C365    1.487   .     S
C5     C97     1.409   .     A
C5     C17     1.409   .     A
C6     C369    1.489   .     S
C6     C98     1.410   .     A
C6     C18     1.410   .     A
C7     C99     1.410   .     A
C7     C19     1.409   .     A
C7     C373    1.488   .     S
C8     C377    1.490   .     S
C8     C100    1.410   .     A
C8     C20     1.410   .     A
C9     C21     1.410   .     A
C9     C109    1.410   .     A
C9     C381    1.490   .     S
C10    C22     1.409   .     A
C10    C385    1.488   .     S
C10    C110    1.409   .     A
C11    C389    1.490   .     S
C11    C23     1.410   .     A
C11    C111    1.410   .     A
C12    C112    1.409   .     A
C12    C393    1.487   .     S
C12    C436    1.409   1_455 S
C13    C397    1.489   .     S
C13    C105    1.410   .     A
C13    C845    1.410   .     S
C14    C401    1.487   .     S
C14    C106    1.409   .     A
C14    C846    1.409   1_545 S
C15    C107    1.410   .     A
C15    C405    1.490   .     S
C15    C435    1.410   1_455 S
C16    C409    1.488   .     S
C16    C24     1.409   .     A
C16    C108    1.410   .     A
C17    C43     1.456   .     S
C17    C413    1.409   .     S
C18    C44     1.457   .     S
C18    C414    1.410   1_455 S
C19    C41     1.456   .     S
C19    C827    1.409   1_545 S
C20    C42     1.457   .     S
C20    C828    1.410   .     S
C21    C837    1.410   1_545 S
C21    C871    1.457   1_545 S
C22    C48     1.456   .     S
C22    C838    1.409   .     S
C23    C457    1.457   .     S
C23    C427    1.410   .     S
C24    C46     1.456   .     S
C24    C424    1.409   .     S
C25    H137    1.082   .     S
C25    C97     1.405   .     A
C25    C30     1.385   .     A
C26    H138    1.081   .     S
C26    C98     1.405   .     A
C26    C29     1.385   .     A
C27    C99     1.405   .     A
C27    H139    1.082   .     S
C27    C32     1.385   .     A
C28    C31     1.385   .     A
C28    H140    1.081   .     S
C28    C100    1.405   .     A
C29    H141    1.082   .     S
C29    C101    1.405   .     A
C30    C102    1.405   .     A
C30    H142    1.081   .     S
C31    H143    1.082   .     S
C31    C103    1.405   .     A
C32    C104    1.405   .     A
C32    H144    1.081   .     S
C33    C105    1.405   .     A
C33    H145    1.081   .     S
C33    C38     1.385   1_556 S
C34    C106    1.405   .     A
C34    H146    1.082   .     S
C34    C37     1.385   1_554 S
C35    C107    1.405   .     A
C35    H147    1.081   .     S
C35    C40     1.385   1_556 S
C36    H148    1.082   .     S
C36    C108    1.405   .     A
C36    C39     1.385   1_554 S
C37    C109    1.405   .     A
C37    H149    1.081   .     S
C37    C34     1.385   1_556 S
C38    C110    1.405   .     A
C38    H150    1.082   .     S
C38    C33     1.385   1_554 S
C39    C111    1.405   .     A
C39    H151    1.081   .     S
C39    C36     1.385   1_556 S
C40    C112    1.405   .     A
C40    H152    1.082   .     S
C40    C35     1.385   1_554 S
C41    O161    1.274   .     A
C41    O981    1.274   1_545 S
C42    O162    1.274   .     A
C42    O982    1.274   .     S
C43    O163    1.274   .     A
C43    O571    1.274   .     S
C44    O164    1.274   .     A
C44    O572    1.274   1_455 S
C45    O169    1.274   .     A
C45    C435    1.457   1_455 S
C45    O165    1.274   .     A
C46    O582    1.274   .     A
C46    O578    1.274   .     A
C47    O995    1.274   .     A
C47    O991    1.274   .     A
C47    C845    1.457   .     S
C48    O992    1.274   .     S
C48    O996    1.274   .     S
C49    O173    1.277   .     A
C49    C115    1.453   .     S
C49    O199    1.276   .     A
C50    O200    1.278   .     A
C50    O174    1.276   .     A
C50    C116    1.453   .     S
C51    O197    1.276   .     A
C51    C117    1.452   .     S
C51    O175    1.277   .     A
C52    O198    1.276   .     A
C52    C118    1.452   .     S
C52    O176    1.277   .     A
C53    O177    1.278   .     A
C53    O203    1.276   .     A
C53    C119    1.453   .     S
C54    O178    1.278   .     A
C54    O204    1.276   .     A
C54    C120    1.453   .     S
C55    O201    1.278   .     A
C55    O179    1.276   .     A
C55    C113    1.452   .     S
C56    O180    1.276   .     A
C56    O202    1.278   .     A
C56    C114    1.452   .     S
C57    C123    1.452   .     S
C57    O191    1.277   .     A
C57    O181    1.276   .     A
C58    O192    1.277   .     A
C58    O182    1.276   .     A
C58    C124    1.452   .     S
C59    O189    1.276   .     A
C59    O183    1.278   .     A
C59    C125    1.453   .     S
C60    O184    1.276   .     A
C60    O190    1.277   .     A
C60    C126    1.453   .     S
C61    C127    1.452   .     S
C61    O185    1.278   .     A
C61    O195    1.276   .     A
C62    O196    1.276   .     A
C62    O186    1.278   .     A
C62    C128    1.452   .     S
C63    O187    1.276   .     A
C63    O193    1.278   .     A
C63    C121    1.453   .     S
C64    O194    1.278   .     A
C64    O188    1.276   .     A
C64    C122    1.453   .     S
C65    C221    1.521   .     S
C65    C128    1.414   .     A
C65    C80     1.410   .     A
C66    C79     1.410   .     A
C66    C225    1.521   .     S
C66    C127    1.414   .     A
C67    C229    1.521   .     S
C67    C126    1.414   .     A
C67    C78     1.410   .     A
C68    C77     1.410   .     A
C68    C233    1.521   .     S
C68    C125    1.414   .     A
C69    C124    1.414   .     A
C69    C76     1.410   .     A
C69    C237    1.521   .     S
C70    C241    1.521   .     S
C70    C123    1.414   .     A
C70    C75     1.410   .     A
C71    C122    1.413   .     A
C71    C245    1.523   .     S
C71    C74     1.410   .     A
C72    C73     1.410   .     A
C72    C249    1.524   .     S
C72    C121    1.414   .     A
C73    C120    1.415   .     A
C73    C253    1.521   .     S
C74    C119    1.415   .     A
C74    C257    1.521   .     S
C75    C261    1.521   .     S
C75    C118    1.413   .     A
C76    C117    1.413   .     A
C76    C265    1.522   .     S
C77    C269    1.522   .     S
C77    C116    1.413   .     A
C78    C115    1.413   .     A
C78    C273    1.522   .     S
C79    C277    1.522   .     S
C79    C114    1.413   .     A
C80    C281    1.523   .     S
C80    C113    1.413   .     A
C81    C114    1.414   .     A
C81    C285    1.521   .     S
C81    C96     1.410   .     A
C82    C289    1.521   .     S
C82    C95     1.410   .     A
C82    C113    1.414   .     A
C83    C94     1.410   .     A
C83    C116    1.414   .     A
C83    C293    1.521   .     S
C84    C93     1.410   .     A
C84    C297    1.521   .     S
C84    C115    1.414   .     A
C85    C301    1.521   .     S
C85    C92     1.410   .     A
C85    C118    1.414   .     A
C86    C117    1.414   .     A
C86    C91     1.410   .     A
C86    C305    1.521   .     S
C87    C309    1.524   .     S
C87    C90     1.410   .     A
C87    C120    1.414   .     A
C88    C119    1.413   .     A
C88    C313    1.523   .     S
C88    C89     1.410   .     A
C89    C122    1.415   .     A
C89    C317    1.521   .     S
C90    C121    1.415   .     A
C90    C321    1.521   .     S
C91    C325    1.522   .     S
C91    C124    1.413   .     A
C92    C123    1.413   .     A
C92    C329    1.521   .     S
C93    C126    1.413   .     A
C93    C333    1.522   .     S
C94    C337    1.522   .     S
C94    C125    1.413   .     A
C95    C341    1.523   .     S
C95    C128    1.413   .     A
C96    C127    1.413   .     A
C96    C345    1.522   .     S
C97    C541    1.417   .     S
C98    C130    1.417   .     A
C99    C131    1.417   .     A
C100   C956    1.418   .     S
C101   C129    1.417   .     A
C102   C542    1.418   .     S
C103   C955    1.417   .     S
C104   C132    1.417   .     A
C105   C957    1.417   .     S
C106   C958    1.417   1_545 S
C107   C547    1.418   1_455 S
C108   C136    1.417   .     A
C109   C133    1.418   .     A
C110   C134    1.417   .     A
C111   C135    1.417   .     A
C112   C548    1.417   1_455 S
C129   C130    1.418   .     A
C129   C509    1.417   1_455 S
C130   C514    1.418   1_455 S
C131   C132    1.418   .     A
C131   C927    1.417   1_545 S
C132   C924    1.418   1_545 S
C133   C929    1.417   1_545 S
C133   C958    1.418   1_546 S
C134   C930    1.417   .     S
C134   C957    1.418   1_554 S
C135   C519    1.418   .     S
C135   C136    1.418   1_556 S
C136   C524    1.417   .     S
C136   C135    1.418   1_554 S
O153   Zn205   1.945   .     S
O153   Zn209   1.944   .     S
O153   Zn216   1.943   .     S
O153   Zn1044  1.944   1_545 S
O154   Zn1039  1.943   1_545 S
O154   Zn206   1.945   .     S
O154   Zn210   1.944   .     S
O154   Zn219   1.944   .     S
O155   Zn207   1.943   .     S
O155   Zn630   1.944   1_455 S
O155   Zn211   1.944   .     S
O155   Zn214   1.945   .     S
O156   Zn208   1.943   .     S
O156   Zn625   1.945   1_455 S
O156   Zn212   1.944   .     S
O156   Zn217   1.944   .     S
O157   Zn220   1.950   .     S
O157   C865    1.274   .     S
O158   Zn219   1.950   .     S
O158   C866    1.274   1_545 S
O159   Zn214   1.951   .     S
O159   C455    1.274   1_455 S
O160   Zn213   1.951   .     S
O160   C456    1.274   .     S
O161   Zn216   1.951   .     S
O162   Zn215   1.951   .     S
O163   Zn218   1.951   .     S
O164   Zn217   1.951   .     S
O165   Zn212   1.950   .     S
O166   Zn211   1.950   .     S
O166   C458    1.274   1_455 A
O167   C871    1.274   1_545 A
O167   Zn206   1.951   .     S
O168   Zn205   1.951   .     S
O168   C872    1.274   1_545 S
O169   Zn208   1.951   .     S
O170   C458    1.274   1_455 A
O170   Zn207   1.951   .     S
O171   C871    1.274   1_545 A
O171   Zn210   1.951   .     S
O172   Zn209   1.951   .     S
O172   C872    1.274   1_545 S
O173   Zn216   1.931   .     S
O174   Zn215   1.931   .     S
O175   Zn218   1.929   .     S
O176   Zn217   1.929   .     S
O177   Zn220   1.930   .     S
O178   Zn219   1.930   .     S
O179   Zn214   1.929   .     S
O180   Zn213   1.929   .     S
O181   Zn215   1.930   .     S
O182   Zn216   1.930   .     S
O183   Zn213   1.930   .     S
O184   Zn214   1.930   .     S
O185   Zn219   1.930   .     S
O186   Zn220   1.930   .     S
O187   Zn217   1.930   .     S
O188   Zn218   1.930   .     S
O189   Zn620   1.931   .     S
O190   Zn207   1.931   .     S
O191   Zn1034  1.929   .     S
O192   Zn209   1.929   .     S
O193   Zn212   1.930   .     S
O194   Zn623   1.930   .     S
O195   Zn206   1.929   .     S
O196   Zn1029  1.929   .     S
O197   Zn619   1.930   .     S
O198   Zn208   1.930   .     S
O199   Zn205   1.930   .     S
O200   Zn1030  1.930   .     S
O201   Zn211   1.930   .     S
O202   Zn624   1.930   .     S
O203   Zn1033  1.930   .     S
O204   Zn210   1.930   .     S
Zn205  O1020   1.929   1_545 S
Zn206  O1024   1.930   1_545 S
Zn207  O609    1.930   1_455 S
Zn208  O601    1.931   1_455 S
Zn209  O1027   1.930   1_545 S
Zn210  O1015   1.929   1_545 S
Zn211  O606    1.930   1_455 S
Zn212  O614    1.930   1_455 S
Zn213  O568    1.945   .     S
Zn215  O978    1.943   .     S
Zn218  O567    1.944   .     S
Zn220  O977    1.944   .     S
C221   H222    1.107   .     S
C221   H224    1.110   .     S
C221   H223    1.110   .     S
C225   H228    1.110   .     S
C225   H227    1.110   .     S
C225   H226    1.107   .     S
C229   H230    1.107   .     S
C229   H232    1.110   .     S
C229   H231    1.110   .     S
C233   H234    1.107   .     S
C233   H236    1.110   .     S
C233   H235    1.110   .     S
C237   H238    1.107   .     S
C237   H239    1.110   .     S
C237   H240    1.110   .     S
C241   H244    1.110   .     S
C241   H243    1.110   .     S
C241   H242    1.107   .     S
C245   H246    1.111   .     S
C245   H248    1.105   .     S
C245   H247    1.110   .     S
C249   H250    1.111   .     S
C249   H252    1.110   .     S
C249   H251    1.105   .     S
C253   H256    1.110   .     S
C253   H254    1.106   .     S
C253   H255    1.110   .     S
C257   H260    1.110   .     S
C257   H259    1.110   .     S
C257   H258    1.107   .     S
C261   H262    1.109   .     S
C261   H264    1.110   .     S
C261   H263    1.105   .     S
C265   H267    1.110   .     S
C265   H266    1.110   .     S
C265   H268    1.105   .     S
C269   H272    1.105   .     S
C269   H270    1.111   .     S
C269   H271    1.109   .     S
C273   H276    1.110   .     S
C273   H274    1.111   .     S
C273   H275    1.105   .     S
C277   H280    1.105   .     S
C277   H279    1.110   .     S
C277   H278    1.110   .     S
C281   H284    1.110   .     S
C281   H283    1.105   .     S
C281   H282    1.110   .     S
C285   H287    1.110   .     S
C285   H286    1.107   .     S
C285   H288    1.110   .     S
C289   H290    1.107   .     S
C289   H292    1.110   .     S
C289   H291    1.110   .     S
C293   H296    1.110   .     S
C293   H294    1.107   .     S
C293   H295    1.110   .     S
C297   H299    1.110   .     S
C297   H298    1.107   .     S
C297   H300    1.110   .     S
C301   H302    1.107   .     S
C301   H304    1.110   .     S
C301   H303    1.110   .     S
C305   H307    1.110   .     S
C305   H306    1.107   .     S
C305   H308    1.110   .     S
C309   H310    1.111   .     S
C309   H312    1.105   .     S
C309   H311    1.110   .     S
C313   H315    1.105   .     S
C313   H314    1.111   .     S
C313   H316    1.110   .     S
C317   H320    1.110   .     S
C317   H319    1.110   .     S
C317   H318    1.107   .     S
C321   H322    1.106   .     S
C321   H324    1.110   .     S
C321   H323    1.110   .     S
C325   H327    1.105   .     S
C325   H326    1.110   .     S
C325   H328    1.110   .     S
C329   H331    1.110   .     S
C329   H330    1.109   .     S
C329   H332    1.105   .     S
C333   H336    1.105   .     S
C333   H334    1.111   .     S
C333   H335    1.110   .     S
C337   H338    1.111   .     S
C337   H340    1.109   .     S
C337   H339    1.105   .     S
C341   H343    1.110   .     S
C341   H344    1.105   .     S
C341   H342    1.110   .     S
C345   H347    1.105   .     S
C345   H348    1.110   .     S
C345   H346    1.110   .     S
C349   O350    1.223   .     D
C349   O763    1.398   1_455 S
O351   C761    1.398   .     S
O351   H764    1.014   .     S
H352   O763    1.014   1_455 S
C353   O355    1.398   .     S
C353   O354    1.223   .     D
O355   H356    1.014   .     S
C357   O358    1.222   .     D
C357   O1183   1.398   .     S
O359   C1181   1.398   1_545 S
O359   H1184   1.014   1_545 S
H360   O1183   1.014   .     S
C361   O363    1.398   .     S
C361   O362    1.223   .     D
O363   H364    1.014   .     S
C365   O366    1.223   .     D
C365   O779    1.398   .     S
O367   C777    1.398   1_455 S
O367   H780    1.014   1_455 S
H368   O779    1.014   .     S
C369   O371    1.398   .     S
C369   O370    1.223   .     D
O371   H372    1.014   .     S
C373   O374    1.223   .     D
C373   O1199   1.398   1_545 S
O375   C1197   1.398   .     S
O375   H1200   1.014   .     S
H376   O1199   1.014   1_545 S
C377   O379    1.398   .     S
C377   O378    1.223   .     D
O379   H380    1.014   .     S
C381   O382    1.223   .     D
C381   O383    1.398   .     S
O383   H384    1.014   .     S
C385   O387    1.398   .     S
C385   O386    1.223   .     D
O387   H388    1.014   .     S
C389   O391    1.398   .     S
C389   O390    1.223   .     D
O391   H392    1.014   .     S
C393   O394    1.222   .     D
C393   O395    1.398   .     S
O395   H396    1.014   .     S
C397   O399    1.398   .     S
C397   O398    1.223   .     D
O399   H400    1.014   .     S
C401   O403    1.398   .     S
C401   O402    1.223   .     D
O403   H404    1.014   .     S
C405   O406    1.223   .     D
C405   O407    1.398   .     S
O407   H408    1.014   .     S
C409   O410    1.223   .     D
C409   O411    1.398   .     S
O411   H412    1.014   .     S
C413   C513    1.409   .     A
C413   C761    1.488   .     S
C414   C514    1.410   .     A
C414   C765    1.490   .     S
C414   C18     1.410   1_655 S
C415   C515    1.409   .     A
C415   C769    1.487   .     S
C415   C1255   1.409   .     S
C416   C516    1.410   .     A
C416   C773    1.490   .     S
C416   C1256   1.410   1_545 S
C417   C777    1.487   .     S
C417   C509    1.409   .     A
C417   C429    1.409   .     A
C418   C781    1.489   .     S
C418   C510    1.410   .     A
C418   C430    1.410   .     A
C419   C511    1.410   .     A
C419   C431    1.409   .     A
C419   C785    1.488   .     S
C420   C789    1.490   .     S
C420   C512    1.410   .     A
C420   C432    1.410   .     A
C421   C433    1.410   .     A
C421   C521    1.410   .     A
C421   C793    1.490   .     S
C422   C434    1.409   .     A
C422   C797    1.488   .     S
C422   C522    1.409   .     A
C423   C801    1.490   .     S
C423   C435    1.410   .     A
C423   C523    1.410   .     A
C424   C524    1.409   .     A
C424   C805    1.487   .     S
C425   C809    1.489   .     S
C425   C517    1.410   .     A
C425   C1257   1.410   .     S
C426   C813    1.487   .     S
C426   C518    1.409   .     A
C426   C1258   1.409   1_545 S
C427   C519    1.410   .     A
C427   C817    1.490   .     S
C428   C821    1.488   .     S
C428   C436    1.409   .     A
C428   C520    1.410   .     A
C429   C455    1.456   .     S
C429   C1      1.409   1_655 S
C430   C456    1.457   .     S
C431   C453    1.456   .     S
C431   C1239   1.409   1_545 S
C432   C454    1.457   .     S
C432   C1240   1.410   .     S
C433   C1249   1.410   1_545 S
C433   C1283   1.457   1_545 S
C434   C460    1.456   .     S
C434   C1250   1.409   .     S
C435   C45     1.457   1_655 S
C435   C15     1.410   1_655 S
C436   C458    1.456   .     S
C436   C12     1.409   1_655 S
C437   H549    1.082   .     S
C437   C509    1.405   .     A
C437   C442    1.385   .     A
C438   H550    1.081   .     S
C438   C510    1.405   .     A
C438   C441    1.385   .     A
C439   C511    1.405   .     A
C439   H551    1.082   .     S
C439   C444    1.385   .     A
C440   C443    1.385   .     A
C440   H552    1.081   .     S
C440   C512    1.405   .     A
C441   H553    1.082   .     S
C441   C513    1.405   .     A
C442   C514    1.405   .     A
C442   H554    1.081   .     S
C443   H555    1.082   .     S
C443   C515    1.405   .     A
C444   C516    1.405   .     A
C444   H556    1.081   .     S
C445   C517    1.405   .     A
C445   H557    1.081   .     S
C445   C450    1.385   1_556 S
C446   C518    1.405   .     A
C446   H558    1.082   .     S
C446   C449    1.385   1_554 S
C447   C519    1.405   .     A
C447   H559    1.081   .     S
C447   C452    1.385   1_556 S
C448   H560    1.082   .     S
C448   C520    1.405   .     A
C448   C451    1.385   1_554 S
C449   C521    1.405   .     A
C449   H561    1.081   .     S
C449   C446    1.385   1_556 S
C450   C522    1.405   .     A
C450   H562    1.082   .     S
C450   C445    1.385   1_554 S
C451   C523    1.405   .     A
C451   H563    1.081   .     S
C451   C448    1.385   1_556 S
C452   C524    1.405   .     A
C452   H564    1.082   .     S
C452   C447    1.385   1_554 S
C453   O573    1.274   .     A
C453   O1393   1.274   1_545 S
C454   O574    1.274   .     A
C454   O1394   1.274   .     S
C455   O575    1.274   .     A
C455   O159    1.274   1_655 S
C456   O576    1.274   .     A
C457   O581    1.274   .     A
C457   O577    1.274   .     A
C458   O170    1.274   1_655 A
C458   O166    1.274   1_655 A
C459   O1407   1.274   .     A
C459   O1403   1.274   .     A
C459   C1257   1.457   .     S
C460   O1404   1.274   .     S
C460   O1408   1.274   .     S
C461   O585    1.277   .     A
C461   C527    1.453   .     S
C461   O611    1.276   .     A
C462   O612    1.278   .     A
C462   O586    1.276   .     A
C462   C528    1.453   .     S
C463   O609    1.276   .     A
C463   C529    1.452   .     S
C463   O587    1.277   .     A
C464   O610    1.276   .     A
C464   C530    1.452   .     S
C464   O588    1.277   .     A
C465   O589    1.278   .     A
C465   O615    1.276   .     A
C465   C531    1.453   .     S
C466   O590    1.278   .     A
C466   O616    1.276   .     A
C466   C532    1.453   .     S
C467   O613    1.278   .     A
C467   O591    1.276   .     A
C467   C525    1.452   .     S
C468   O592    1.276   .     A
C468   O614    1.278   .     A
C468   C526    1.452   .     S
C469   C535    1.452   .     S
C469   O603    1.277   .     A
C469   O593    1.276   .     A
C470   O604    1.277   .     A
C470   O594    1.276   .     A
C470   C536    1.452   .     S
C471   O601    1.276   .     A
C471   O595    1.278   .     A
C471   C537    1.453   .     S
C472   O596    1.276   .     A
C472   O602    1.277   .     A
C472   C538    1.453   .     S
C473   C539    1.452   .     S
C473   O597    1.278   .     A
C473   O607    1.276   .     A
C474   O608    1.276   .     A
C474   O598    1.278   .     A
C474   C540    1.452   .     S
C475   O599    1.276   .     A
C475   O605    1.278   .     A
C475   C533    1.453   .     S
C476   O606    1.278   .     A
C476   O600    1.276   .     A
C476   C534    1.453   .     S
C477   C633    1.521   .     S
C477   C540    1.414   .     A
C477   C492    1.410   .     A
C478   C491    1.410   .     A
C478   C637    1.521   .     S
C478   C539    1.414   .     A
C479   C641    1.521   .     S
C479   C538    1.414   .     A
C479   C490    1.410   .     A
C480   C489    1.410   .     A
C480   C645    1.521   .     S
C480   C537    1.414   .     A
C481   C536    1.414   .     A
C481   C488    1.410   .     A
C481   C649    1.521   .     S
C482   C653    1.521   .     S
C482   C535    1.414   .     A
C482   C487    1.410   .     A
C483   C534    1.413   .     A
C483   C657    1.523   .     S
C483   C486    1.410   .     A
C484   C485    1.410   .     A
C484   C661    1.524   .     S
C484   C533    1.414   .     A
C485   C532    1.415   .     A
C485   C665    1.521   .     S
C486   C531    1.415   .     A
C486   C669    1.521   .     S
C487   C673    1.521   .     S
C487   C530    1.413   .     A
C488   C529    1.413   .     A
C488   C677    1.522   .     S
C489   C681    1.522   .     S
C489   C528    1.413   .     A
C490   C527    1.413   .     A
C490   C685    1.522   .     S
C491   C689    1.522   .     S
C491   C526    1.413   .     A
C492   C693    1.523   .     S
C492   C525    1.413   .     A
C493   C526    1.414   .     A
C493   C697    1.521   .     S
C493   C508    1.410   .     A
C494   C701    1.521   .     S
C494   C507    1.410   .     A
C494   C525    1.414   .     A
C495   C506    1.410   .     A
C495   C528    1.414   .     A
C495   C705    1.521   .     S
C496   C505    1.410   .     A
C496   C709    1.521   .     S
C496   C527    1.414   .     A
C497   C713    1.521   .     S
C497   C504    1.410   .     A
C497   C530    1.414   .     A
C498   C529    1.414   .     A
C498   C503    1.410   .     A
C498   C717    1.521   .     S
C499   C721    1.524   .     S
C499   C502    1.410   .     A
C499   C532    1.414   .     A
C500   C531    1.413   .     A
C500   C725    1.523   .     S
C500   C501    1.410   .     A
C501   C534    1.415   .     A
C501   C729    1.521   .     S
C502   C533    1.415   .     A
C502   C733    1.521   .     S
C503   C737    1.522   .     S
C503   C536    1.413   .     A
C504   C535    1.413   .     A
C504   C741    1.521   .     S
C505   C538    1.413   .     A
C505   C745    1.522   .     S
C506   C749    1.522   .     S
C506   C537    1.413   .     A
C507   C753    1.523   .     S
C507   C540    1.413   .     A
C508   C539    1.413   .     A
C508   C757    1.522   .     S
C509   C129    1.417   1_655 S
C510   C542    1.417   .     A
C511   C543    1.417   .     A
C512   C1368   1.418   .     S
C513   C541    1.417   .     A
C514   C130    1.418   1_655 S
C515   C1367   1.417   .     S
C516   C544    1.417   .     A
C517   C1369   1.417   .     S
C518   C1370   1.417   1_545 S
C520   C548    1.417   .     A
C521   C545    1.418   .     A
C522   C546    1.417   .     A
C523   C547    1.417   .     A
C541   C542    1.418   .     A
C543   C544    1.418   .     A
C543   C1339   1.417   1_545 S
C544   C1336   1.418   1_545 S
C545   C1341   1.417   1_545 S
C545   C1370   1.418   1_546 S
C546   C1342   1.417   .     S
C546   C1369   1.418   1_554 S
C547   C107    1.418   1_655 S
C547   C548    1.418   1_556 S
C548   C112    1.417   1_655 S
C548   C547    1.418   1_554 S
O565   Zn617   1.945   .     S
O565   Zn621   1.944   .     S
O565   Zn628   1.943   .     S
O565   Zn1456  1.944   1_545 S
O566   Zn1451  1.943   1_545 S
O566   Zn618   1.945   .     S
O566   Zn622   1.944   .     S
O566   Zn631   1.944   .     S
O567   Zn619   1.943   .     S
O567   Zn623   1.944   .     S
O567   Zn626   1.945   .     S
O568   Zn620   1.943   .     S
O568   Zn624   1.944   .     S
O568   Zn629   1.944   .     S
O569   Zn632   1.950   .     S
O569   C1277   1.274   .     S
O570   Zn631   1.950   .     S
O570   C1278   1.274   1_545 S
O571   Zn626   1.951   .     S
O572   Zn625   1.951   .     S
O572   C44     1.274   1_655 S
O573   Zn628   1.951   .     S
O574   Zn627   1.951   .     S
O575   Zn630   1.951   .     S
O576   Zn629   1.951   .     S
O577   Zn624   1.950   .     S
O578   Zn623   1.950   .     S
O579   C1283   1.274   1_545 A
O579   Zn618   1.951   .     S
O580   Zn617   1.951   .     S
O580   C1284   1.274   1_545 S
O581   Zn620   1.951   .     S
O582   Zn619   1.951   .     S
O583   C1283   1.274   1_545 A
O583   Zn622   1.951   .     S
O584   Zn621   1.951   .     S
O584   C1284   1.274   1_545 S
O585   Zn628   1.931   .     S
O586   Zn627   1.931   .     S
O587   Zn630   1.929   .     S
O588   Zn629   1.929   .     S
O589   Zn632   1.930   .     S
O590   Zn631   1.930   .     S
O591   Zn626   1.929   .     S
O592   Zn625   1.929   .     S
O593   Zn627   1.930   .     S
O594   Zn628   1.930   .     S
O595   Zn625   1.930   .     S
O596   Zn626   1.930   .     S
O597   Zn631   1.930   .     S
O598   Zn632   1.930   .     S
O599   Zn629   1.930   .     S
O600   Zn630   1.930   .     S
O601   Zn208   1.931   1_655 S
O602   Zn619   1.931   .     S
O603   Zn1446  1.929   .     S
O604   Zn621   1.929   .     S
O605   Zn624   1.930   .     S
O606   Zn211   1.930   1_655 S
O607   Zn618   1.929   .     S
O608   Zn1441  1.929   .     S
O609   Zn207   1.930   1_655 S
O610   Zn620   1.930   .     S
O611   Zn617   1.930   .     S
O612   Zn1442  1.930   .     S
O613   Zn623   1.930   .     S
O614   Zn212   1.930   1_655 S
O615   Zn1445  1.930   .     S
O616   Zn622   1.930   .     S
Zn617  O1432   1.929   1_545 S
Zn618  O1436   1.930   1_545 S
Zn621  O1439   1.930   1_545 S
Zn622  O1427   1.929   1_545 S
Zn625  O156    1.945   1_655 S
Zn627  O1390   1.943   .     S
Zn630  O155    1.944   1_655 S
Zn632  O1389   1.944   .     S
C633   H634    1.107   .     S
C633   H636    1.110   .     S
C633   H635    1.110   .     S
C637   H640    1.110   .     S
C637   H639    1.110   .     S
C637   H638    1.107   .     S
C641   H642    1.107   .     S
C641   H644    1.110   .     S
C641   H643    1.110   .     S
C645   H646    1.107   .     S
C645   H648    1.110   .     S
C645   H647    1.110   .     S
C649   H650    1.107   .     S
C649   H651    1.110   .     S
C649   H652    1.110   .     S
C653   H656    1.110   .     S
C653   H655    1.110   .     S
C653   H654    1.107   .     S
C657   H658    1.111   .     S
C657   H660    1.105   .     S
C657   H659    1.110   .     S
C661   H662    1.111   .     S
C661   H664    1.110   .     S
C661   H663    1.105   .     S
C665   H668    1.110   .     S
C665   H666    1.106   .     S
C665   H667    1.110   .     S
C669   H672    1.110   .     S
C669   H671    1.110   .     S
C669   H670    1.107   .     S
C673   H674    1.109   .     S
C673   H676    1.110   .     S
C673   H675    1.105   .     S
C677   H679    1.110   .     S
C677   H678    1.110   .     S
C677   H680    1.105   .     S
C681   H684    1.105   .     S
C681   H682    1.111   .     S
C681   H683    1.109   .     S
C685   H688    1.110   .     S
C685   H686    1.111   .     S
C685   H687    1.105   .     S
C689   H692    1.105   .     S
C689   H691    1.110   .     S
C689   H690    1.110   .     S
C693   H696    1.110   .     S
C693   H695    1.105   .     S
C693   H694    1.110   .     S
C697   H699    1.110   .     S
C697   H698    1.107   .     S
C697   H700    1.110   .     S
C701   H702    1.107   .     S
C701   H704    1.110   .     S
C701   H703    1.110   .     S
C705   H708    1.110   .     S
C705   H706    1.107   .     S
C705   H707    1.110   .     S
C709   H711    1.110   .     S
C709   H710    1.107   .     S
C709   H712    1.110   .     S
C713   H714    1.107   .     S
C713   H716    1.110   .     S
C713   H715    1.110   .     S
C717   H719    1.110   .     S
C717   H718    1.107   .     S
C717   H720    1.110   .     S
C721   H722    1.111   .     S
C721   H724    1.105   .     S
C721   H723    1.110   .     S
C725   H727    1.105   .     S
C725   H726    1.111   .     S
C725   H728    1.110   .     S
C729   H732    1.110   .     S
C729   H731    1.110   .     S
C729   H730    1.107   .     S
C733   H734    1.106   .     S
C733   H736    1.110   .     S
C733   H735    1.110   .     S
C737   H739    1.105   .     S
C737   H738    1.110   .     S
C737   H740    1.110   .     S
C741   H743    1.110   .     S
C741   H742    1.109   .     S
C741   H744    1.105   .     S
C745   H748    1.105   .     S
C745   H746    1.111   .     S
C745   H747    1.110   .     S
C749   H750    1.111   .     S
C749   H752    1.109   .     S
C749   H751    1.105   .     S
C753   H755    1.110   .     S
C753   H756    1.105   .     S
C753   H754    1.110   .     S
C757   H759    1.105   .     S
C757   H760    1.110   .     S
C757   H758    1.110   .     S
C761   O762    1.223   .     D
O763   C349    1.398   1_655 S
O763   H352    1.014   1_655 S
C765   O767    1.398   .     S
C765   O766    1.223   .     D
O767   H768    1.014   .     S
C769   O770    1.222   .     D
C769   O1595   1.398   .     S
O771   C1593   1.398   1_545 S
O771   H1596   1.014   1_545 S
H772   O1595   1.014   .     S
C773   O775    1.398   .     S
C773   O774    1.223   .     D
O775   H776    1.014   .     S
C777   O778    1.223   .     D
C777   O367    1.398   1_655 S
H780   O367    1.014   1_655 S
C781   O783    1.398   .     S
C781   O782    1.223   .     D
O783   H784    1.014   .     S
C785   O786    1.223   .     D
C785   O1611   1.398   1_545 S
O787   C1609   1.398   .     S
O787   H1612   1.014   .     S
H788   O1611   1.014   1_545 S
C789   O791    1.398   .     S
C789   O790    1.223   .     D
O791   H792    1.014   .     S
C793   O794    1.223   .     D
C793   O795    1.398   .     S
O795   H796    1.014   .     S
C797   O799    1.398   .     S
C797   O798    1.223   .     D
O799   H800    1.014   .     S
C801   O803    1.398   .     S
C801   O802    1.223   .     D
O803   H804    1.014   .     S
C805   O806    1.222   .     D
C805   O807    1.398   .     S
O807   H808    1.014   .     S
C809   O811    1.398   .     S
C809   O810    1.223   .     D
O811   H812    1.014   .     S
C813   O815    1.398   .     S
C813   O814    1.223   .     D
O815   H816    1.014   .     S
C817   O818    1.223   .     D
C817   O819    1.398   .     S
O819   H820    1.014   .     S
C821   O822    1.223   .     D
C821   O823    1.398   .     S
O823   H824    1.014   .     S
C825   C925    1.409   .     A
C825   C1173   1.488   .     S
C825   C1253   1.409   1_455 S
C826   C926    1.410   .     A
C826   C1177   1.490   .     S
C826   C1254   1.410   .     S
C827   C927    1.409   .     A
C827   C1181   1.487   .     S
C827   C19     1.409   1_565 S
C828   C928    1.410   .     A
C828   C1185   1.490   .     S
C829   C1189   1.487   .     S
C829   C921    1.409   .     A
C829   C841    1.409   .     A
C830   C1193   1.489   .     S
C830   C922    1.410   .     A
C830   C842    1.410   .     A
C831   C923    1.410   .     A
C831   C843    1.409   .     A
C831   C1197   1.488   .     S
C832   C1201   1.490   .     S
C832   C924    1.410   .     A
C832   C844    1.410   .     A
C833   C845    1.410   .     A
C833   C933    1.410   .     A
C833   C1205   1.490   .     S
C834   C846    1.409   .     A
C834   C1209   1.488   .     S
C834   C934    1.409   .     A
C835   C1213   1.490   .     S
C835   C847    1.410   .     A
C835   C935    1.410   .     A
C836   C936    1.409   .     A
C836   C1217   1.487   .     S
C836   C1260   1.409   1_455 S
C837   C1221   1.489   .     S
C837   C929    1.410   .     A
C837   C21     1.410   1_565 S
C838   C1225   1.487   .     S
C838   C930    1.409   .     A
C839   C931    1.410   .     A
C839   C1229   1.490   .     S
C839   C1259   1.410   1_455 S
C840   C1233   1.488   .     S
C840   C848    1.409   .     A
C840   C932    1.410   .     A
C841   C867    1.456   .     S
C841   C1237   1.409   .     S
C842   C868    1.457   .     S
C842   C1238   1.410   1_455 S
C843   C865    1.456   .     S
C844   C866    1.457   .     S
C844   C4      1.410   1_565 S
C846   C872    1.456   .     S
C846   C14     1.409   1_565 S
C847   C1281   1.457   .     S
C847   C1251   1.410   .     S
C848   C870    1.456   .     S
C848   C1248   1.409   .     S
C849   H961    1.082   .     S
C849   C921    1.405   .     A
C849   C854    1.385   .     A
C850   H962    1.081   .     S
C850   C922    1.405   .     A
C850   C853    1.385   .     A
C851   C923    1.405   .     A
C851   H963    1.082   .     S
C851   C856    1.385   .     A
C852   C855    1.385   .     A
C852   H964    1.081   .     S
C852   C924    1.405   .     A
C853   H965    1.082   .     S
C853   C925    1.405   .     A
C854   C926    1.405   .     A
C854   H966    1.081   .     S
C855   H967    1.082   .     S
C855   C927    1.405   .     A
C856   C928    1.405   .     A
C856   H968    1.081   .     S
C857   C929    1.405   .     A
C857   H969    1.081   .     S
C857   C862    1.385   1_556 S
C858   C930    1.405   .     A
C858   H970    1.082   .     S
C858   C861    1.385   1_554 S
C859   C931    1.405   .     A
C859   H971    1.081   .     S
C859   C864    1.385   1_556 S
C860   H972    1.082   .     S
C860   C932    1.405   .     A
C860   C863    1.385   1_554 S
C861   C933    1.405   .     A
C861   H973    1.081   .     S
C861   C858    1.385   1_556 S
C862   C934    1.405   .     A
C862   H974    1.082   .     S
C862   C857    1.385   1_554 S
C863   C935    1.405   .     A
C863   H975    1.081   .     S
C863   C860    1.385   1_556 S
C864   C936    1.405   .     A
C864   H976    1.082   .     S
C864   C859    1.385   1_554 S
C865   O985    1.274   .     A
C866   O986    1.274   .     A
C866   O158    1.274   1_565 S
C867   O987    1.274   .     A
C867   O1395   1.274   .     S
C868   O988    1.274   .     A
C868   O1396   1.274   1_455 S
C869   O993    1.274   .     A
C869   C1259   1.457   1_455 S
C869   O989    1.274   .     A
C870   O1406   1.274   .     A
C870   O1402   1.274   .     A
C871   O171    1.274   1_565 A
C871   O167    1.274   1_565 A
C871   C21     1.457   1_565 S
C872   O168    1.274   1_565 S
C872   O172    1.274   1_565 S
C873   O997    1.277   .     A
C873   C939    1.453   .     S
C873   O1023   1.276   .     A
C874   O1024   1.278   .     A
C874   O998    1.276   .     A
C874   C940    1.453   .     S
C875   O1021   1.276   .     A
C875   C941    1.452   .     S
C875   O999    1.277   .     A
C876   O1022   1.276   .     A
C876   C942    1.452   .     S
C876   O1000   1.277   .     A
C877   O1001   1.278   .     A
C877   O1027   1.276   .     A
C877   C943    1.453   .     S
C878   O1002   1.278   .     A
C878   O1028   1.276   .     A
C878   C944    1.453   .     S
C879   O1025   1.278   .     A
C879   O1003   1.276   .     A
C879   C937    1.452   .     S
C880   O1004   1.276   .     A
C880   O1026   1.278   .     A
C880   C938    1.452   .     S
C881   C947    1.452   .     S
C881   O1015   1.277   .     A
C881   O1005   1.276   .     A
C882   O1016   1.277   .     A
C882   O1006   1.276   .     A
C882   C948    1.452   .     S
C883   O1013   1.276   .     A
C883   O1007   1.278   .     A
C883   C949    1.453   .     S
C884   O1008   1.276   .     A
C884   O1014   1.277   .     A
C884   C950    1.453   .     S
C885   C951    1.452   .     S
C885   O1009   1.278   .     A
C885   O1019   1.276   .     A
C886   O1020   1.276   .     A
C886   O1010   1.278   .     A
C886   C952    1.452   .     S
C887   O1011   1.276   .     A
C887   O1017   1.278   .     A
C887   C945    1.453   .     S
C888   O1018   1.278   .     A
C888   O1012   1.276   .     A
C888   C946    1.453   .     S
C889   C1045   1.521   .     S
C889   C952    1.414   .     A
C889   C904    1.410   .     A
C890   C903    1.410   .     A
C890   C1049   1.521   .     S
C890   C951    1.414   .     A
C891   C1053   1.521   .     S
C891   C950    1.414   .     A
C891   C902    1.410   .     A
C892   C901    1.410   .     A
C892   C1057   1.521   .     S
C892   C949    1.414   .     A
C893   C948    1.414   .     A
C893   C900    1.410   .     A
C893   C1061   1.521   .     S
C894   C1065   1.521   .     S
C894   C947    1.414   .     A
C894   C899    1.410   .     A
C895   C946    1.413   .     A
C895   C1069   1.523   .     S
C895   C898    1.410   .     A
C896   C897    1.410   .     A
C896   C1073   1.524   .     S
C896   C945    1.414   .     A
C897   C944    1.415   .     A
C897   C1077   1.521   .     S
C898   C943    1.415   .     A
C898   C1081   1.521   .     S
C899   C1085   1.521   .     S
C899   C942    1.413   .     A
C900   C941    1.413   .     A
C900   C1089   1.522   .     S
C901   C1093   1.522   .     S
C901   C940    1.413   .     A
C902   C939    1.413   .     A
C902   C1097   1.522   .     S
C903   C1101   1.522   .     S
C903   C938    1.413   .     A
C904   C1105   1.523   .     S
C904   C937    1.413   .     A
C905   C938    1.414   .     A
C905   C1109   1.521   .     S
C905   C920    1.410   .     A
C906   C1113   1.521   .     S
C906   C919    1.410   .     A
C906   C937    1.414   .     A
C907   C918    1.410   .     A
C907   C940    1.414   .     A
C907   C1117   1.521   .     S
C908   C917    1.410   .     A
C908   C1121   1.521   .     S
C908   C939    1.414   .     A
C909   C1125   1.521   .     S
C909   C916    1.410   .     A
C909   C942    1.414   .     A
C910   C941    1.414   .     A
C910   C915    1.410   .     A
C910   C1129   1.521   .     S
C911   C1133   1.524   .     S
C911   C914    1.410   .     A
C911   C944    1.414   .     A
C912   C943    1.413   .     A
C912   C1137   1.523   .     S
C912   C913    1.410   .     A
C913   C946    1.415   .     A
C913   C1141   1.521   .     S
C914   C945    1.415   .     A
C914   C1145   1.521   .     S
C915   C1149   1.522   .     S
C915   C948    1.413   .     A
C916   C947    1.413   .     A
C916   C1153   1.521   .     S
C917   C950    1.413   .     A
C917   C1157   1.522   .     S
C918   C1161   1.522   .     S
C918   C949    1.413   .     A
C919   C1165   1.523   .     S
C919   C952    1.413   .     A
C920   C951    1.413   .     A
C920   C1169   1.522   .     S
C921   C1365   1.417   .     S
C922   C954    1.417   .     A
C923   C955    1.417   .     A
C924   C132    1.418   1_565 S
C925   C953    1.417   .     A
C926   C1366   1.418   .     S
C927   C131    1.417   1_565 S
C928   C956    1.417   .     A
C929   C133    1.417   1_565 S
C931   C1371   1.418   1_455 S
C932   C960    1.417   .     A
C933   C957    1.418   .     A
C934   C958    1.417   .     A
C935   C959    1.417   .     A
C936   C1372   1.417   1_455 S
C953   C954    1.418   .     A
C953   C1333   1.417   1_455 S
C954   C1338   1.418   1_455 S
C955   C956    1.418   .     A
C957   C134    1.418   1_556 S
C958   C106    1.417   1_565 S
C958   C133    1.418   1_564 S
C959   C1343   1.418   .     S
C959   C960    1.418   1_556 S
C960   C1348   1.417   .     S
C960   C959    1.418   1_554 S
O977   Zn1029  1.945   .     S
O977   Zn1033  1.944   .     S
O977   Zn1040  1.943   .     S
O978   Zn1030  1.945   .     S
O978   Zn1034  1.944   .     S
O978   Zn1043  1.944   .     S
O979   Zn1031  1.943   .     S
O979   Zn1454  1.944   1_455 S
O979   Zn1035  1.944   .     S
O979   Zn1038  1.945   .     S
O980   Zn1032  1.943   .     S
O980   Zn1449  1.945   1_455 S
O980   Zn1036  1.944   .     S
O980   Zn1041  1.944   .     S
O981   Zn1044  1.950   .     S
O981   C41     1.274   1_565 S
O982   Zn1043  1.950   .     S
O983   Zn1038  1.951   .     S
O983   C1279   1.274   1_455 S
O984   Zn1037  1.951   .     S
O984   C1280   1.274   .     S
O985   Zn1040  1.951   .     S
O986   Zn1039  1.951   .     S
O987   Zn1042  1.951   .     S
O988   Zn1041  1.951   .     S
O989   Zn1036  1.950   .     S
O990   Zn1035  1.950   .     S
O990   C1282   1.274   1_455 A
O991   Zn1030  1.951   .     S
O992   Zn1029  1.951   .     S
O993   Zn1032  1.951   .     S
O994   C1282   1.274   1_455 A
O994   Zn1031  1.951   .     S
O995   Zn1034  1.951   .     S
O996   Zn1033  1.951   .     S
O997   Zn1040  1.931   .     S
O998   Zn1039  1.931   .     S
O999   Zn1042  1.929   .     S
O1000  Zn1041  1.929   .     S
O1001  Zn1044  1.930   .     S
O1002  Zn1043  1.930   .     S
O1003  Zn1038  1.929   .     S
O1004  Zn1037  1.929   .     S
O1005  Zn1039  1.930   .     S
O1006  Zn1040  1.930   .     S
O1007  Zn1037  1.930   .     S
O1008  Zn1038  1.930   .     S
O1009  Zn1043  1.930   .     S
O1010  Zn1044  1.930   .     S
O1011  Zn1041  1.930   .     S
O1012  Zn1042  1.930   .     S
O1013  Zn1444  1.931   .     S
O1014  Zn1031  1.931   .     S
O1015  Zn210   1.929   1_565 S
O1016  Zn1033  1.929   .     S
O1017  Zn1036  1.930   .     S
O1018  Zn1447  1.930   .     S
O1019  Zn1030  1.929   .     S
O1020  Zn205   1.929   1_565 S
O1021  Zn1443  1.930   .     S
O1022  Zn1032  1.930   .     S
O1023  Zn1029  1.930   .     S
O1024  Zn206   1.930   1_565 S
O1025  Zn1035  1.930   .     S
O1026  Zn1448  1.930   .     S
O1027  Zn209   1.930   1_565 S
O1028  Zn1034  1.930   .     S
Zn1031 O1433   1.930   1_455 S
Zn1032 O1425   1.931   1_455 S
Zn1035 O1430   1.930   1_455 S
Zn1036 O1438   1.930   1_455 S
Zn1037 O1392   1.945   .     S
Zn1039 O154    1.943   1_565 S
Zn1042 O1391   1.944   .     S
Zn1044 O153    1.944   1_565 S
C1045  H1046   1.107   .     S
C1045  H1048   1.110   .     S
C1045  H1047   1.110   .     S
C1049  H1052   1.110   .     S
C1049  H1051   1.110   .     S
C1049  H1050   1.107   .     S
C1053  H1054   1.107   .     S
C1053  H1056   1.110   .     S
C1053  H1055   1.110   .     S
C1057  H1058   1.107   .     S
C1057  H1060   1.110   .     S
C1057  H1059   1.110   .     S
C1061  H1062   1.107   .     S
C1061  H1063   1.110   .     S
C1061  H1064   1.110   .     S
C1065  H1068   1.110   .     S
C1065  H1067   1.110   .     S
C1065  H1066   1.107   .     S
C1069  H1070   1.111   .     S
C1069  H1072   1.105   .     S
C1069  H1071   1.110   .     S
C1073  H1074   1.111   .     S
C1073  H1076   1.110   .     S
C1073  H1075   1.105   .     S
C1077  H1080   1.110   .     S
C1077  H1078   1.106   .     S
C1077  H1079   1.110   .     S
C1081  H1084   1.110   .     S
C1081  H1083   1.110   .     S
C1081  H1082   1.107   .     S
C1085  H1086   1.109   .     S
C1085  H1088   1.110   .     S
C1085  H1087   1.105   .     S
C1089  H1091   1.110   .     S
C1089  H1090   1.110   .     S
C1089  H1092   1.105   .     S
C1093  H1096   1.105   .     S
C1093  H1094   1.111   .     S
C1093  H1095   1.109   .     S
C1097  H1100   1.110   .     S
C1097  H1098   1.111   .     S
C1097  H1099   1.105   .     S
C1101  H1104   1.105   .     S
C1101  H1103   1.110   .     S
C1101  H1102   1.110   .     S
C1105  H1108   1.110   .     S
C1105  H1107   1.105   .     S
C1105  H1106   1.110   .     S
C1109  H1111   1.110   .     S
C1109  H1110   1.107   .     S
C1109  H1112   1.110   .     S
C1113  H1114   1.107   .     S
C1113  H1116   1.110   .     S
C1113  H1115   1.110   .     S
C1117  H1120   1.110   .     S
C1117  H1118   1.107   .     S
C1117  H1119   1.110   .     S
C1121  H1123   1.110   .     S
C1121  H1122   1.107   .     S
C1121  H1124   1.110   .     S
C1125  H1126   1.107   .     S
C1125  H1128   1.110   .     S
C1125  H1127   1.110   .     S
C1129  H1131   1.110   .     S
C1129  H1130   1.107   .     S
C1129  H1132   1.110   .     S
C1133  H1134   1.111   .     S
C1133  H1136   1.105   .     S
C1133  H1135   1.110   .     S
C1137  H1139   1.105   .     S
C1137  H1138   1.111   .     S
C1137  H1140   1.110   .     S
C1141  H1144   1.110   .     S
C1141  H1143   1.110   .     S
C1141  H1142   1.107   .     S
C1145  H1146   1.106   .     S
C1145  H1148   1.110   .     S
C1145  H1147   1.110   .     S
C1149  H1151   1.105   .     S
C1149  H1150   1.110   .     S
C1149  H1152   1.110   .     S
C1153  H1155   1.110   .     S
C1153  H1154   1.109   .     S
C1153  H1156   1.105   .     S
C1157  H1160   1.105   .     S
C1157  H1158   1.111   .     S
C1157  H1159   1.110   .     S
C1161  H1162   1.111   .     S
C1161  H1164   1.109   .     S
C1161  H1163   1.105   .     S
C1165  H1167   1.110   .     S
C1165  H1168   1.105   .     S
C1165  H1166   1.110   .     S
C1169  H1171   1.105   .     S
C1169  H1172   1.110   .     S
C1169  H1170   1.110   .     S
C1173  O1174   1.223   .     D
C1173  O1587   1.398   1_455 S
O1175  C1585   1.398   .     S
O1175  H1588   1.014   .     S
H1176  O1587   1.014   1_455 S
C1177  O1179   1.398   .     S
C1177  O1178   1.223   .     D
O1179  H1180   1.014   .     S
C1181  O1182   1.222   .     D
C1181  O359    1.398   1_565 S
H1184  O359    1.014   1_565 S
C1185  O1187   1.398   .     S
C1185  O1186   1.223   .     D
O1187  H1188   1.014   .     S
C1189  O1190   1.223   .     D
C1189  O1603   1.398   .     S
O1191  C1601   1.398   1_455 S
O1191  H1604   1.014   1_455 S
H1192  O1603   1.014   .     S
C1193  O1195   1.398   .     S
C1193  O1194   1.223   .     D
O1195  H1196   1.014   .     S
C1197  O1198   1.223   .     D
O1199  C373    1.398   1_565 S
O1199  H376    1.014   1_565 S
C1201  O1203   1.398   .     S
C1201  O1202   1.223   .     D
O1203  H1204   1.014   .     S
C1205  O1206   1.223   .     D
C1205  O1207   1.398   .     S
O1207  H1208   1.014   .     S
C1209  O1211   1.398   .     S
C1209  O1210   1.223   .     D
O1211  H1212   1.014   .     S
C1213  O1215   1.398   .     S
C1213  O1214   1.223   .     D
O1215  H1216   1.014   .     S
C1217  O1218   1.222   .     D
C1217  O1219   1.398   .     S
O1219  H1220   1.014   .     S
C1221  O1223   1.398   .     S
C1221  O1222   1.223   .     D
O1223  H1224   1.014   .     S
C1225  O1227   1.398   .     S
C1225  O1226   1.223   .     D
O1227  H1228   1.014   .     S
C1229  O1230   1.223   .     D
C1229  O1231   1.398   .     S
O1231  H1232   1.014   .     S
C1233  O1234   1.223   .     D
C1233  O1235   1.398   .     S
O1235  H1236   1.014   .     S
C1237  C1337   1.409   .     A
C1237  C1585   1.488   .     S
C1238  C1338   1.410   .     A
C1238  C1589   1.490   .     S
C1238  C842    1.410   1_655 S
C1239  C1339   1.409   .     A
C1239  C1593   1.487   .     S
C1239  C431    1.409   1_565 S
C1240  C1340   1.410   .     A
C1240  C1597   1.490   .     S
C1241  C1601   1.487   .     S
C1241  C1333   1.409   .     A
C1241  C1253   1.409   .     A
C1242  C1605   1.489   .     S
C1242  C1334   1.410   .     A
C1242  C1254   1.410   .     A
C1243  C1335   1.410   .     A
C1243  C1255   1.409   .     A
C1243  C1609   1.488   .     S
C1244  C1613   1.490   .     S
C1244  C1336   1.410   .     A
C1244  C1256   1.410   .     A
C1245  C1257   1.410   .     A
C1245  C1345   1.410   .     A
C1245  C1617   1.490   .     S
C1246  C1258   1.409   .     A
C1246  C1621   1.488   .     S
C1246  C1346   1.409   .     A
C1247  C1625   1.490   .     S
C1247  C1259   1.410   .     A
C1247  C1347   1.410   .     A
C1248  C1348   1.409   .     A
C1248  C1629   1.487   .     S
C1249  C1633   1.489   .     S
C1249  C1341   1.410   .     A
C1249  C433    1.410   1_565 S
C1250  C1637   1.487   .     S
C1250  C1342   1.409   .     A
C1251  C1343   1.410   .     A
C1251  C1641   1.490   .     S
C1252  C1645   1.488   .     S
C1252  C1260   1.409   .     A
C1252  C1344   1.410   .     A
C1253  C1279   1.456   .     S
C1253  C825    1.409   1_655 S
C1254  C1280   1.457   .     S
C1255  C1277   1.456   .     S
C1256  C1278   1.457   .     S
C1256  C416    1.410   1_565 S
C1258  C1284   1.456   .     S
C1258  C426    1.409   1_565 S
C1259  C869    1.457   1_655 S
C1259  C839    1.410   1_655 S
C1260  C1282   1.456   .     S
C1260  C836    1.409   1_655 S
C1261  H1373   1.082   .     S
C1261  C1333   1.405   .     A
C1261  C1266   1.385   .     A
C1262  H1374   1.081   .     S
C1262  C1334   1.405   .     A
C1262  C1265   1.385   .     A
C1263  C1335   1.405   .     A
C1263  H1375   1.082   .     S
C1263  C1268   1.385   .     A
C1264  C1267   1.385   .     A
C1264  H1376   1.081   .     S
C1264  C1336   1.405   .     A
C1265  H1377   1.082   .     S
C1265  C1337   1.405   .     A
C1266  C1338   1.405   .     A
C1266  H1378   1.081   .     S
C1267  H1379   1.082   .     S
C1267  C1339   1.405   .     A
C1268  C1340   1.405   .     A
C1268  H1380   1.081   .     S
C1269  C1341   1.405   .     A
C1269  H1381   1.081   .     S
C1269  C1274   1.385   1_556 S
C1270  C1342   1.405   .     A
C1270  H1382   1.082   .     S
C1270  C1273   1.385   1_554 S
C1271  C1343   1.405   .     A
C1271  H1383   1.081   .     S
C1271  C1276   1.385   1_556 S
C1272  H1384   1.082   .     S
C1272  C1344   1.405   .     A
C1272  C1275   1.385   1_554 S
C1273  C1345   1.405   .     A
C1273  H1385   1.081   .     S
C1273  C1270   1.385   1_556 S
C1274  C1346   1.405   .     A
C1274  H1386   1.082   .     S
C1274  C1269   1.385   1_554 S
C1275  C1347   1.405   .     A
C1275  H1387   1.081   .     S
C1275  C1272   1.385   1_556 S
C1276  C1348   1.405   .     A
C1276  H1388   1.082   .     S
C1276  C1271   1.385   1_554 S
C1277  O1397   1.274   .     A
C1278  O1398   1.274   .     A
C1278  O570    1.274   1_565 S
C1279  O1399   1.274   .     A
C1279  O983    1.274   1_655 S
C1280  O1400   1.274   .     A
C1281  O1405   1.274   .     A
C1281  O1401   1.274   .     A
C1282  O994    1.274   1_655 A
C1282  O990    1.274   1_655 A
C1283  O583    1.274   1_565 A
C1283  O579    1.274   1_565 A
C1283  C433    1.457   1_565 S
C1284  O580    1.274   1_565 S
C1284  O584    1.274   1_565 S
C1285  O1409   1.277   .     A
C1285  C1351   1.453   .     S
C1285  O1435   1.276   .     A
C1286  O1436   1.278   .     A
C1286  O1410   1.276   .     A
C1286  C1352   1.453   .     S
C1287  O1433   1.276   .     A
C1287  C1353   1.452   .     S
C1287  O1411   1.277   .     A
C1288  O1434   1.276   .     A
C1288  C1354   1.452   .     S
C1288  O1412   1.277   .     A
C1289  O1413   1.278   .     A
C1289  O1439   1.276   .     A
C1289  C1355   1.453   .     S
C1290  O1414   1.278   .     A
C1290  O1440   1.276   .     A
C1290  C1356   1.453   .     S
C1291  O1437   1.278   .     A
C1291  O1415   1.276   .     A
C1291  C1349   1.452   .     S
C1292  O1416   1.276   .     A
C1292  O1438   1.278   .     A
C1292  C1350   1.452   .     S
C1293  C1359   1.452   .     S
C1293  O1427   1.277   .     A
C1293  O1417   1.276   .     A
C1294  O1428   1.277   .     A
C1294  O1418   1.276   .     A
C1294  C1360   1.452   .     S
C1295  O1425   1.276   .     A
C1295  O1419   1.278   .     A
C1295  C1361   1.453   .     S
C1296  O1420   1.276   .     A
C1296  O1426   1.277   .     A
C1296  C1362   1.453   .     S
C1297  C1363   1.452   .     S
C1297  O1421   1.278   .     A
C1297  O1431   1.276   .     A
C1298  O1432   1.276   .     A
C1298  O1422   1.278   .     A
C1298  C1364   1.452   .     S
C1299  O1423   1.276   .     A
C1299  O1429   1.278   .     A
C1299  C1357   1.453   .     S
C1300  O1430   1.278   .     A
C1300  O1424   1.276   .     A
C1300  C1358   1.453   .     S
C1301  C1457   1.521   .     S
C1301  C1364   1.414   .     A
C1301  C1316   1.410   .     A
C1302  C1315   1.410   .     A
C1302  C1461   1.521   .     S
C1302  C1363   1.414   .     A
C1303  C1465   1.521   .     S
C1303  C1362   1.414   .     A
C1303  C1314   1.410   .     A
C1304  C1313   1.410   .     A
C1304  C1469   1.521   .     S
C1304  C1361   1.414   .     A
C1305  C1360   1.414   .     A
C1305  C1312   1.410   .     A
C1305  C1473   1.521   .     S
C1306  C1477   1.521   .     S
C1306  C1359   1.414   .     A
C1306  C1311   1.410   .     A
C1307  C1358   1.413   .     A
C1307  C1481   1.523   .     S
C1307  C1310   1.410   .     A
C1308  C1309   1.410   .     A
C1308  C1485   1.524   .     S
C1308  C1357   1.414   .     A
C1309  C1356   1.415   .     A
C1309  C1489   1.521   .     S
C1310  C1355   1.415   .     A
C1310  C1493   1.521   .     S
C1311  C1497   1.521   .     S
C1311  C1354   1.413   .     A
C1312  C1353   1.413   .     A
C1312  C1501   1.522   .     S
C1313  C1505   1.522   .     S
C1313  C1352   1.413   .     A
C1314  C1351   1.413   .     A
C1314  C1509   1.522   .     S
C1315  C1513   1.522   .     S
C1315  C1350   1.413   .     A
C1316  C1517   1.523   .     S
C1316  C1349   1.413   .     A
C1317  C1350   1.414   .     A
C1317  C1521   1.521   .     S
C1317  C1332   1.410   .     A
C1318  C1525   1.521   .     S
C1318  C1331   1.410   .     A
C1318  C1349   1.414   .     A
C1319  C1330   1.410   .     A
C1319  C1352   1.414   .     A
C1319  C1529   1.521   .     S
C1320  C1329   1.410   .     A
C1320  C1533   1.521   .     S
C1320  C1351   1.414   .     A
C1321  C1537   1.521   .     S
C1321  C1328   1.410   .     A
C1321  C1354   1.414   .     A
C1322  C1353   1.414   .     A
C1322  C1327   1.410   .     A
C1322  C1541   1.521   .     S
C1323  C1545   1.524   .     S
C1323  C1326   1.410   .     A
C1323  C1356   1.414   .     A
C1324  C1355   1.413   .     A
C1324  C1549   1.523   .     S
C1324  C1325   1.410   .     A
C1325  C1358   1.415   .     A
C1325  C1553   1.521   .     S
C1326  C1357   1.415   .     A
C1326  C1557   1.521   .     S
C1327  C1561   1.522   .     S
C1327  C1360   1.413   .     A
C1328  C1359   1.413   .     A
C1328  C1565   1.521   .     S
C1329  C1362   1.413   .     A
C1329  C1569   1.522   .     S
C1330  C1573   1.522   .     S
C1330  C1361   1.413   .     A
C1331  C1577   1.523   .     S
C1331  C1364   1.413   .     A
C1332  C1363   1.413   .     A
C1332  C1581   1.522   .     S
C1333  C953    1.417   1_655 S
C1334  C1366   1.417   .     A
C1335  C1367   1.417   .     A
C1336  C544    1.418   1_565 S
C1337  C1365   1.417   .     A
C1338  C954    1.418   1_655 S
C1339  C543    1.417   1_565 S
C1340  C1368   1.417   .     A
C1341  C545    1.417   1_565 S
C1344  C1372   1.417   .     A
C1345  C1369   1.418   .     A
C1346  C1370   1.417   .     A
C1347  C1371   1.417   .     A
C1365  C1366   1.418   .     A
C1367  C1368   1.418   .     A
C1369  C546    1.418   1_556 S
C1370  C518    1.417   1_565 S
C1370  C545    1.418   1_564 S
C1371  C931    1.418   1_655 S
C1371  C1372   1.418   1_556 S
C1372  C936    1.417   1_655 S
C1372  C1371   1.418   1_554 S
O1389  Zn1441  1.945   .     S
O1389  Zn1445  1.944   .     S
O1389  Zn1452  1.943   .     S
O1390  Zn1442  1.945   .     S
O1390  Zn1446  1.944   .     S
O1390  Zn1455  1.944   .     S
O1391  Zn1443  1.943   .     S
O1391  Zn1447  1.944   .     S
O1391  Zn1450  1.945   .     S
O1392  Zn1444  1.943   .     S
O1392  Zn1448  1.944   .     S
O1392  Zn1453  1.944   .     S
O1393  Zn1456  1.950   .     S
O1393  C453    1.274   1_565 S
O1394  Zn1455  1.950   .     S
O1395  Zn1450  1.951   .     S
O1396  Zn1449  1.951   .     S
O1396  C868    1.274   1_655 S
O1397  Zn1452  1.951   .     S
O1398  Zn1451  1.951   .     S
O1399  Zn1454  1.951   .     S
O1400  Zn1453  1.951   .     S
O1401  Zn1448  1.950   .     S
O1402  Zn1447  1.950   .     S
O1403  Zn1442  1.951   .     S
O1404  Zn1441  1.951   .     S
O1405  Zn1444  1.951   .     S
O1406  Zn1443  1.951   .     S
O1407  Zn1446  1.951   .     S
O1408  Zn1445  1.951   .     S
O1409  Zn1452  1.931   .     S
O1410  Zn1451  1.931   .     S
O1411  Zn1454  1.929   .     S
O1412  Zn1453  1.929   .     S
O1413  Zn1456  1.930   .     S
O1414  Zn1455  1.930   .     S
O1415  Zn1450  1.929   .     S
O1416  Zn1449  1.929   .     S
O1417  Zn1451  1.930   .     S
O1418  Zn1452  1.930   .     S
O1419  Zn1449  1.930   .     S
O1420  Zn1450  1.930   .     S
O1421  Zn1455  1.930   .     S
O1422  Zn1456  1.930   .     S
O1423  Zn1453  1.930   .     S
O1424  Zn1454  1.930   .     S
O1425  Zn1032  1.931   1_655 S
O1426  Zn1443  1.931   .     S
O1427  Zn622   1.929   1_565 S
O1428  Zn1445  1.929   .     S
O1429  Zn1448  1.930   .     S
O1430  Zn1035  1.930   1_655 S
O1431  Zn1442  1.929   .     S
O1432  Zn617   1.929   1_565 S
O1433  Zn1031  1.930   1_655 S
O1434  Zn1444  1.930   .     S
O1435  Zn1441  1.930   .     S
O1436  Zn618   1.930   1_565 S
O1437  Zn1447  1.930   .     S
O1438  Zn1036  1.930   1_655 S
O1439  Zn621   1.930   1_565 S
O1440  Zn1446  1.930   .     S
Zn1449 O980    1.945   1_655 S
Zn1451 O566    1.943   1_565 S
Zn1454 O979    1.944   1_655 S
Zn1456 O565    1.944   1_565 S
C1457  H1458   1.107   .     S
C1457  H1460   1.110   .     S
C1457  H1459   1.110   .     S
C1461  H1464   1.110   .     S
C1461  H1463   1.110   .     S
C1461  H1462   1.107   .     S
C1465  H1466   1.107   .     S
C1465  H1468   1.110   .     S
C1465  H1467   1.110   .     S
C1469  H1470   1.107   .     S
C1469  H1472   1.110   .     S
C1469  H1471   1.110   .     S
C1473  H1474   1.107   .     S
C1473  H1475   1.110   .     S
C1473  H1476   1.110   .     S
C1477  H1480   1.110   .     S
C1477  H1479   1.110   .     S
C1477  H1478   1.107   .     S
C1481  H1482   1.111   .     S
C1481  H1484   1.105   .     S
C1481  H1483   1.110   .     S
C1485  H1486   1.111   .     S
C1485  H1488   1.110   .     S
C1485  H1487   1.105   .     S
C1489  H1492   1.110   .     S
C1489  H1490   1.106   .     S
C1489  H1491   1.110   .     S
C1493  H1496   1.110   .     S
C1493  H1495   1.110   .     S
C1493  H1494   1.107   .     S
C1497  H1498   1.109   .     S
C1497  H1500   1.110   .     S
C1497  H1499   1.105   .     S
C1501  H1503   1.110   .     S
C1501  H1502   1.110   .     S
C1501  H1504   1.105   .     S
C1505  H1508   1.105   .     S
C1505  H1506   1.111   .     S
C1505  H1507   1.109   .     S
C1509  H1512   1.110   .     S
C1509  H1510   1.111   .     S
C1509  H1511   1.105   .     S
C1513  H1516   1.105   .     S
C1513  H1515   1.110   .     S
C1513  H1514   1.110   .     S
C1517  H1520   1.110   .     S
C1517  H1519   1.105   .     S
C1517  H1518   1.110   .     S
C1521  H1523   1.110   .     S
C1521  H1522   1.107   .     S
C1521  H1524   1.110   .     S
C1525  H1526   1.107   .     S
C1525  H1528   1.110   .     S
C1525  H1527   1.110   .     S
C1529  H1532   1.110   .     S
C1529  H1530   1.107   .     S
C1529  H1531   1.110   .     S
C1533  H1535   1.110   .     S
C1533  H1534   1.107   .     S
C1533  H1536   1.110   .     S
C1537  H1538   1.107   .     S
C1537  H1540   1.110   .     S
C1537  H1539   1.110   .     S
C1541  H1543   1.110   .     S
C1541  H1542   1.107   .     S
C1541  H1544   1.110   .     S
C1545  H1546   1.111   .     S
C1545  H1548   1.105   .     S
C1545  H1547   1.110   .     S
C1549  H1551   1.105   .     S
C1549  H1550   1.111   .     S
C1549  H1552   1.110   .     S
C1553  H1556   1.110   .     S
C1553  H1555   1.110   .     S
C1553  H1554   1.107   .     S
C1557  H1558   1.106   .     S
C1557  H1560   1.110   .     S
C1557  H1559   1.110   .     S
C1561  H1563   1.105   .     S
C1561  H1562   1.110   .     S
C1561  H1564   1.110   .     S
C1565  H1567   1.110   .     S
C1565  H1566   1.109   .     S
C1565  H1568   1.105   .     S
C1569  H1572   1.105   .     S
C1569  H1570   1.111   .     S
C1569  H1571   1.110   .     S
C1573  H1574   1.111   .     S
C1573  H1576   1.109   .     S
C1573  H1575   1.105   .     S
C1577  H1579   1.110   .     S
C1577  H1580   1.105   .     S
C1577  H1578   1.110   .     S
C1581  H1583   1.105   .     S
C1581  H1584   1.110   .     S
C1581  H1582   1.110   .     S
C1585  O1586   1.223   .     D
O1587  C1173   1.398   1_655 S
O1587  H1176   1.014   1_655 S
C1589  O1591   1.398   .     S
C1589  O1590   1.223   .     D
O1591  H1592   1.014   .     S
C1593  O1594   1.222   .     D
C1593  O771    1.398   1_565 S
H1596  O771    1.014   1_565 S
C1597  O1599   1.398   .     S
C1597  O1598   1.223   .     D
O1599  H1600   1.014   .     S
C1601  O1602   1.223   .     D
C1601  O1191   1.398   1_655 S
H1604  O1191   1.014   1_655 S
C1605  O1607   1.398   .     S
C1605  O1606   1.223   .     D
O1607  H1608   1.014   .     S
C1609  O1610   1.223   .     D
O1611  C785    1.398   1_565 S
O1611  H788    1.014   1_565 S
C1613  O1615   1.398   .     S
C1613  O1614   1.223   .     D
O1615  H1616   1.014   .     S
C1617  O1618   1.223   .     D
C1617  O1619   1.398   .     S
O1619  H1620   1.014   .     S
C1621  O1623   1.398   .     S
C1621  O1622   1.223   .     D
O1623  H1624   1.014   .     S
C1625  O1627   1.398   .     S
C1625  O1626   1.223   .     D
O1627  H1628   1.014   .     S
C1629  O1630   1.222   .     D
C1629  O1631   1.398   .     S
O1631  H1632   1.014   .     S
C1633  O1635   1.398   .     S
C1633  O1634   1.223   .     D
O1635  H1636   1.014   .     S
C1637  O1639   1.398   .     S
C1637  O1638   1.223   .     D
O1639  H1640   1.014   .     S
C1641  O1642   1.223   .     D
C1641  O1643   1.398   .     S
O1643  H1644   1.014   .     S
C1645  O1646   1.223   .     D
C1645  O1647   1.398   .     S
O1647  H1648   1.014   .     S
