data_str_m3_o1_o5_pcu_sym.93
_audit_creation_date              2020-01-03
_audit_creation_method            'Materials Studio'
_symmetry_space_group_name_H-M    'P1'
_symmetry_Int_Tables_number       1
_symmetry_cell_setting            triclinic
loop_
_symmetry_equiv_pos_as_xyz
  x,y,z
_cell_length_a                    32.4578
_cell_length_b                    29.7868
_cell_length_c                    26.6766
_cell_angle_alpha                 89.7863
_cell_angle_beta                  91.8310
_cell_angle_gamma                 88.8434
loop_
_atom_site_label
_atom_site_type_symbol
_atom_site_fract_x
_atom_site_fract_y
_atom_site_fract_z
_atom_site_U_iso_or_equiv
_atom_site_adp_type
_atom_site_occupancy
C1     C     0.08672   0.16715   0.16941   0.00000  Uiso   1.00
C2     C     0.24638   0.16618   0.16252   0.00000  Uiso   1.00
C3     C     0.16653   0.16672   0.07297   0.00000  Uiso   1.00
C4     C     0.16678   0.16661   0.26036   0.00000  Uiso   1.00
C5     C     0.16661   0.16675   0.02182   0.00000  Uiso   1.00
C6     C     0.16670   0.16659   0.31151   0.00000  Uiso   1.00
C7     C     0.02169   0.12708   0.17826   0.00000  Uiso   1.00
C8     C     0.31092   0.20591   0.14913   0.00000  Uiso   1.00
C9     C     0.31334   0.12493   0.16658   0.00000  Uiso   1.00
C10    C     0.01955   0.20806   0.15955   0.00000  Uiso   1.00
C11    C     0.29064   0.16520   0.15722   0.00000  Uiso   1.00
C12    C     0.04214   0.16797   0.17121   0.00000  Uiso   1.00
C13    C     0.18571   0.02321   0.20511   0.00000  Uiso   1.00
C14    C     0.14712   0.30996   0.12851   0.00000  Uiso   1.00
C15    C     0.14684   0.02465   0.12892   0.00000  Uiso   1.00
C16    C     0.18603   0.30872   0.20471   0.00000  Uiso   1.00
N17    N     0.16667   0.28573   0.16667   0.00000  Uiso   1.00
N18    N     0.16667   0.04760   0.16667   0.00000  Uiso   1.00
O19    O     0.10559   0.20487   0.16666   0.00000  Uiso   1.00
O20    O     0.22774   0.12846   0.16667   0.00000  Uiso   1.00
O21    O     0.22774   0.20487   0.16667   0.00000  Uiso   1.00
O22    O     0.10559   0.12846   0.16666   0.00000  Uiso   1.00
O23    O     0.16667   0.20488   0.09511   0.00000  Uiso   1.00
O24    O     0.16666   0.12845   0.23822   0.00000  Uiso   1.00
O25    O     0.16666   0.20488   0.23822   0.00000  Uiso   1.00
O26    O     0.16667   0.12845   0.09511   0.00000  Uiso   1.00
Zn27   Zn    0.16667   0.21771   0.16667   0.00000  Uiso   1.00
Zn28   Zn    0.16667   0.11563   0.16667   0.00000  Uiso   1.00
C29    C     0.04232   0.08750   0.20045   0.00000  Uiso   1.00
N30    N     0.05859   0.05606   0.21817   0.00000  Uiso   1.00
C31    C     0.28952   0.24526   0.12747   0.00000  Uiso   1.00
N32    N     0.27259   0.27649   0.11018   0.00000  Uiso   1.00
C33    C     0.29540   0.08076   0.16097   0.00000  Uiso   1.00
N34    N     0.28156   0.04547   0.15611   0.00000  Uiso   1.00
C35    C     0.03767   0.25233   0.16156   0.00000  Uiso   1.00
N36    N     0.05148   0.28783   0.16359   0.00000  Uiso   1.00
C37    C     0.20523   0.04579   0.24872   0.00000  Uiso   1.00
H38    H     0.19653   0.03674   0.28632   0.00000  Uiso   1.00
O39    O     0.23277   0.07242   0.24357   0.00000  Uiso   1.00
C40    C     0.12531   0.28601   0.08738   0.00000  Uiso   1.00
H41    H     0.10753   0.25672   0.09523   0.00000  Uiso   1.00
O42    O     0.12740   0.29842   0.04387   0.00000  Uiso   1.00
C43    C     0.12301   0.04990   0.08995   0.00000  Uiso   1.00
H44    H     0.13681   0.05723   0.05440   0.00000  Uiso   1.00
O45    O     0.08720   0.06094   0.09654   0.00000  Uiso   1.00
C46    C     0.20833   0.28394   0.24540   0.00000  Uiso   1.00
H47    H     0.19570   0.28302   0.28256   0.00000  Uiso   1.00
O48    O     0.24192   0.26644   0.23837   0.00000  Uiso   1.00
C49    C     0.42005   0.16715   0.16941   0.00000  Uiso   1.00
C50    C     0.57972   0.16618   0.16252   0.00000  Uiso   1.00
C51    C     0.49986   0.16672   0.07297   0.00000  Uiso   1.00
C52    C     0.50012   0.16661   0.26036   0.00000  Uiso   1.00
C53    C     0.49994   0.16675   0.02182   0.00000  Uiso   1.00
C54    C     0.50004   0.16659   0.31151   0.00000  Uiso   1.00
C55    C     0.35503   0.12708   0.17826   0.00000  Uiso   1.00
C56    C     0.64426   0.20591   0.14913   0.00000  Uiso   1.00
C57    C     0.64667   0.12493   0.16658   0.00000  Uiso   1.00
C58    C     0.35288   0.20806   0.15955   0.00000  Uiso   1.00
C59    C     0.62398   0.16520   0.15722   0.00000  Uiso   1.00
C60    C     0.37547   0.16797   0.17121   0.00000  Uiso   1.00
C61    C     0.51904   0.02321   0.20511   0.00000  Uiso   1.00
C62    C     0.48045   0.30996   0.12851   0.00000  Uiso   1.00
C63    C     0.48017   0.02465   0.12892   0.00000  Uiso   1.00
C64    C     0.51936   0.30872   0.20471   0.00000  Uiso   1.00
N65    N     0.50000   0.28573   0.16667   0.00000  Uiso   1.00
N66    N     0.50000   0.04760   0.16667   0.00000  Uiso   1.00
O67    O     0.43892   0.20487   0.16666   0.00000  Uiso   1.00
O68    O     0.56108   0.12846   0.16667   0.00000  Uiso   1.00
O69    O     0.56108   0.20487   0.16667   0.00000  Uiso   1.00
O70    O     0.43892   0.12846   0.16666   0.00000  Uiso   1.00
O71    O     0.50000   0.20488   0.09511   0.00000  Uiso   1.00
O72    O     0.50000   0.12845   0.23822   0.00000  Uiso   1.00
O73    O     0.50000   0.20488   0.23822   0.00000  Uiso   1.00
O74    O     0.50000   0.12845   0.09511   0.00000  Uiso   1.00
Zn75   Zn    0.50000   0.21771   0.16667   0.00000  Uiso   1.00
Zn76   Zn    0.50000   0.11563   0.16667   0.00000  Uiso   1.00
C77    C     0.37565   0.08750   0.20045   0.00000  Uiso   1.00
N78    N     0.39192   0.05606   0.21817   0.00000  Uiso   1.00
C79    C     0.62285   0.24526   0.12747   0.00000  Uiso   1.00
N80    N     0.60592   0.27649   0.11018   0.00000  Uiso   1.00
C81    C     0.62874   0.08076   0.16097   0.00000  Uiso   1.00
N82    N     0.61489   0.04547   0.15611   0.00000  Uiso   1.00
C83    C     0.37101   0.25233   0.16156   0.00000  Uiso   1.00
N84    N     0.38482   0.28783   0.16359   0.00000  Uiso   1.00
C85    C     0.53856   0.04579   0.24872   0.00000  Uiso   1.00
H86    H     0.52987   0.03674   0.28632   0.00000  Uiso   1.00
O87    O     0.56610   0.07242   0.24357   0.00000  Uiso   1.00
C88    C     0.45864   0.28601   0.08738   0.00000  Uiso   1.00
H89    H     0.44086   0.25672   0.09523   0.00000  Uiso   1.00
O90    O     0.46074   0.29842   0.04387   0.00000  Uiso   1.00
C91    C     0.45634   0.04990   0.08995   0.00000  Uiso   1.00
H92    H     0.47014   0.05723   0.05440   0.00000  Uiso   1.00
O93    O     0.42054   0.06094   0.09654   0.00000  Uiso   1.00
C94    C     0.54166   0.28394   0.24540   0.00000  Uiso   1.00
H95    H     0.52903   0.28302   0.28256   0.00000  Uiso   1.00
O96    O     0.57526   0.26644   0.23837   0.00000  Uiso   1.00
C97    C     0.75338   0.16715   0.16941   0.00000  Uiso   1.00
C98    C     0.91305   0.16618   0.16252   0.00000  Uiso   1.00
C99    C     0.83319   0.16672   0.07297   0.00000  Uiso   1.00
C100   C     0.83345   0.16661   0.26036   0.00000  Uiso   1.00
C101   C     0.83327   0.16675   0.02182   0.00000  Uiso   1.00
C102   C     0.83337   0.16659   0.31151   0.00000  Uiso   1.00
C103   C     0.68836   0.12708   0.17826   0.00000  Uiso   1.00
C104   C     0.97759   0.20591   0.14913   0.00000  Uiso   1.00
C105   C     0.98000   0.12493   0.16658   0.00000  Uiso   1.00
C106   C     0.68621   0.20806   0.15955   0.00000  Uiso   1.00
C107   C     0.95731   0.16520   0.15722   0.00000  Uiso   1.00
C108   C     0.70881   0.16797   0.17121   0.00000  Uiso   1.00
C109   C     0.85237   0.02321   0.20511   0.00000  Uiso   1.00
C110   C     0.81379   0.30996   0.12851   0.00000  Uiso   1.00
C111   C     0.81350   0.02465   0.12892   0.00000  Uiso   1.00
C112   C     0.85270   0.30872   0.20471   0.00000  Uiso   1.00
N113   N     0.83333   0.28573   0.16667   0.00000  Uiso   1.00
N114   N     0.83333   0.04760   0.16667   0.00000  Uiso   1.00
O115   O     0.77226   0.20487   0.16666   0.00000  Uiso   1.00
O116   O     0.89441   0.12846   0.16667   0.00000  Uiso   1.00
O117   O     0.89441   0.20487   0.16667   0.00000  Uiso   1.00
O118   O     0.77226   0.12846   0.16666   0.00000  Uiso   1.00
O119   O     0.83334   0.20488   0.09511   0.00000  Uiso   1.00
O120   O     0.83333   0.12845   0.23822   0.00000  Uiso   1.00
O121   O     0.83333   0.20488   0.23822   0.00000  Uiso   1.00
O122   O     0.83334   0.12845   0.09511   0.00000  Uiso   1.00
Zn123  Zn    0.83333   0.21771   0.16667   0.00000  Uiso   1.00
Zn124  Zn    0.83333   0.11563   0.16667   0.00000  Uiso   1.00
C125   C     0.70899   0.08750   0.20045   0.00000  Uiso   1.00
N126   N     0.72526   0.05606   0.21817   0.00000  Uiso   1.00
C127   C     0.95619   0.24526   0.12747   0.00000  Uiso   1.00
N128   N     0.93926   0.27649   0.11018   0.00000  Uiso   1.00
C129   C     0.96207   0.08076   0.16097   0.00000  Uiso   1.00
N130   N     0.94822   0.04547   0.15611   0.00000  Uiso   1.00
C131   C     0.70434   0.25233   0.16156   0.00000  Uiso   1.00
N132   N     0.71815   0.28783   0.16359   0.00000  Uiso   1.00
C133   C     0.87189   0.04579   0.24872   0.00000  Uiso   1.00
H134   H     0.86320   0.03674   0.28632   0.00000  Uiso   1.00
O135   O     0.89943   0.07242   0.24357   0.00000  Uiso   1.00
C136   C     0.79198   0.28601   0.08738   0.00000  Uiso   1.00
H137   H     0.77419   0.25672   0.09523   0.00000  Uiso   1.00
O138   O     0.79407   0.29842   0.04387   0.00000  Uiso   1.00
C139   C     0.78968   0.04990   0.08995   0.00000  Uiso   1.00
H140   H     0.80347   0.05723   0.05440   0.00000  Uiso   1.00
O141   O     0.75387   0.06094   0.09654   0.00000  Uiso   1.00
C142   C     0.87500   0.28394   0.24540   0.00000  Uiso   1.00
H143   H     0.86237   0.28302   0.28256   0.00000  Uiso   1.00
O144   O     0.90859   0.26644   0.23837   0.00000  Uiso   1.00
C145   C     0.08672   0.50048   0.16941   0.00000  Uiso   1.00
C146   C     0.24638   0.49951   0.16252   0.00000  Uiso   1.00
C147   C     0.16653   0.50006   0.07297   0.00000  Uiso   1.00
C148   C     0.16678   0.49995   0.26036   0.00000  Uiso   1.00
C149   C     0.16661   0.50008   0.02182   0.00000  Uiso   1.00
C150   C     0.16670   0.49993   0.31151   0.00000  Uiso   1.00
C151   C     0.02169   0.46041   0.17826   0.00000  Uiso   1.00
C152   C     0.31092   0.53924   0.14913   0.00000  Uiso   1.00
C153   C     0.31334   0.45827   0.16658   0.00000  Uiso   1.00
C154   C     0.01955   0.54139   0.15955   0.00000  Uiso   1.00
C155   C     0.29064   0.49854   0.15722   0.00000  Uiso   1.00
C156   C     0.04214   0.50131   0.17121   0.00000  Uiso   1.00
C157   C     0.18571   0.35654   0.20511   0.00000  Uiso   1.00
C158   C     0.14712   0.64329   0.12851   0.00000  Uiso   1.00
C159   C     0.14684   0.35798   0.12892   0.00000  Uiso   1.00
C160   C     0.18603   0.64206   0.20471   0.00000  Uiso   1.00
N161   N     0.16667   0.61907   0.16667   0.00000  Uiso   1.00
N162   N     0.16667   0.38093   0.16667   0.00000  Uiso   1.00
O163   O     0.10559   0.53821   0.16666   0.00000  Uiso   1.00
O164   O     0.22774   0.46179   0.16667   0.00000  Uiso   1.00
O165   O     0.22774   0.53821   0.16667   0.00000  Uiso   1.00
O166   O     0.10559   0.46179   0.16666   0.00000  Uiso   1.00
O167   O     0.16667   0.53821   0.09511   0.00000  Uiso   1.00
O168   O     0.16666   0.46179   0.23822   0.00000  Uiso   1.00
O169   O     0.16666   0.53821   0.23822   0.00000  Uiso   1.00
O170   O     0.16667   0.46179   0.09511   0.00000  Uiso   1.00
Zn171  Zn    0.16667   0.55104   0.16667   0.00000  Uiso   1.00
Zn172  Zn    0.16667   0.44896   0.16667   0.00000  Uiso   1.00
C173   C     0.04232   0.42083   0.20045   0.00000  Uiso   1.00
N174   N     0.05859   0.38939   0.21817   0.00000  Uiso   1.00
C175   C     0.28952   0.57859   0.12747   0.00000  Uiso   1.00
N176   N     0.27259   0.60982   0.11018   0.00000  Uiso   1.00
C177   C     0.29540   0.41409   0.16097   0.00000  Uiso   1.00
N178   N     0.28156   0.37880   0.15611   0.00000  Uiso   1.00
C179   C     0.03767   0.58567   0.16156   0.00000  Uiso   1.00
N180   N     0.05148   0.62116   0.16359   0.00000  Uiso   1.00
C181   C     0.20523   0.37913   0.24872   0.00000  Uiso   1.00
H182   H     0.19653   0.37007   0.28632   0.00000  Uiso   1.00
O183   O     0.23277   0.40575   0.24357   0.00000  Uiso   1.00
C184   C     0.12531   0.61934   0.08738   0.00000  Uiso   1.00
H185   H     0.10753   0.59006   0.09523   0.00000  Uiso   1.00
O186   O     0.12740   0.63175   0.04387   0.00000  Uiso   1.00
C187   C     0.12301   0.38324   0.08995   0.00000  Uiso   1.00
H188   H     0.13681   0.39057   0.05440   0.00000  Uiso   1.00
O189   O     0.08720   0.39428   0.09654   0.00000  Uiso   1.00
C190   C     0.20833   0.61728   0.24540   0.00000  Uiso   1.00
H191   H     0.19570   0.61635   0.28256   0.00000  Uiso   1.00
O192   O     0.24192   0.59978   0.23837   0.00000  Uiso   1.00
C193   C     0.42005   0.50048   0.16941   0.00000  Uiso   1.00
C194   C     0.57972   0.49951   0.16252   0.00000  Uiso   1.00
C195   C     0.49986   0.50006   0.07297   0.00000  Uiso   1.00
C196   C     0.50012   0.49995   0.26036   0.00000  Uiso   1.00
C197   C     0.49994   0.50008   0.02182   0.00000  Uiso   1.00
C198   C     0.50004   0.49993   0.31151   0.00000  Uiso   1.00
C199   C     0.35503   0.46041   0.17826   0.00000  Uiso   1.00
C200   C     0.64426   0.53924   0.14913   0.00000  Uiso   1.00
C201   C     0.64667   0.45827   0.16658   0.00000  Uiso   1.00
C202   C     0.35288   0.54139   0.15955   0.00000  Uiso   1.00
C203   C     0.62398   0.49854   0.15722   0.00000  Uiso   1.00
C204   C     0.37547   0.50131   0.17121   0.00000  Uiso   1.00
C205   C     0.51904   0.35654   0.20511   0.00000  Uiso   1.00
C206   C     0.48045   0.64329   0.12851   0.00000  Uiso   1.00
C207   C     0.48017   0.35798   0.12892   0.00000  Uiso   1.00
C208   C     0.51936   0.64206   0.20471   0.00000  Uiso   1.00
N209   N     0.50000   0.61907   0.16667   0.00000  Uiso   1.00
N210   N     0.50000   0.38093   0.16667   0.00000  Uiso   1.00
O211   O     0.43892   0.53821   0.16666   0.00000  Uiso   1.00
O212   O     0.56108   0.46179   0.16667   0.00000  Uiso   1.00
O213   O     0.56108   0.53821   0.16667   0.00000  Uiso   1.00
O214   O     0.43892   0.46179   0.16666   0.00000  Uiso   1.00
O215   O     0.50000   0.53821   0.09511   0.00000  Uiso   1.00
O216   O     0.50000   0.46179   0.23822   0.00000  Uiso   1.00
O217   O     0.50000   0.53821   0.23822   0.00000  Uiso   1.00
O218   O     0.50000   0.46179   0.09511   0.00000  Uiso   1.00
Zn219  Zn    0.50000   0.55104   0.16667   0.00000  Uiso   1.00
Zn220  Zn    0.50000   0.44896   0.16667   0.00000  Uiso   1.00
C221   C     0.37565   0.42083   0.20045   0.00000  Uiso   1.00
N222   N     0.39192   0.38939   0.21817   0.00000  Uiso   1.00
C223   C     0.62285   0.57859   0.12747   0.00000  Uiso   1.00
N224   N     0.60592   0.60982   0.11018   0.00000  Uiso   1.00
C225   C     0.62874   0.41409   0.16097   0.00000  Uiso   1.00
N226   N     0.61489   0.37880   0.15611   0.00000  Uiso   1.00
C227   C     0.37101   0.58567   0.16156   0.00000  Uiso   1.00
N228   N     0.38482   0.62116   0.16359   0.00000  Uiso   1.00
C229   C     0.53856   0.37913   0.24872   0.00000  Uiso   1.00
H230   H     0.52987   0.37007   0.28632   0.00000  Uiso   1.00
O231   O     0.56610   0.40575   0.24357   0.00000  Uiso   1.00
C232   C     0.45864   0.61934   0.08738   0.00000  Uiso   1.00
H233   H     0.44086   0.59006   0.09523   0.00000  Uiso   1.00
O234   O     0.46074   0.63175   0.04387   0.00000  Uiso   1.00
C235   C     0.45634   0.38324   0.08995   0.00000  Uiso   1.00
H236   H     0.47014   0.39057   0.05440   0.00000  Uiso   1.00
O237   O     0.42054   0.39428   0.09654   0.00000  Uiso   1.00
C238   C     0.54166   0.61728   0.24540   0.00000  Uiso   1.00
H239   H     0.52903   0.61635   0.28256   0.00000  Uiso   1.00
O240   O     0.57526   0.59978   0.23837   0.00000  Uiso   1.00
C241   C     0.75338   0.50048   0.16941   0.00000  Uiso   1.00
C242   C     0.91305   0.49951   0.16252   0.00000  Uiso   1.00
C243   C     0.83319   0.50006   0.07297   0.00000  Uiso   1.00
C244   C     0.83345   0.49995   0.26036   0.00000  Uiso   1.00
C245   C     0.83327   0.50008   0.02182   0.00000  Uiso   1.00
C246   C     0.83337   0.49993   0.31151   0.00000  Uiso   1.00
C247   C     0.68836   0.46041   0.17826   0.00000  Uiso   1.00
C248   C     0.97759   0.53924   0.14913   0.00000  Uiso   1.00
C249   C     0.98000   0.45827   0.16658   0.00000  Uiso   1.00
C250   C     0.68621   0.54139   0.15955   0.00000  Uiso   1.00
C251   C     0.95731   0.49854   0.15722   0.00000  Uiso   1.00
C252   C     0.70881   0.50131   0.17121   0.00000  Uiso   1.00
C253   C     0.85237   0.35654   0.20511   0.00000  Uiso   1.00
C254   C     0.81379   0.64329   0.12851   0.00000  Uiso   1.00
C255   C     0.81350   0.35798   0.12892   0.00000  Uiso   1.00
C256   C     0.85270   0.64206   0.20471   0.00000  Uiso   1.00
N257   N     0.83333   0.61907   0.16667   0.00000  Uiso   1.00
N258   N     0.83333   0.38093   0.16667   0.00000  Uiso   1.00
O259   O     0.77226   0.53821   0.16666   0.00000  Uiso   1.00
O260   O     0.89441   0.46179   0.16667   0.00000  Uiso   1.00
O261   O     0.89441   0.53821   0.16667   0.00000  Uiso   1.00
O262   O     0.77226   0.46179   0.16666   0.00000  Uiso   1.00
O263   O     0.83334   0.53821   0.09511   0.00000  Uiso   1.00
O264   O     0.83333   0.46179   0.23822   0.00000  Uiso   1.00
O265   O     0.83333   0.53821   0.23822   0.00000  Uiso   1.00
O266   O     0.83334   0.46179   0.09511   0.00000  Uiso   1.00
Zn267  Zn    0.83333   0.55104   0.16667   0.00000  Uiso   1.00
Zn268  Zn    0.83333   0.44896   0.16667   0.00000  Uiso   1.00
C269   C     0.70899   0.42083   0.20045   0.00000  Uiso   1.00
N270   N     0.72526   0.38939   0.21817   0.00000  Uiso   1.00
C271   C     0.95619   0.57859   0.12747   0.00000  Uiso   1.00
N272   N     0.93926   0.60982   0.11018   0.00000  Uiso   1.00
C273   C     0.96207   0.41409   0.16097   0.00000  Uiso   1.00
N274   N     0.94822   0.37880   0.15611   0.00000  Uiso   1.00
C275   C     0.70434   0.58567   0.16156   0.00000  Uiso   1.00
N276   N     0.71815   0.62116   0.16359   0.00000  Uiso   1.00
C277   C     0.87189   0.37913   0.24872   0.00000  Uiso   1.00
H278   H     0.86320   0.37007   0.28632   0.00000  Uiso   1.00
O279   O     0.89943   0.40575   0.24357   0.00000  Uiso   1.00
C280   C     0.79198   0.61934   0.08738   0.00000  Uiso   1.00
H281   H     0.77419   0.59006   0.09523   0.00000  Uiso   1.00
O282   O     0.79407   0.63175   0.04387   0.00000  Uiso   1.00
C283   C     0.78968   0.38324   0.08995   0.00000  Uiso   1.00
H284   H     0.80347   0.39057   0.05440   0.00000  Uiso   1.00
O285   O     0.75387   0.39428   0.09654   0.00000  Uiso   1.00
C286   C     0.87500   0.61728   0.24540   0.00000  Uiso   1.00
H287   H     0.86237   0.61635   0.28256   0.00000  Uiso   1.00
O288   O     0.90859   0.59978   0.23837   0.00000  Uiso   1.00
C289   C     0.08672   0.83382   0.16941   0.00000  Uiso   1.00
C290   C     0.24638   0.83284   0.16252   0.00000  Uiso   1.00
C291   C     0.16653   0.83339   0.07297   0.00000  Uiso   1.00
C292   C     0.16678   0.83328   0.26036   0.00000  Uiso   1.00
C293   C     0.16661   0.83341   0.02182   0.00000  Uiso   1.00
C294   C     0.16670   0.83326   0.31151   0.00000  Uiso   1.00
C295   C     0.02169   0.79375   0.17826   0.00000  Uiso   1.00
C296   C     0.31092   0.87257   0.14913   0.00000  Uiso   1.00
C297   C     0.31334   0.79160   0.16658   0.00000  Uiso   1.00
C298   C     0.01955   0.87472   0.15955   0.00000  Uiso   1.00
C299   C     0.29064   0.83187   0.15722   0.00000  Uiso   1.00
C300   C     0.04214   0.83464   0.17121   0.00000  Uiso   1.00
C301   C     0.18571   0.68988   0.20511   0.00000  Uiso   1.00
C302   C     0.14712   0.97663   0.12851   0.00000  Uiso   1.00
C303   C     0.14684   0.69132   0.12892   0.00000  Uiso   1.00
C304   C     0.18603   0.97539   0.20471   0.00000  Uiso   1.00
N305   N     0.16667   0.95240   0.16667   0.00000  Uiso   1.00
N306   N     0.16667   0.71427   0.16667   0.00000  Uiso   1.00
O307   O     0.10559   0.87154   0.16666   0.00000  Uiso   1.00
O308   O     0.22774   0.79513   0.16667   0.00000  Uiso   1.00
O309   O     0.22774   0.87154   0.16667   0.00000  Uiso   1.00
O310   O     0.10559   0.79513   0.16666   0.00000  Uiso   1.00
O311   O     0.16667   0.87155   0.09511   0.00000  Uiso   1.00
O312   O     0.16666   0.79512   0.23822   0.00000  Uiso   1.00
O313   O     0.16666   0.87155   0.23822   0.00000  Uiso   1.00
O314   O     0.16667   0.79512   0.09511   0.00000  Uiso   1.00
Zn315  Zn    0.16667   0.88437   0.16667   0.00000  Uiso   1.00
Zn316  Zn    0.16667   0.78229   0.16667   0.00000  Uiso   1.00
C317   C     0.04232   0.75417   0.20045   0.00000  Uiso   1.00
N318   N     0.05859   0.72272   0.21817   0.00000  Uiso   1.00
C319   C     0.28952   0.91192   0.12747   0.00000  Uiso   1.00
N320   N     0.27259   0.94315   0.11018   0.00000  Uiso   1.00
C321   C     0.29540   0.74742   0.16097   0.00000  Uiso   1.00
N322   N     0.28156   0.71213   0.15611   0.00000  Uiso   1.00
C323   C     0.03767   0.91900   0.16156   0.00000  Uiso   1.00
N324   N     0.05148   0.95449   0.16359   0.00000  Uiso   1.00
C325   C     0.20523   0.71246   0.24872   0.00000  Uiso   1.00
H326   H     0.19653   0.70341   0.28632   0.00000  Uiso   1.00
O327   O     0.23277   0.73908   0.24357   0.00000  Uiso   1.00
C328   C     0.12531   0.95267   0.08738   0.00000  Uiso   1.00
H329   H     0.10753   0.92339   0.09523   0.00000  Uiso   1.00
O330   O     0.12740   0.96509   0.04387   0.00000  Uiso   1.00
C331   C     0.12301   0.71657   0.08995   0.00000  Uiso   1.00
H332   H     0.13681   0.72390   0.05440   0.00000  Uiso   1.00
O333   O     0.08720   0.72761   0.09654   0.00000  Uiso   1.00
C334   C     0.20833   0.95061   0.24540   0.00000  Uiso   1.00
H335   H     0.19570   0.94969   0.28256   0.00000  Uiso   1.00
O336   O     0.24192   0.93311   0.23837   0.00000  Uiso   1.00
C337   C     0.42005   0.83382   0.16941   0.00000  Uiso   1.00
C338   C     0.57972   0.83284   0.16252   0.00000  Uiso   1.00
C339   C     0.49986   0.83339   0.07297   0.00000  Uiso   1.00
C340   C     0.50012   0.83328   0.26036   0.00000  Uiso   1.00
C341   C     0.49994   0.83341   0.02182   0.00000  Uiso   1.00
C342   C     0.50004   0.83326   0.31151   0.00000  Uiso   1.00
C343   C     0.35503   0.79375   0.17826   0.00000  Uiso   1.00
C344   C     0.64426   0.87257   0.14913   0.00000  Uiso   1.00
C345   C     0.64667   0.79160   0.16658   0.00000  Uiso   1.00
C346   C     0.35288   0.87472   0.15955   0.00000  Uiso   1.00
C347   C     0.62398   0.83187   0.15722   0.00000  Uiso   1.00
C348   C     0.37547   0.83464   0.17121   0.00000  Uiso   1.00
C349   C     0.51904   0.68988   0.20511   0.00000  Uiso   1.00
C350   C     0.48045   0.97663   0.12851   0.00000  Uiso   1.00
C351   C     0.48017   0.69132   0.12892   0.00000  Uiso   1.00
C352   C     0.51936   0.97539   0.20471   0.00000  Uiso   1.00
N353   N     0.50000   0.95240   0.16667   0.00000  Uiso   1.00
N354   N     0.50000   0.71427   0.16667   0.00000  Uiso   1.00
O355   O     0.43892   0.87154   0.16666   0.00000  Uiso   1.00
O356   O     0.56108   0.79513   0.16667   0.00000  Uiso   1.00
O357   O     0.56108   0.87154   0.16667   0.00000  Uiso   1.00
O358   O     0.43892   0.79513   0.16666   0.00000  Uiso   1.00
O359   O     0.50000   0.87155   0.09511   0.00000  Uiso   1.00
O360   O     0.50000   0.79512   0.23822   0.00000  Uiso   1.00
O361   O     0.50000   0.87155   0.23822   0.00000  Uiso   1.00
O362   O     0.50000   0.79512   0.09511   0.00000  Uiso   1.00
Zn363  Zn    0.50000   0.88437   0.16667   0.00000  Uiso   1.00
Zn364  Zn    0.50000   0.78229   0.16667   0.00000  Uiso   1.00
C365   C     0.37565   0.75417   0.20045   0.00000  Uiso   1.00
N366   N     0.39192   0.72272   0.21817   0.00000  Uiso   1.00
C367   C     0.62285   0.91192   0.12747   0.00000  Uiso   1.00
N368   N     0.60592   0.94315   0.11018   0.00000  Uiso   1.00
C369   C     0.62874   0.74742   0.16097   0.00000  Uiso   1.00
N370   N     0.61489   0.71213   0.15611   0.00000  Uiso   1.00
C371   C     0.37101   0.91900   0.16156   0.00000  Uiso   1.00
N372   N     0.38482   0.95449   0.16359   0.00000  Uiso   1.00
C373   C     0.53856   0.71246   0.24872   0.00000  Uiso   1.00
H374   H     0.52987   0.70341   0.28632   0.00000  Uiso   1.00
O375   O     0.56610   0.73908   0.24357   0.00000  Uiso   1.00
C376   C     0.45864   0.95267   0.08738   0.00000  Uiso   1.00
H377   H     0.44086   0.92339   0.09523   0.00000  Uiso   1.00
O378   O     0.46074   0.96509   0.04387   0.00000  Uiso   1.00
C379   C     0.45634   0.71657   0.08995   0.00000  Uiso   1.00
H380   H     0.47014   0.72390   0.05440   0.00000  Uiso   1.00
O381   O     0.42054   0.72761   0.09654   0.00000  Uiso   1.00
C382   C     0.54166   0.95061   0.24540   0.00000  Uiso   1.00
H383   H     0.52903   0.94969   0.28256   0.00000  Uiso   1.00
O384   O     0.57526   0.93311   0.23837   0.00000  Uiso   1.00
C385   C     0.75338   0.83382   0.16941   0.00000  Uiso   1.00
C386   C     0.91305   0.83284   0.16252   0.00000  Uiso   1.00
C387   C     0.83319   0.83339   0.07297   0.00000  Uiso   1.00
C388   C     0.83345   0.83328   0.26036   0.00000  Uiso   1.00
C389   C     0.83327   0.83341   0.02182   0.00000  Uiso   1.00
C390   C     0.83337   0.83326   0.31151   0.00000  Uiso   1.00
C391   C     0.68836   0.79375   0.17826   0.00000  Uiso   1.00
C392   C     0.97759   0.87257   0.14913   0.00000  Uiso   1.00
C393   C     0.98000   0.79160   0.16658   0.00000  Uiso   1.00
C394   C     0.68621   0.87472   0.15955   0.00000  Uiso   1.00
C395   C     0.95731   0.83187   0.15722   0.00000  Uiso   1.00
C396   C     0.70881   0.83464   0.17121   0.00000  Uiso   1.00
C397   C     0.85237   0.68988   0.20511   0.00000  Uiso   1.00
C398   C     0.81379   0.97663   0.12851   0.00000  Uiso   1.00
C399   C     0.81350   0.69132   0.12892   0.00000  Uiso   1.00
C400   C     0.85270   0.97539   0.20471   0.00000  Uiso   1.00
N401   N     0.83333   0.95240   0.16667   0.00000  Uiso   1.00
N402   N     0.83333   0.71427   0.16667   0.00000  Uiso   1.00
O403   O     0.77226   0.87154   0.16666   0.00000  Uiso   1.00
O404   O     0.89441   0.79513   0.16667   0.00000  Uiso   1.00
O405   O     0.89441   0.87154   0.16667   0.00000  Uiso   1.00
O406   O     0.77226   0.79513   0.16666   0.00000  Uiso   1.00
O407   O     0.83334   0.87155   0.09511   0.00000  Uiso   1.00
O408   O     0.83333   0.79512   0.23822   0.00000  Uiso   1.00
O409   O     0.83333   0.87155   0.23822   0.00000  Uiso   1.00
O410   O     0.83334   0.79512   0.09511   0.00000  Uiso   1.00
Zn411  Zn    0.83333   0.88437   0.16667   0.00000  Uiso   1.00
Zn412  Zn    0.83333   0.78229   0.16667   0.00000  Uiso   1.00
C413   C     0.70899   0.75417   0.20045   0.00000  Uiso   1.00
N414   N     0.72526   0.72272   0.21817   0.00000  Uiso   1.00
C415   C     0.95619   0.91192   0.12747   0.00000  Uiso   1.00
N416   N     0.93926   0.94315   0.11018   0.00000  Uiso   1.00
C417   C     0.96207   0.74742   0.16097   0.00000  Uiso   1.00
N418   N     0.94822   0.71213   0.15611   0.00000  Uiso   1.00
C419   C     0.70434   0.91900   0.16156   0.00000  Uiso   1.00
N420   N     0.71815   0.95449   0.16359   0.00000  Uiso   1.00
C421   C     0.87189   0.71246   0.24872   0.00000  Uiso   1.00
H422   H     0.86320   0.70341   0.28632   0.00000  Uiso   1.00
O423   O     0.89943   0.73908   0.24357   0.00000  Uiso   1.00
C424   C     0.79198   0.95267   0.08738   0.00000  Uiso   1.00
H425   H     0.77419   0.92339   0.09523   0.00000  Uiso   1.00
O426   O     0.79407   0.96509   0.04387   0.00000  Uiso   1.00
C427   C     0.78968   0.71657   0.08995   0.00000  Uiso   1.00
H428   H     0.80347   0.72390   0.05440   0.00000  Uiso   1.00
O429   O     0.75387   0.72761   0.09654   0.00000  Uiso   1.00
C430   C     0.87500   0.95061   0.24540   0.00000  Uiso   1.00
H431   H     0.86237   0.94969   0.28256   0.00000  Uiso   1.00
O432   O     0.90859   0.93311   0.23837   0.00000  Uiso   1.00
C433   C     0.08672   0.16715   0.50274   0.00000  Uiso   1.00
C434   C     0.24638   0.16618   0.49585   0.00000  Uiso   1.00
C435   C     0.16653   0.16672   0.40631   0.00000  Uiso   1.00
C436   C     0.16678   0.16661   0.59369   0.00000  Uiso   1.00
C437   C     0.16661   0.16675   0.35516   0.00000  Uiso   1.00
C438   C     0.16670   0.16659   0.64484   0.00000  Uiso   1.00
C439   C     0.02169   0.12708   0.51159   0.00000  Uiso   1.00
C440   C     0.31092   0.20591   0.48247   0.00000  Uiso   1.00
C441   C     0.31334   0.12493   0.49991   0.00000  Uiso   1.00
C442   C     0.01955   0.20806   0.49288   0.00000  Uiso   1.00
C443   C     0.29064   0.16520   0.49056   0.00000  Uiso   1.00
C444   C     0.04214   0.16797   0.50454   0.00000  Uiso   1.00
C445   C     0.18571   0.02321   0.53844   0.00000  Uiso   1.00
C446   C     0.14712   0.30996   0.46185   0.00000  Uiso   1.00
C447   C     0.14684   0.02465   0.46225   0.00000  Uiso   1.00
C448   C     0.18603   0.30872   0.53804   0.00000  Uiso   1.00
N449   N     0.16667   0.28573   0.50000   0.00000  Uiso   1.00
N450   N     0.16667   0.04760   0.50000   0.00000  Uiso   1.00
O451   O     0.10559   0.20487   0.50000   0.00000  Uiso   1.00
O452   O     0.22774   0.12846   0.50000   0.00000  Uiso   1.00
O453   O     0.22774   0.20487   0.50000   0.00000  Uiso   1.00
O454   O     0.10559   0.12846   0.50000   0.00000  Uiso   1.00
O455   O     0.16667   0.20488   0.42845   0.00000  Uiso   1.00
O456   O     0.16666   0.12845   0.57155   0.00000  Uiso   1.00
O457   O     0.16666   0.20488   0.57155   0.00000  Uiso   1.00
O458   O     0.16667   0.12845   0.42845   0.00000  Uiso   1.00
Zn459  Zn    0.16667   0.21771   0.50000   0.00000  Uiso   1.00
Zn460  Zn    0.16667   0.11563   0.50000   0.00000  Uiso   1.00
C461   C     0.04232   0.08750   0.53379   0.00000  Uiso   1.00
N462   N     0.05859   0.05606   0.55150   0.00000  Uiso   1.00
C463   C     0.28952   0.24526   0.46080   0.00000  Uiso   1.00
N464   N     0.27259   0.27649   0.44351   0.00000  Uiso   1.00
C465   C     0.29540   0.08076   0.49430   0.00000  Uiso   1.00
N466   N     0.28156   0.04547   0.48944   0.00000  Uiso   1.00
C467   C     0.03767   0.25233   0.49489   0.00000  Uiso   1.00
N468   N     0.05148   0.28783   0.49693   0.00000  Uiso   1.00
C469   C     0.20523   0.04579   0.58205   0.00000  Uiso   1.00
H470   H     0.19653   0.03674   0.61966   0.00000  Uiso   1.00
O471   O     0.23277   0.07242   0.57690   0.00000  Uiso   1.00
C472   C     0.12531   0.28601   0.42071   0.00000  Uiso   1.00
H473   H     0.10753   0.25672   0.42856   0.00000  Uiso   1.00
O474   O     0.12740   0.29842   0.37720   0.00000  Uiso   1.00
C475   C     0.12301   0.04990   0.42329   0.00000  Uiso   1.00
H476   H     0.13681   0.05723   0.38774   0.00000  Uiso   1.00
O477   O     0.08720   0.06094   0.42988   0.00000  Uiso   1.00
C478   C     0.20833   0.28394   0.57873   0.00000  Uiso   1.00
H479   H     0.19570   0.28302   0.61589   0.00000  Uiso   1.00
O480   O     0.24192   0.26644   0.57171   0.00000  Uiso   1.00
C481   C     0.42005   0.16715   0.50274   0.00000  Uiso   1.00
C482   C     0.57972   0.16618   0.49585   0.00000  Uiso   1.00
C483   C     0.49986   0.16672   0.40631   0.00000  Uiso   1.00
C484   C     0.50012   0.16661   0.59369   0.00000  Uiso   1.00
C485   C     0.49994   0.16675   0.35516   0.00000  Uiso   1.00
C486   C     0.50004   0.16659   0.64484   0.00000  Uiso   1.00
C487   C     0.35503   0.12708   0.51159   0.00000  Uiso   1.00
C488   C     0.64426   0.20591   0.48247   0.00000  Uiso   1.00
C489   C     0.64667   0.12493   0.49991   0.00000  Uiso   1.00
C490   C     0.35288   0.20806   0.49288   0.00000  Uiso   1.00
C491   C     0.62398   0.16520   0.49056   0.00000  Uiso   1.00
C492   C     0.37547   0.16797   0.50454   0.00000  Uiso   1.00
C493   C     0.51904   0.02321   0.53844   0.00000  Uiso   1.00
C494   C     0.48045   0.30996   0.46185   0.00000  Uiso   1.00
C495   C     0.48017   0.02465   0.46225   0.00000  Uiso   1.00
C496   C     0.51936   0.30872   0.53804   0.00000  Uiso   1.00
N497   N     0.50000   0.28573   0.50000   0.00000  Uiso   1.00
N498   N     0.50000   0.04760   0.50000   0.00000  Uiso   1.00
O499   O     0.43892   0.20487   0.50000   0.00000  Uiso   1.00
O500   O     0.56108   0.12846   0.50000   0.00000  Uiso   1.00
O501   O     0.56108   0.20487   0.50000   0.00000  Uiso   1.00
O502   O     0.43892   0.12846   0.50000   0.00000  Uiso   1.00
O503   O     0.50000   0.20488   0.42845   0.00000  Uiso   1.00
O504   O     0.50000   0.12845   0.57155   0.00000  Uiso   1.00
O505   O     0.50000   0.20488   0.57155   0.00000  Uiso   1.00
O506   O     0.50000   0.12845   0.42845   0.00000  Uiso   1.00
Zn507  Zn    0.50000   0.21771   0.50000   0.00000  Uiso   1.00
Zn508  Zn    0.50000   0.11563   0.50000   0.00000  Uiso   1.00
C509   C     0.37565   0.08750   0.53379   0.00000  Uiso   1.00
N510   N     0.39192   0.05606   0.55150   0.00000  Uiso   1.00
C511   C     0.62285   0.24526   0.46080   0.00000  Uiso   1.00
N512   N     0.60592   0.27649   0.44351   0.00000  Uiso   1.00
C513   C     0.62874   0.08076   0.49430   0.00000  Uiso   1.00
N514   N     0.61489   0.04547   0.48944   0.00000  Uiso   1.00
C515   C     0.37101   0.25233   0.49489   0.00000  Uiso   1.00
N516   N     0.38482   0.28783   0.49693   0.00000  Uiso   1.00
C517   C     0.53856   0.04579   0.58205   0.00000  Uiso   1.00
H518   H     0.52987   0.03674   0.61966   0.00000  Uiso   1.00
O519   O     0.56610   0.07242   0.57690   0.00000  Uiso   1.00
C520   C     0.45864   0.28601   0.42071   0.00000  Uiso   1.00
H521   H     0.44086   0.25672   0.42856   0.00000  Uiso   1.00
O522   O     0.46074   0.29842   0.37720   0.00000  Uiso   1.00
C523   C     0.45634   0.04990   0.42329   0.00000  Uiso   1.00
H524   H     0.47014   0.05723   0.38774   0.00000  Uiso   1.00
O525   O     0.42054   0.06094   0.42988   0.00000  Uiso   1.00
C526   C     0.54166   0.28394   0.57873   0.00000  Uiso   1.00
H527   H     0.52903   0.28302   0.61589   0.00000  Uiso   1.00
O528   O     0.57526   0.26644   0.57171   0.00000  Uiso   1.00
C529   C     0.75338   0.16715   0.50274   0.00000  Uiso   1.00
C530   C     0.91305   0.16618   0.49585   0.00000  Uiso   1.00
C531   C     0.83319   0.16672   0.40631   0.00000  Uiso   1.00
C532   C     0.83345   0.16661   0.59369   0.00000  Uiso   1.00
C533   C     0.83327   0.16675   0.35516   0.00000  Uiso   1.00
C534   C     0.83337   0.16659   0.64484   0.00000  Uiso   1.00
C535   C     0.68836   0.12708   0.51159   0.00000  Uiso   1.00
C536   C     0.97759   0.20591   0.48247   0.00000  Uiso   1.00
C537   C     0.98000   0.12493   0.49991   0.00000  Uiso   1.00
C538   C     0.68621   0.20806   0.49288   0.00000  Uiso   1.00
C539   C     0.95731   0.16520   0.49056   0.00000  Uiso   1.00
C540   C     0.70881   0.16797   0.50454   0.00000  Uiso   1.00
C541   C     0.85237   0.02321   0.53844   0.00000  Uiso   1.00
C542   C     0.81379   0.30996   0.46185   0.00000  Uiso   1.00
C543   C     0.81350   0.02465   0.46225   0.00000  Uiso   1.00
C544   C     0.85270   0.30872   0.53804   0.00000  Uiso   1.00
N545   N     0.83333   0.28573   0.50000   0.00000  Uiso   1.00
N546   N     0.83333   0.04760   0.50000   0.00000  Uiso   1.00
O547   O     0.77226   0.20487   0.50000   0.00000  Uiso   1.00
O548   O     0.89441   0.12846   0.50000   0.00000  Uiso   1.00
O549   O     0.89441   0.20487   0.50000   0.00000  Uiso   1.00
O550   O     0.77226   0.12846   0.50000   0.00000  Uiso   1.00
O551   O     0.83334   0.20488   0.42845   0.00000  Uiso   1.00
O552   O     0.83333   0.12845   0.57155   0.00000  Uiso   1.00
O553   O     0.83333   0.20488   0.57155   0.00000  Uiso   1.00
O554   O     0.83334   0.12845   0.42845   0.00000  Uiso   1.00
Zn555  Zn    0.83333   0.21771   0.50000   0.00000  Uiso   1.00
Zn556  Zn    0.83333   0.11563   0.50000   0.00000  Uiso   1.00
C557   C     0.70899   0.08750   0.53379   0.00000  Uiso   1.00
N558   N     0.72526   0.05606   0.55150   0.00000  Uiso   1.00
C559   C     0.95619   0.24526   0.46080   0.00000  Uiso   1.00
N560   N     0.93926   0.27649   0.44351   0.00000  Uiso   1.00
C561   C     0.96207   0.08076   0.49430   0.00000  Uiso   1.00
N562   N     0.94822   0.04547   0.48944   0.00000  Uiso   1.00
C563   C     0.70434   0.25233   0.49489   0.00000  Uiso   1.00
N564   N     0.71815   0.28783   0.49693   0.00000  Uiso   1.00
C565   C     0.87189   0.04579   0.58205   0.00000  Uiso   1.00
H566   H     0.86320   0.03674   0.61966   0.00000  Uiso   1.00
O567   O     0.89943   0.07242   0.57690   0.00000  Uiso   1.00
C568   C     0.79198   0.28601   0.42071   0.00000  Uiso   1.00
H569   H     0.77419   0.25672   0.42856   0.00000  Uiso   1.00
O570   O     0.79407   0.29842   0.37720   0.00000  Uiso   1.00
C571   C     0.78968   0.04990   0.42329   0.00000  Uiso   1.00
H572   H     0.80347   0.05723   0.38774   0.00000  Uiso   1.00
O573   O     0.75387   0.06094   0.42988   0.00000  Uiso   1.00
C574   C     0.87500   0.28394   0.57873   0.00000  Uiso   1.00
H575   H     0.86237   0.28302   0.61589   0.00000  Uiso   1.00
O576   O     0.90859   0.26644   0.57171   0.00000  Uiso   1.00
C577   C     0.08672   0.50048   0.50274   0.00000  Uiso   1.00
C578   C     0.24638   0.49951   0.49585   0.00000  Uiso   1.00
C579   C     0.16653   0.50006   0.40631   0.00000  Uiso   1.00
C580   C     0.16678   0.49995   0.59369   0.00000  Uiso   1.00
C581   C     0.16661   0.50008   0.35516   0.00000  Uiso   1.00
C582   C     0.16670   0.49993   0.64484   0.00000  Uiso   1.00
C583   C     0.02169   0.46041   0.51159   0.00000  Uiso   1.00
C584   C     0.31092   0.53924   0.48247   0.00000  Uiso   1.00
C585   C     0.31334   0.45827   0.49991   0.00000  Uiso   1.00
C586   C     0.01955   0.54139   0.49288   0.00000  Uiso   1.00
C587   C     0.29064   0.49854   0.49056   0.00000  Uiso   1.00
C588   C     0.04214   0.50131   0.50454   0.00000  Uiso   1.00
C589   C     0.18571   0.35654   0.53844   0.00000  Uiso   1.00
C590   C     0.14712   0.64329   0.46185   0.00000  Uiso   1.00
C591   C     0.14684   0.35798   0.46225   0.00000  Uiso   1.00
C592   C     0.18603   0.64206   0.53804   0.00000  Uiso   1.00
N593   N     0.16667   0.61907   0.50000   0.00000  Uiso   1.00
N594   N     0.16667   0.38093   0.50000   0.00000  Uiso   1.00
O595   O     0.10559   0.53821   0.50000   0.00000  Uiso   1.00
O596   O     0.22774   0.46179   0.50000   0.00000  Uiso   1.00
O597   O     0.22774   0.53821   0.50000   0.00000  Uiso   1.00
O598   O     0.10559   0.46179   0.50000   0.00000  Uiso   1.00
O599   O     0.16667   0.53821   0.42845   0.00000  Uiso   1.00
O600   O     0.16666   0.46179   0.57155   0.00000  Uiso   1.00
O601   O     0.16666   0.53821   0.57155   0.00000  Uiso   1.00
O602   O     0.16667   0.46179   0.42845   0.00000  Uiso   1.00
Zn603  Zn    0.16667   0.55104   0.50000   0.00000  Uiso   1.00
Zn604  Zn    0.16667   0.44896   0.50000   0.00000  Uiso   1.00
C605   C     0.04232   0.42083   0.53379   0.00000  Uiso   1.00
N606   N     0.05859   0.38939   0.55150   0.00000  Uiso   1.00
C607   C     0.28952   0.57859   0.46080   0.00000  Uiso   1.00
N608   N     0.27259   0.60982   0.44351   0.00000  Uiso   1.00
C609   C     0.29540   0.41409   0.49430   0.00000  Uiso   1.00
N610   N     0.28156   0.37880   0.48944   0.00000  Uiso   1.00
C611   C     0.03767   0.58567   0.49489   0.00000  Uiso   1.00
N612   N     0.05148   0.62116   0.49693   0.00000  Uiso   1.00
C613   C     0.20523   0.37913   0.58205   0.00000  Uiso   1.00
H614   H     0.19653   0.37007   0.61966   0.00000  Uiso   1.00
O615   O     0.23277   0.40575   0.57690   0.00000  Uiso   1.00
C616   C     0.12531   0.61934   0.42071   0.00000  Uiso   1.00
H617   H     0.10753   0.59006   0.42856   0.00000  Uiso   1.00
O618   O     0.12740   0.63175   0.37720   0.00000  Uiso   1.00
C619   C     0.12301   0.38324   0.42329   0.00000  Uiso   1.00
H620   H     0.13681   0.39057   0.38774   0.00000  Uiso   1.00
O621   O     0.08720   0.39428   0.42988   0.00000  Uiso   1.00
C622   C     0.20833   0.61728   0.57873   0.00000  Uiso   1.00
H623   H     0.19570   0.61635   0.61589   0.00000  Uiso   1.00
O624   O     0.24192   0.59978   0.57171   0.00000  Uiso   1.00
C625   C     0.42005   0.50048   0.50274   0.00000  Uiso   1.00
C626   C     0.57972   0.49951   0.49585   0.00000  Uiso   1.00
C627   C     0.49986   0.50006   0.40631   0.00000  Uiso   1.00
C628   C     0.50012   0.49995   0.59369   0.00000  Uiso   1.00
C629   C     0.49994   0.50008   0.35516   0.00000  Uiso   1.00
C630   C     0.50004   0.49993   0.64484   0.00000  Uiso   1.00
C631   C     0.35503   0.46041   0.51159   0.00000  Uiso   1.00
C632   C     0.64426   0.53924   0.48247   0.00000  Uiso   1.00
C633   C     0.64667   0.45827   0.49991   0.00000  Uiso   1.00
C634   C     0.35288   0.54139   0.49288   0.00000  Uiso   1.00
C635   C     0.62398   0.49854   0.49056   0.00000  Uiso   1.00
C636   C     0.37547   0.50131   0.50454   0.00000  Uiso   1.00
C637   C     0.51904   0.35654   0.53844   0.00000  Uiso   1.00
C638   C     0.48045   0.64329   0.46185   0.00000  Uiso   1.00
C639   C     0.48017   0.35798   0.46225   0.00000  Uiso   1.00
C640   C     0.51936   0.64206   0.53804   0.00000  Uiso   1.00
N641   N     0.50000   0.61907   0.50000   0.00000  Uiso   1.00
N642   N     0.50000   0.38093   0.50000   0.00000  Uiso   1.00
O643   O     0.43892   0.53821   0.50000   0.00000  Uiso   1.00
O644   O     0.56108   0.46179   0.50000   0.00000  Uiso   1.00
O645   O     0.56108   0.53821   0.50000   0.00000  Uiso   1.00
O646   O     0.43892   0.46179   0.50000   0.00000  Uiso   1.00
O647   O     0.50000   0.53821   0.42845   0.00000  Uiso   1.00
O648   O     0.50000   0.46179   0.57155   0.00000  Uiso   1.00
O649   O     0.50000   0.53821   0.57155   0.00000  Uiso   1.00
O650   O     0.50000   0.46179   0.42845   0.00000  Uiso   1.00
Zn651  Zn    0.50000   0.55104   0.50000   0.00000  Uiso   1.00
Zn652  Zn    0.50000   0.44896   0.50000   0.00000  Uiso   1.00
C653   C     0.37565   0.42083   0.53379   0.00000  Uiso   1.00
N654   N     0.39192   0.38939   0.55150   0.00000  Uiso   1.00
C655   C     0.62285   0.57859   0.46080   0.00000  Uiso   1.00
N656   N     0.60592   0.60982   0.44351   0.00000  Uiso   1.00
C657   C     0.62874   0.41409   0.49430   0.00000  Uiso   1.00
N658   N     0.61489   0.37880   0.48944   0.00000  Uiso   1.00
C659   C     0.37101   0.58567   0.49489   0.00000  Uiso   1.00
N660   N     0.38482   0.62116   0.49693   0.00000  Uiso   1.00
C661   C     0.53856   0.37913   0.58205   0.00000  Uiso   1.00
H662   H     0.52987   0.37007   0.61966   0.00000  Uiso   1.00
O663   O     0.56610   0.40575   0.57690   0.00000  Uiso   1.00
C664   C     0.45864   0.61934   0.42071   0.00000  Uiso   1.00
H665   H     0.44086   0.59006   0.42856   0.00000  Uiso   1.00
O666   O     0.46074   0.63175   0.37720   0.00000  Uiso   1.00
C667   C     0.45634   0.38324   0.42329   0.00000  Uiso   1.00
H668   H     0.47014   0.39057   0.38774   0.00000  Uiso   1.00
O669   O     0.42054   0.39428   0.42988   0.00000  Uiso   1.00
C670   C     0.54166   0.61728   0.57873   0.00000  Uiso   1.00
H671   H     0.52903   0.61635   0.61589   0.00000  Uiso   1.00
O672   O     0.57526   0.59978   0.57171   0.00000  Uiso   1.00
C673   C     0.75338   0.50048   0.50274   0.00000  Uiso   1.00
C674   C     0.91305   0.49951   0.49585   0.00000  Uiso   1.00
C675   C     0.83319   0.50006   0.40631   0.00000  Uiso   1.00
C676   C     0.83345   0.49995   0.59369   0.00000  Uiso   1.00
C677   C     0.83327   0.50008   0.35516   0.00000  Uiso   1.00
C678   C     0.83337   0.49993   0.64484   0.00000  Uiso   1.00
C679   C     0.68836   0.46041   0.51159   0.00000  Uiso   1.00
C680   C     0.97759   0.53924   0.48247   0.00000  Uiso   1.00
C681   C     0.98000   0.45827   0.49991   0.00000  Uiso   1.00
C682   C     0.68621   0.54139   0.49288   0.00000  Uiso   1.00
C683   C     0.95731   0.49854   0.49056   0.00000  Uiso   1.00
C684   C     0.70881   0.50131   0.50454   0.00000  Uiso   1.00
C685   C     0.85237   0.35654   0.53844   0.00000  Uiso   1.00
C686   C     0.81379   0.64329   0.46185   0.00000  Uiso   1.00
C687   C     0.81350   0.35798   0.46225   0.00000  Uiso   1.00
C688   C     0.85270   0.64206   0.53804   0.00000  Uiso   1.00
N689   N     0.83333   0.61907   0.50000   0.00000  Uiso   1.00
N690   N     0.83333   0.38093   0.50000   0.00000  Uiso   1.00
O691   O     0.77226   0.53821   0.50000   0.00000  Uiso   1.00
O692   O     0.89441   0.46179   0.50000   0.00000  Uiso   1.00
O693   O     0.89441   0.53821   0.50000   0.00000  Uiso   1.00
O694   O     0.77226   0.46179   0.50000   0.00000  Uiso   1.00
O695   O     0.83334   0.53821   0.42845   0.00000  Uiso   1.00
O696   O     0.83333   0.46179   0.57155   0.00000  Uiso   1.00
O697   O     0.83333   0.53821   0.57155   0.00000  Uiso   1.00
O698   O     0.83334   0.46179   0.42845   0.00000  Uiso   1.00
Zn699  Zn    0.83333   0.55104   0.50000   0.00000  Uiso   1.00
Zn700  Zn    0.83333   0.44896   0.50000   0.00000  Uiso   1.00
C701   C     0.70899   0.42083   0.53379   0.00000  Uiso   1.00
N702   N     0.72526   0.38939   0.55150   0.00000  Uiso   1.00
C703   C     0.95619   0.57859   0.46080   0.00000  Uiso   1.00
N704   N     0.93926   0.60982   0.44351   0.00000  Uiso   1.00
C705   C     0.96207   0.41409   0.49430   0.00000  Uiso   1.00
N706   N     0.94822   0.37880   0.48944   0.00000  Uiso   1.00
C707   C     0.70434   0.58567   0.49489   0.00000  Uiso   1.00
N708   N     0.71815   0.62116   0.49693   0.00000  Uiso   1.00
C709   C     0.87189   0.37913   0.58205   0.00000  Uiso   1.00
H710   H     0.86320   0.37007   0.61966   0.00000  Uiso   1.00
O711   O     0.89943   0.40575   0.57690   0.00000  Uiso   1.00
C712   C     0.79198   0.61934   0.42071   0.00000  Uiso   1.00
H713   H     0.77419   0.59006   0.42856   0.00000  Uiso   1.00
O714   O     0.79407   0.63175   0.37720   0.00000  Uiso   1.00
C715   C     0.78968   0.38324   0.42329   0.00000  Uiso   1.00
H716   H     0.80347   0.39057   0.38774   0.00000  Uiso   1.00
O717   O     0.75387   0.39428   0.42988   0.00000  Uiso   1.00
C718   C     0.87500   0.61728   0.57873   0.00000  Uiso   1.00
H719   H     0.86237   0.61635   0.61589   0.00000  Uiso   1.00
O720   O     0.90859   0.59978   0.57171   0.00000  Uiso   1.00
C721   C     0.08672   0.83382   0.50274   0.00000  Uiso   1.00
C722   C     0.24638   0.83284   0.49585   0.00000  Uiso   1.00
C723   C     0.16653   0.83339   0.40631   0.00000  Uiso   1.00
C724   C     0.16678   0.83328   0.59369   0.00000  Uiso   1.00
C725   C     0.16661   0.83341   0.35516   0.00000  Uiso   1.00
C726   C     0.16670   0.83326   0.64484   0.00000  Uiso   1.00
C727   C     0.02169   0.79375   0.51159   0.00000  Uiso   1.00
C728   C     0.31092   0.87257   0.48247   0.00000  Uiso   1.00
C729   C     0.31334   0.79160   0.49991   0.00000  Uiso   1.00
C730   C     0.01955   0.87472   0.49288   0.00000  Uiso   1.00
C731   C     0.29064   0.83187   0.49056   0.00000  Uiso   1.00
C732   C     0.04214   0.83464   0.50454   0.00000  Uiso   1.00
C733   C     0.18571   0.68988   0.53844   0.00000  Uiso   1.00
C734   C     0.14712   0.97663   0.46185   0.00000  Uiso   1.00
C735   C     0.14684   0.69132   0.46225   0.00000  Uiso   1.00
C736   C     0.18603   0.97539   0.53804   0.00000  Uiso   1.00
N737   N     0.16667   0.95240   0.50000   0.00000  Uiso   1.00
N738   N     0.16667   0.71427   0.50000   0.00000  Uiso   1.00
O739   O     0.10559   0.87154   0.50000   0.00000  Uiso   1.00
O740   O     0.22774   0.79513   0.50000   0.00000  Uiso   1.00
O741   O     0.22774   0.87154   0.50000   0.00000  Uiso   1.00
O742   O     0.10559   0.79513   0.50000   0.00000  Uiso   1.00
O743   O     0.16667   0.87155   0.42845   0.00000  Uiso   1.00
O744   O     0.16666   0.79512   0.57155   0.00000  Uiso   1.00
O745   O     0.16666   0.87155   0.57155   0.00000  Uiso   1.00
O746   O     0.16667   0.79512   0.42845   0.00000  Uiso   1.00
Zn747  Zn    0.16667   0.88437   0.50000   0.00000  Uiso   1.00
Zn748  Zn    0.16667   0.78229   0.50000   0.00000  Uiso   1.00
C749   C     0.04232   0.75417   0.53379   0.00000  Uiso   1.00
N750   N     0.05859   0.72272   0.55150   0.00000  Uiso   1.00
C751   C     0.28952   0.91192   0.46080   0.00000  Uiso   1.00
N752   N     0.27259   0.94315   0.44351   0.00000  Uiso   1.00
C753   C     0.29540   0.74742   0.49430   0.00000  Uiso   1.00
N754   N     0.28156   0.71213   0.48944   0.00000  Uiso   1.00
C755   C     0.03767   0.91900   0.49489   0.00000  Uiso   1.00
N756   N     0.05148   0.95449   0.49693   0.00000  Uiso   1.00
C757   C     0.20523   0.71246   0.58205   0.00000  Uiso   1.00
H758   H     0.19653   0.70341   0.61966   0.00000  Uiso   1.00
O759   O     0.23277   0.73908   0.57690   0.00000  Uiso   1.00
C760   C     0.12531   0.95267   0.42071   0.00000  Uiso   1.00
H761   H     0.10753   0.92339   0.42856   0.00000  Uiso   1.00
O762   O     0.12740   0.96509   0.37720   0.00000  Uiso   1.00
C763   C     0.12301   0.71657   0.42329   0.00000  Uiso   1.00
H764   H     0.13681   0.72390   0.38774   0.00000  Uiso   1.00
O765   O     0.08720   0.72761   0.42988   0.00000  Uiso   1.00
C766   C     0.20833   0.95061   0.57873   0.00000  Uiso   1.00
H767   H     0.19570   0.94969   0.61589   0.00000  Uiso   1.00
O768   O     0.24192   0.93311   0.57171   0.00000  Uiso   1.00
C769   C     0.42005   0.83382   0.50274   0.00000  Uiso   1.00
C770   C     0.57972   0.83284   0.49585   0.00000  Uiso   1.00
C771   C     0.49986   0.83339   0.40631   0.00000  Uiso   1.00
C772   C     0.50012   0.83328   0.59369   0.00000  Uiso   1.00
C773   C     0.49994   0.83341   0.35516   0.00000  Uiso   1.00
C774   C     0.50004   0.83326   0.64484   0.00000  Uiso   1.00
C775   C     0.35503   0.79375   0.51159   0.00000  Uiso   1.00
C776   C     0.64426   0.87257   0.48247   0.00000  Uiso   1.00
C777   C     0.64667   0.79160   0.49991   0.00000  Uiso   1.00
C778   C     0.35288   0.87472   0.49288   0.00000  Uiso   1.00
C779   C     0.62398   0.83187   0.49056   0.00000  Uiso   1.00
C780   C     0.37547   0.83464   0.50454   0.00000  Uiso   1.00
C781   C     0.51904   0.68988   0.53844   0.00000  Uiso   1.00
C782   C     0.48045   0.97663   0.46185   0.00000  Uiso   1.00
C783   C     0.48017   0.69132   0.46225   0.00000  Uiso   1.00
C784   C     0.51936   0.97539   0.53804   0.00000  Uiso   1.00
N785   N     0.50000   0.95240   0.50000   0.00000  Uiso   1.00
N786   N     0.50000   0.71427   0.50000   0.00000  Uiso   1.00
O787   O     0.43892   0.87154   0.50000   0.00000  Uiso   1.00
O788   O     0.56108   0.79513   0.50000   0.00000  Uiso   1.00
O789   O     0.56108   0.87154   0.50000   0.00000  Uiso   1.00
O790   O     0.43892   0.79513   0.50000   0.00000  Uiso   1.00
O791   O     0.50000   0.87155   0.42845   0.00000  Uiso   1.00
O792   O     0.50000   0.79512   0.57155   0.00000  Uiso   1.00
O793   O     0.50000   0.87155   0.57155   0.00000  Uiso   1.00
O794   O     0.50000   0.79512   0.42845   0.00000  Uiso   1.00
Zn795  Zn    0.50000   0.88437   0.50000   0.00000  Uiso   1.00
Zn796  Zn    0.50000   0.78229   0.50000   0.00000  Uiso   1.00
C797   C     0.37565   0.75417   0.53379   0.00000  Uiso   1.00
N798   N     0.39192   0.72272   0.55150   0.00000  Uiso   1.00
C799   C     0.62285   0.91192   0.46080   0.00000  Uiso   1.00
N800   N     0.60592   0.94315   0.44351   0.00000  Uiso   1.00
C801   C     0.62874   0.74742   0.49430   0.00000  Uiso   1.00
N802   N     0.61489   0.71213   0.48944   0.00000  Uiso   1.00
C803   C     0.37101   0.91900   0.49489   0.00000  Uiso   1.00
N804   N     0.38482   0.95449   0.49693   0.00000  Uiso   1.00
C805   C     0.53856   0.71246   0.58205   0.00000  Uiso   1.00
H806   H     0.52987   0.70341   0.61966   0.00000  Uiso   1.00
O807   O     0.56610   0.73908   0.57690   0.00000  Uiso   1.00
C808   C     0.45864   0.95267   0.42071   0.00000  Uiso   1.00
H809   H     0.44086   0.92339   0.42856   0.00000  Uiso   1.00
O810   O     0.46074   0.96509   0.37720   0.00000  Uiso   1.00
C811   C     0.45634   0.71657   0.42329   0.00000  Uiso   1.00
H812   H     0.47014   0.72390   0.38774   0.00000  Uiso   1.00
O813   O     0.42054   0.72761   0.42988   0.00000  Uiso   1.00
C814   C     0.54166   0.95061   0.57873   0.00000  Uiso   1.00
H815   H     0.52903   0.94969   0.61589   0.00000  Uiso   1.00
O816   O     0.57526   0.93311   0.57171   0.00000  Uiso   1.00
C817   C     0.75338   0.83382   0.50274   0.00000  Uiso   1.00
C818   C     0.91305   0.83284   0.49585   0.00000  Uiso   1.00
C819   C     0.83319   0.83339   0.40631   0.00000  Uiso   1.00
C820   C     0.83345   0.83328   0.59369   0.00000  Uiso   1.00
C821   C     0.83327   0.83341   0.35516   0.00000  Uiso   1.00
C822   C     0.83337   0.83326   0.64484   0.00000  Uiso   1.00
C823   C     0.68836   0.79375   0.51159   0.00000  Uiso   1.00
C824   C     0.97759   0.87257   0.48247   0.00000  Uiso   1.00
C825   C     0.98000   0.79160   0.49991   0.00000  Uiso   1.00
C826   C     0.68621   0.87472   0.49288   0.00000  Uiso   1.00
C827   C     0.95731   0.83187   0.49056   0.00000  Uiso   1.00
C828   C     0.70881   0.83464   0.50454   0.00000  Uiso   1.00
C829   C     0.85237   0.68988   0.53844   0.00000  Uiso   1.00
C830   C     0.81379   0.97663   0.46185   0.00000  Uiso   1.00
C831   C     0.81350   0.69132   0.46225   0.00000  Uiso   1.00
C832   C     0.85270   0.97539   0.53804   0.00000  Uiso   1.00
N833   N     0.83333   0.95240   0.50000   0.00000  Uiso   1.00
N834   N     0.83333   0.71427   0.50000   0.00000  Uiso   1.00
O835   O     0.77226   0.87154   0.50000   0.00000  Uiso   1.00
O836   O     0.89441   0.79513   0.50000   0.00000  Uiso   1.00
O837   O     0.89441   0.87154   0.50000   0.00000  Uiso   1.00
O838   O     0.77226   0.79513   0.50000   0.00000  Uiso   1.00
O839   O     0.83334   0.87155   0.42845   0.00000  Uiso   1.00
O840   O     0.83333   0.79512   0.57155   0.00000  Uiso   1.00
O841   O     0.83333   0.87155   0.57155   0.00000  Uiso   1.00
O842   O     0.83334   0.79512   0.42845   0.00000  Uiso   1.00
Zn843  Zn    0.83333   0.88437   0.50000   0.00000  Uiso   1.00
Zn844  Zn    0.83333   0.78229   0.50000   0.00000  Uiso   1.00
C845   C     0.70899   0.75417   0.53379   0.00000  Uiso   1.00
N846   N     0.72526   0.72272   0.55150   0.00000  Uiso   1.00
C847   C     0.95619   0.91192   0.46080   0.00000  Uiso   1.00
N848   N     0.93926   0.94315   0.44351   0.00000  Uiso   1.00
C849   C     0.96207   0.74742   0.49430   0.00000  Uiso   1.00
N850   N     0.94822   0.71213   0.48944   0.00000  Uiso   1.00
C851   C     0.70434   0.91900   0.49489   0.00000  Uiso   1.00
N852   N     0.71815   0.95449   0.49693   0.00000  Uiso   1.00
C853   C     0.87189   0.71246   0.58205   0.00000  Uiso   1.00
H854   H     0.86320   0.70341   0.61966   0.00000  Uiso   1.00
O855   O     0.89943   0.73908   0.57690   0.00000  Uiso   1.00
C856   C     0.79198   0.95267   0.42071   0.00000  Uiso   1.00
H857   H     0.77419   0.92339   0.42856   0.00000  Uiso   1.00
O858   O     0.79407   0.96509   0.37720   0.00000  Uiso   1.00
C859   C     0.78968   0.71657   0.42329   0.00000  Uiso   1.00
H860   H     0.80347   0.72390   0.38774   0.00000  Uiso   1.00
O861   O     0.75387   0.72761   0.42988   0.00000  Uiso   1.00
C862   C     0.87500   0.95061   0.57873   0.00000  Uiso   1.00
H863   H     0.86237   0.94969   0.61589   0.00000  Uiso   1.00
O864   O     0.90859   0.93311   0.57171   0.00000  Uiso   1.00
C865   C     0.08672   0.16715   0.83608   0.00000  Uiso   1.00
C866   C     0.24638   0.16618   0.82919   0.00000  Uiso   1.00
C867   C     0.16653   0.16672   0.73964   0.00000  Uiso   1.00
C868   C     0.16678   0.16661   0.92703   0.00000  Uiso   1.00
C869   C     0.16661   0.16675   0.68849   0.00000  Uiso   1.00
C870   C     0.16670   0.16659   0.97818   0.00000  Uiso   1.00
C871   C     0.02169   0.12708   0.84493   0.00000  Uiso   1.00
C872   C     0.31092   0.20591   0.81580   0.00000  Uiso   1.00
C873   C     0.31334   0.12493   0.83324   0.00000  Uiso   1.00
C874   C     0.01955   0.20806   0.82622   0.00000  Uiso   1.00
C875   C     0.29064   0.16520   0.82389   0.00000  Uiso   1.00
C876   C     0.04214   0.16797   0.83787   0.00000  Uiso   1.00
C877   C     0.18571   0.02321   0.87177   0.00000  Uiso   1.00
C878   C     0.14712   0.30996   0.79518   0.00000  Uiso   1.00
C879   C     0.14684   0.02465   0.79559   0.00000  Uiso   1.00
C880   C     0.18603   0.30872   0.87137   0.00000  Uiso   1.00
N881   N     0.16667   0.28573   0.83333   0.00000  Uiso   1.00
N882   N     0.16667   0.04760   0.83333   0.00000  Uiso   1.00
O883   O     0.10559   0.20487   0.83333   0.00000  Uiso   1.00
O884   O     0.22774   0.12846   0.83334   0.00000  Uiso   1.00
O885   O     0.22774   0.20487   0.83334   0.00000  Uiso   1.00
O886   O     0.10559   0.12846   0.83333   0.00000  Uiso   1.00
O887   O     0.16667   0.20488   0.76178   0.00000  Uiso   1.00
O888   O     0.16666   0.12845   0.90489   0.00000  Uiso   1.00
O889   O     0.16666   0.20488   0.90489   0.00000  Uiso   1.00
O890   O     0.16667   0.12845   0.76178   0.00000  Uiso   1.00
Zn891  Zn    0.16667   0.21771   0.83333   0.00000  Uiso   1.00
Zn892  Zn    0.16667   0.11563   0.83333   0.00000  Uiso   1.00
C893   C     0.04232   0.08750   0.86712   0.00000  Uiso   1.00
N894   N     0.05859   0.05606   0.88484   0.00000  Uiso   1.00
C895   C     0.28952   0.24526   0.79414   0.00000  Uiso   1.00
N896   N     0.27259   0.27649   0.77685   0.00000  Uiso   1.00
C897   C     0.29540   0.08076   0.82763   0.00000  Uiso   1.00
N898   N     0.28156   0.04547   0.82277   0.00000  Uiso   1.00
C899   C     0.03767   0.25233   0.82823   0.00000  Uiso   1.00
N900   N     0.05148   0.28783   0.83026   0.00000  Uiso   1.00
C901   C     0.20523   0.04579   0.91538   0.00000  Uiso   1.00
H902   H     0.19653   0.03674   0.95299   0.00000  Uiso   1.00
O903   O     0.23277   0.07242   0.91024   0.00000  Uiso   1.00
C904   C     0.12531   0.28601   0.75404   0.00000  Uiso   1.00
H905   H     0.10753   0.25672   0.76190   0.00000  Uiso   1.00
O906   O     0.12740   0.29842   0.71054   0.00000  Uiso   1.00
C907   C     0.12301   0.04990   0.75662   0.00000  Uiso   1.00
H908   H     0.13681   0.05723   0.72107   0.00000  Uiso   1.00
O909   O     0.08720   0.06094   0.76321   0.00000  Uiso   1.00
C910   C     0.20833   0.28394   0.91207   0.00000  Uiso   1.00
H911   H     0.19570   0.28302   0.94923   0.00000  Uiso   1.00
O912   O     0.24192   0.26644   0.90504   0.00000  Uiso   1.00
C913   C     0.42005   0.16715   0.83608   0.00000  Uiso   1.00
C914   C     0.57972   0.16618   0.82919   0.00000  Uiso   1.00
C915   C     0.49986   0.16672   0.73964   0.00000  Uiso   1.00
C916   C     0.50012   0.16661   0.92703   0.00000  Uiso   1.00
C917   C     0.49994   0.16675   0.68849   0.00000  Uiso   1.00
C918   C     0.50004   0.16659   0.97818   0.00000  Uiso   1.00
C919   C     0.35503   0.12708   0.84493   0.00000  Uiso   1.00
C920   C     0.64426   0.20591   0.81580   0.00000  Uiso   1.00
C921   C     0.64667   0.12493   0.83324   0.00000  Uiso   1.00
C922   C     0.35288   0.20806   0.82622   0.00000  Uiso   1.00
C923   C     0.62398   0.16520   0.82389   0.00000  Uiso   1.00
C924   C     0.37547   0.16797   0.83787   0.00000  Uiso   1.00
C925   C     0.51904   0.02321   0.87177   0.00000  Uiso   1.00
C926   C     0.48045   0.30996   0.79518   0.00000  Uiso   1.00
C927   C     0.48017   0.02465   0.79559   0.00000  Uiso   1.00
C928   C     0.51936   0.30872   0.87137   0.00000  Uiso   1.00
N929   N     0.50000   0.28573   0.83333   0.00000  Uiso   1.00
N930   N     0.50000   0.04760   0.83333   0.00000  Uiso   1.00
O931   O     0.43892   0.20487   0.83333   0.00000  Uiso   1.00
O932   O     0.56108   0.12846   0.83334   0.00000  Uiso   1.00
O933   O     0.56108   0.20487   0.83334   0.00000  Uiso   1.00
O934   O     0.43892   0.12846   0.83333   0.00000  Uiso   1.00
O935   O     0.50000   0.20488   0.76178   0.00000  Uiso   1.00
O936   O     0.50000   0.12845   0.90489   0.00000  Uiso   1.00
O937   O     0.50000   0.20488   0.90489   0.00000  Uiso   1.00
O938   O     0.50000   0.12845   0.76178   0.00000  Uiso   1.00
Zn939  Zn    0.50000   0.21771   0.83333   0.00000  Uiso   1.00
Zn940  Zn    0.50000   0.11563   0.83333   0.00000  Uiso   1.00
C941   C     0.37565   0.08750   0.86712   0.00000  Uiso   1.00
N942   N     0.39192   0.05606   0.88484   0.00000  Uiso   1.00
C943   C     0.62285   0.24526   0.79414   0.00000  Uiso   1.00
N944   N     0.60592   0.27649   0.77685   0.00000  Uiso   1.00
C945   C     0.62874   0.08076   0.82763   0.00000  Uiso   1.00
N946   N     0.61489   0.04547   0.82277   0.00000  Uiso   1.00
C947   C     0.37101   0.25233   0.82823   0.00000  Uiso   1.00
N948   N     0.38482   0.28783   0.83026   0.00000  Uiso   1.00
C949   C     0.53856   0.04579   0.91538   0.00000  Uiso   1.00
H950   H     0.52987   0.03674   0.95299   0.00000  Uiso   1.00
O951   O     0.56610   0.07242   0.91024   0.00000  Uiso   1.00
C952   C     0.45864   0.28601   0.75404   0.00000  Uiso   1.00
H953   H     0.44086   0.25672   0.76190   0.00000  Uiso   1.00
O954   O     0.46074   0.29842   0.71054   0.00000  Uiso   1.00
C955   C     0.45634   0.04990   0.75662   0.00000  Uiso   1.00
H956   H     0.47014   0.05723   0.72107   0.00000  Uiso   1.00
O957   O     0.42054   0.06094   0.76321   0.00000  Uiso   1.00
C958   C     0.54166   0.28394   0.91207   0.00000  Uiso   1.00
H959   H     0.52903   0.28302   0.94923   0.00000  Uiso   1.00
O960   O     0.57526   0.26644   0.90504   0.00000  Uiso   1.00
C961   C     0.75338   0.16715   0.83608   0.00000  Uiso   1.00
C962   C     0.91305   0.16618   0.82919   0.00000  Uiso   1.00
C963   C     0.83319   0.16672   0.73964   0.00000  Uiso   1.00
C964   C     0.83345   0.16661   0.92703   0.00000  Uiso   1.00
C965   C     0.83327   0.16675   0.68849   0.00000  Uiso   1.00
C966   C     0.83337   0.16659   0.97818   0.00000  Uiso   1.00
C967   C     0.68836   0.12708   0.84493   0.00000  Uiso   1.00
C968   C     0.97759   0.20591   0.81580   0.00000  Uiso   1.00
C969   C     0.98000   0.12493   0.83324   0.00000  Uiso   1.00
C970   C     0.68621   0.20806   0.82622   0.00000  Uiso   1.00
C971   C     0.95731   0.16520   0.82389   0.00000  Uiso   1.00
C972   C     0.70881   0.16797   0.83787   0.00000  Uiso   1.00
C973   C     0.85237   0.02321   0.87177   0.00000  Uiso   1.00
C974   C     0.81379   0.30996   0.79518   0.00000  Uiso   1.00
C975   C     0.81350   0.02465   0.79559   0.00000  Uiso   1.00
C976   C     0.85270   0.30872   0.87137   0.00000  Uiso   1.00
N977   N     0.83333   0.28573   0.83333   0.00000  Uiso   1.00
N978   N     0.83333   0.04760   0.83333   0.00000  Uiso   1.00
O979   O     0.77226   0.20487   0.83333   0.00000  Uiso   1.00
O980   O     0.89441   0.12846   0.83334   0.00000  Uiso   1.00
O981   O     0.89441   0.20487   0.83334   0.00000  Uiso   1.00
O982   O     0.77226   0.12846   0.83333   0.00000  Uiso   1.00
O983   O     0.83334   0.20488   0.76178   0.00000  Uiso   1.00
O984   O     0.83333   0.12845   0.90489   0.00000  Uiso   1.00
O985   O     0.83333   0.20488   0.90489   0.00000  Uiso   1.00
O986   O     0.83334   0.12845   0.76178   0.00000  Uiso   1.00
Zn987  Zn    0.83333   0.21771   0.83333   0.00000  Uiso   1.00
Zn988  Zn    0.83333   0.11563   0.83333   0.00000  Uiso   1.00
C989   C     0.70899   0.08750   0.86712   0.00000  Uiso   1.00
N990   N     0.72526   0.05606   0.88484   0.00000  Uiso   1.00
C991   C     0.95619   0.24526   0.79414   0.00000  Uiso   1.00
N992   N     0.93926   0.27649   0.77685   0.00000  Uiso   1.00
C993   C     0.96207   0.08076   0.82763   0.00000  Uiso   1.00
N994   N     0.94822   0.04547   0.82277   0.00000  Uiso   1.00
C995   C     0.70434   0.25233   0.82823   0.00000  Uiso   1.00
N996   N     0.71815   0.28783   0.83026   0.00000  Uiso   1.00
C997   C     0.87189   0.04579   0.91538   0.00000  Uiso   1.00
H998   H     0.86320   0.03674   0.95299   0.00000  Uiso   1.00
O999   O     0.89943   0.07242   0.91024   0.00000  Uiso   1.00
C1000  C     0.79198   0.28601   0.75404   0.00000  Uiso   1.00
H1001  H     0.77419   0.25672   0.76190   0.00000  Uiso   1.00
O1002  O     0.79407   0.29842   0.71054   0.00000  Uiso   1.00
C1003  C     0.78968   0.04990   0.75662   0.00000  Uiso   1.00
H1004  H     0.80347   0.05723   0.72107   0.00000  Uiso   1.00
O1005  O     0.75387   0.06094   0.76321   0.00000  Uiso   1.00
C1006  C     0.87500   0.28394   0.91207   0.00000  Uiso   1.00
H1007  H     0.86237   0.28302   0.94923   0.00000  Uiso   1.00
O1008  O     0.90859   0.26644   0.90504   0.00000  Uiso   1.00
C1009  C     0.08672   0.50048   0.83608   0.00000  Uiso   1.00
C1010  C     0.24638   0.49951   0.82919   0.00000  Uiso   1.00
C1011  C     0.16653   0.50006   0.73964   0.00000  Uiso   1.00
C1012  C     0.16678   0.49995   0.92703   0.00000  Uiso   1.00
C1013  C     0.16661   0.50008   0.68849   0.00000  Uiso   1.00
C1014  C     0.16670   0.49993   0.97818   0.00000  Uiso   1.00
C1015  C     0.02169   0.46041   0.84493   0.00000  Uiso   1.00
C1016  C     0.31092   0.53924   0.81580   0.00000  Uiso   1.00
C1017  C     0.31334   0.45827   0.83324   0.00000  Uiso   1.00
C1018  C     0.01955   0.54139   0.82622   0.00000  Uiso   1.00
C1019  C     0.29064   0.49854   0.82389   0.00000  Uiso   1.00
C1020  C     0.04214   0.50131   0.83787   0.00000  Uiso   1.00
C1021  C     0.18571   0.35654   0.87177   0.00000  Uiso   1.00
C1022  C     0.14712   0.64329   0.79518   0.00000  Uiso   1.00
C1023  C     0.14684   0.35798   0.79559   0.00000  Uiso   1.00
C1024  C     0.18603   0.64206   0.87137   0.00000  Uiso   1.00
N1025  N     0.16667   0.61907   0.83333   0.00000  Uiso   1.00
N1026  N     0.16667   0.38093   0.83333   0.00000  Uiso   1.00
O1027  O     0.10559   0.53821   0.83333   0.00000  Uiso   1.00
O1028  O     0.22774   0.46179   0.83334   0.00000  Uiso   1.00
O1029  O     0.22774   0.53821   0.83334   0.00000  Uiso   1.00
O1030  O     0.10559   0.46179   0.83333   0.00000  Uiso   1.00
O1031  O     0.16667   0.53821   0.76178   0.00000  Uiso   1.00
O1032  O     0.16666   0.46179   0.90489   0.00000  Uiso   1.00
O1033  O     0.16666   0.53821   0.90489   0.00000  Uiso   1.00
O1034  O     0.16667   0.46179   0.76178   0.00000  Uiso   1.00
Zn1035 Zn    0.16667   0.55104   0.83333   0.00000  Uiso   1.00
Zn1036 Zn    0.16667   0.44896   0.83333   0.00000  Uiso   1.00
C1037  C     0.04232   0.42083   0.86712   0.00000  Uiso   1.00
N1038  N     0.05859   0.38939   0.88484   0.00000  Uiso   1.00
C1039  C     0.28952   0.57859   0.79414   0.00000  Uiso   1.00
N1040  N     0.27259   0.60982   0.77685   0.00000  Uiso   1.00
C1041  C     0.29540   0.41409   0.82763   0.00000  Uiso   1.00
N1042  N     0.28156   0.37880   0.82277   0.00000  Uiso   1.00
C1043  C     0.03767   0.58567   0.82823   0.00000  Uiso   1.00
N1044  N     0.05148   0.62116   0.83026   0.00000  Uiso   1.00
C1045  C     0.20523   0.37913   0.91538   0.00000  Uiso   1.00
H1046  H     0.19653   0.37007   0.95299   0.00000  Uiso   1.00
O1047  O     0.23277   0.40575   0.91024   0.00000  Uiso   1.00
C1048  C     0.12531   0.61934   0.75404   0.00000  Uiso   1.00
H1049  H     0.10753   0.59006   0.76190   0.00000  Uiso   1.00
O1050  O     0.12740   0.63175   0.71054   0.00000  Uiso   1.00
C1051  C     0.12301   0.38324   0.75662   0.00000  Uiso   1.00
H1052  H     0.13681   0.39057   0.72107   0.00000  Uiso   1.00
O1053  O     0.08720   0.39428   0.76321   0.00000  Uiso   1.00
C1054  C     0.20833   0.61728   0.91207   0.00000  Uiso   1.00
H1055  H     0.19570   0.61635   0.94923   0.00000  Uiso   1.00
O1056  O     0.24192   0.59978   0.90504   0.00000  Uiso   1.00
C1057  C     0.42005   0.50048   0.83608   0.00000  Uiso   1.00
C1058  C     0.57972   0.49951   0.82919   0.00000  Uiso   1.00
C1059  C     0.49986   0.50006   0.73964   0.00000  Uiso   1.00
C1060  C     0.50012   0.49995   0.92703   0.00000  Uiso   1.00
C1061  C     0.49994   0.50008   0.68849   0.00000  Uiso   1.00
C1062  C     0.50004   0.49993   0.97818   0.00000  Uiso   1.00
C1063  C     0.35503   0.46041   0.84493   0.00000  Uiso   1.00
C1064  C     0.64426   0.53924   0.81580   0.00000  Uiso   1.00
C1065  C     0.64667   0.45827   0.83324   0.00000  Uiso   1.00
C1066  C     0.35288   0.54139   0.82622   0.00000  Uiso   1.00
C1067  C     0.62398   0.49854   0.82389   0.00000  Uiso   1.00
C1068  C     0.37547   0.50131   0.83787   0.00000  Uiso   1.00
C1069  C     0.51904   0.35654   0.87177   0.00000  Uiso   1.00
C1070  C     0.48045   0.64329   0.79518   0.00000  Uiso   1.00
C1071  C     0.48017   0.35798   0.79559   0.00000  Uiso   1.00
C1072  C     0.51936   0.64206   0.87137   0.00000  Uiso   1.00
N1073  N     0.50000   0.61907   0.83333   0.00000  Uiso   1.00
N1074  N     0.50000   0.38093   0.83333   0.00000  Uiso   1.00
O1075  O     0.43892   0.53821   0.83333   0.00000  Uiso   1.00
O1076  O     0.56108   0.46179   0.83334   0.00000  Uiso   1.00
O1077  O     0.56108   0.53821   0.83334   0.00000  Uiso   1.00
O1078  O     0.43892   0.46179   0.83333   0.00000  Uiso   1.00
O1079  O     0.50000   0.53821   0.76178   0.00000  Uiso   1.00
O1080  O     0.50000   0.46179   0.90489   0.00000  Uiso   1.00
O1081  O     0.50000   0.53821   0.90489   0.00000  Uiso   1.00
O1082  O     0.50000   0.46179   0.76178   0.00000  Uiso   1.00
Zn1083 Zn    0.50000   0.55104   0.83333   0.00000  Uiso   1.00
Zn1084 Zn    0.50000   0.44896   0.83333   0.00000  Uiso   1.00
C1085  C     0.37565   0.42083   0.86712   0.00000  Uiso   1.00
N1086  N     0.39192   0.38939   0.88484   0.00000  Uiso   1.00
C1087  C     0.62285   0.57859   0.79414   0.00000  Uiso   1.00
N1088  N     0.60592   0.60982   0.77685   0.00000  Uiso   1.00
C1089  C     0.62874   0.41409   0.82763   0.00000  Uiso   1.00
N1090  N     0.61489   0.37880   0.82277   0.00000  Uiso   1.00
C1091  C     0.37101   0.58567   0.82823   0.00000  Uiso   1.00
N1092  N     0.38482   0.62116   0.83026   0.00000  Uiso   1.00
C1093  C     0.53856   0.37913   0.91538   0.00000  Uiso   1.00
H1094  H     0.52987   0.37007   0.95299   0.00000  Uiso   1.00
O1095  O     0.56610   0.40575   0.91024   0.00000  Uiso   1.00
C1096  C     0.45864   0.61934   0.75404   0.00000  Uiso   1.00
H1097  H     0.44086   0.59006   0.76190   0.00000  Uiso   1.00
O1098  O     0.46074   0.63175   0.71054   0.00000  Uiso   1.00
C1099  C     0.45634   0.38324   0.75662   0.00000  Uiso   1.00
H1100  H     0.47014   0.39057   0.72107   0.00000  Uiso   1.00
O1101  O     0.42054   0.39428   0.76321   0.00000  Uiso   1.00
C1102  C     0.54166   0.61728   0.91207   0.00000  Uiso   1.00
H1103  H     0.52903   0.61635   0.94923   0.00000  Uiso   1.00
O1104  O     0.57526   0.59978   0.90504   0.00000  Uiso   1.00
C1105  C     0.75338   0.50048   0.83608   0.00000  Uiso   1.00
C1106  C     0.91305   0.49951   0.82919   0.00000  Uiso   1.00
C1107  C     0.83319   0.50006   0.73964   0.00000  Uiso   1.00
C1108  C     0.83345   0.49995   0.92703   0.00000  Uiso   1.00
C1109  C     0.83327   0.50008   0.68849   0.00000  Uiso   1.00
C1110  C     0.83337   0.49993   0.97818   0.00000  Uiso   1.00
C1111  C     0.68836   0.46041   0.84493   0.00000  Uiso   1.00
C1112  C     0.97759   0.53924   0.81580   0.00000  Uiso   1.00
C1113  C     0.98000   0.45827   0.83324   0.00000  Uiso   1.00
C1114  C     0.68621   0.54139   0.82622   0.00000  Uiso   1.00
C1115  C     0.95731   0.49854   0.82389   0.00000  Uiso   1.00
C1116  C     0.70881   0.50131   0.83787   0.00000  Uiso   1.00
C1117  C     0.85237   0.35654   0.87177   0.00000  Uiso   1.00
C1118  C     0.81379   0.64329   0.79518   0.00000  Uiso   1.00
C1119  C     0.81350   0.35798   0.79559   0.00000  Uiso   1.00
C1120  C     0.85270   0.64206   0.87137   0.00000  Uiso   1.00
N1121  N     0.83333   0.61907   0.83333   0.00000  Uiso   1.00
N1122  N     0.83333   0.38093   0.83333   0.00000  Uiso   1.00
O1123  O     0.77226   0.53821   0.83333   0.00000  Uiso   1.00
O1124  O     0.89441   0.46179   0.83334   0.00000  Uiso   1.00
O1125  O     0.89441   0.53821   0.83334   0.00000  Uiso   1.00
O1126  O     0.77226   0.46179   0.83333   0.00000  Uiso   1.00
O1127  O     0.83334   0.53821   0.76178   0.00000  Uiso   1.00
O1128  O     0.83333   0.46179   0.90489   0.00000  Uiso   1.00
O1129  O     0.83333   0.53821   0.90489   0.00000  Uiso   1.00
O1130  O     0.83334   0.46179   0.76178   0.00000  Uiso   1.00
Zn1131 Zn    0.83333   0.55104   0.83333   0.00000  Uiso   1.00
Zn1132 Zn    0.83333   0.44896   0.83333   0.00000  Uiso   1.00
C1133  C     0.70899   0.42083   0.86712   0.00000  Uiso   1.00
N1134  N     0.72526   0.38939   0.88484   0.00000  Uiso   1.00
C1135  C     0.95619   0.57859   0.79414   0.00000  Uiso   1.00
N1136  N     0.93926   0.60982   0.77685   0.00000  Uiso   1.00
C1137  C     0.96207   0.41409   0.82763   0.00000  Uiso   1.00
N1138  N     0.94822   0.37880   0.82277   0.00000  Uiso   1.00
C1139  C     0.70434   0.58567   0.82823   0.00000  Uiso   1.00
N1140  N     0.71815   0.62116   0.83026   0.00000  Uiso   1.00
C1141  C     0.87189   0.37913   0.91538   0.00000  Uiso   1.00
H1142  H     0.86320   0.37007   0.95299   0.00000  Uiso   1.00
O1143  O     0.89943   0.40575   0.91024   0.00000  Uiso   1.00
C1144  C     0.79198   0.61934   0.75404   0.00000  Uiso   1.00
H1145  H     0.77419   0.59006   0.76190   0.00000  Uiso   1.00
O1146  O     0.79407   0.63175   0.71054   0.00000  Uiso   1.00
C1147  C     0.78968   0.38324   0.75662   0.00000  Uiso   1.00
H1148  H     0.80347   0.39057   0.72107   0.00000  Uiso   1.00
O1149  O     0.75387   0.39428   0.76321   0.00000  Uiso   1.00
C1150  C     0.87500   0.61728   0.91207   0.00000  Uiso   1.00
H1151  H     0.86237   0.61635   0.94923   0.00000  Uiso   1.00
O1152  O     0.90859   0.59978   0.90504   0.00000  Uiso   1.00
C1153  C     0.08672   0.83382   0.83608   0.00000  Uiso   1.00
C1154  C     0.24638   0.83284   0.82919   0.00000  Uiso   1.00
C1155  C     0.16653   0.83339   0.73964   0.00000  Uiso   1.00
C1156  C     0.16678   0.83328   0.92703   0.00000  Uiso   1.00
C1157  C     0.16661   0.83341   0.68849   0.00000  Uiso   1.00
C1158  C     0.16670   0.83326   0.97818   0.00000  Uiso   1.00
C1159  C     0.02169   0.79375   0.84493   0.00000  Uiso   1.00
C1160  C     0.31092   0.87257   0.81580   0.00000  Uiso   1.00
C1161  C     0.31334   0.79160   0.83324   0.00000  Uiso   1.00
C1162  C     0.01955   0.87472   0.82622   0.00000  Uiso   1.00
C1163  C     0.29064   0.83187   0.82389   0.00000  Uiso   1.00
C1164  C     0.04214   0.83464   0.83787   0.00000  Uiso   1.00
C1165  C     0.18571   0.68988   0.87177   0.00000  Uiso   1.00
C1166  C     0.14712   0.97663   0.79518   0.00000  Uiso   1.00
C1167  C     0.14684   0.69132   0.79559   0.00000  Uiso   1.00
C1168  C     0.18603   0.97539   0.87137   0.00000  Uiso   1.00
N1169  N     0.16667   0.95240   0.83333   0.00000  Uiso   1.00
N1170  N     0.16667   0.71427   0.83333   0.00000  Uiso   1.00
O1171  O     0.10559   0.87154   0.83333   0.00000  Uiso   1.00
O1172  O     0.22774   0.79513   0.83334   0.00000  Uiso   1.00
O1173  O     0.22774   0.87154   0.83334   0.00000  Uiso   1.00
O1174  O     0.10559   0.79513   0.83333   0.00000  Uiso   1.00
O1175  O     0.16667   0.87155   0.76178   0.00000  Uiso   1.00
O1176  O     0.16666   0.79512   0.90489   0.00000  Uiso   1.00
O1177  O     0.16666   0.87155   0.90489   0.00000  Uiso   1.00
O1178  O     0.16667   0.79512   0.76178   0.00000  Uiso   1.00
Zn1179 Zn    0.16667   0.88437   0.83333   0.00000  Uiso   1.00
Zn1180 Zn    0.16667   0.78229   0.83333   0.00000  Uiso   1.00
C1181  C     0.04232   0.75417   0.86712   0.00000  Uiso   1.00
N1182  N     0.05859   0.72272   0.88484   0.00000  Uiso   1.00
C1183  C     0.28952   0.91192   0.79414   0.00000  Uiso   1.00
N1184  N     0.27259   0.94315   0.77685   0.00000  Uiso   1.00
C1185  C     0.29540   0.74742   0.82763   0.00000  Uiso   1.00
N1186  N     0.28156   0.71213   0.82277   0.00000  Uiso   1.00
C1187  C     0.03767   0.91900   0.82823   0.00000  Uiso   1.00
N1188  N     0.05148   0.95449   0.83026   0.00000  Uiso   1.00
C1189  C     0.20523   0.71246   0.91538   0.00000  Uiso   1.00
H1190  H     0.19653   0.70341   0.95299   0.00000  Uiso   1.00
O1191  O     0.23277   0.73908   0.91024   0.00000  Uiso   1.00
C1192  C     0.12531   0.95267   0.75404   0.00000  Uiso   1.00
H1193  H     0.10753   0.92339   0.76190   0.00000  Uiso   1.00
O1194  O     0.12740   0.96509   0.71054   0.00000  Uiso   1.00
C1195  C     0.12301   0.71657   0.75662   0.00000  Uiso   1.00
H1196  H     0.13681   0.72390   0.72107   0.00000  Uiso   1.00
O1197  O     0.08720   0.72761   0.76321   0.00000  Uiso   1.00
C1198  C     0.20833   0.95061   0.91207   0.00000  Uiso   1.00
H1199  H     0.19570   0.94969   0.94923   0.00000  Uiso   1.00
O1200  O     0.24192   0.93311   0.90504   0.00000  Uiso   1.00
C1201  C     0.42005   0.83382   0.83608   0.00000  Uiso   1.00
C1202  C     0.57972   0.83284   0.82919   0.00000  Uiso   1.00
C1203  C     0.49986   0.83339   0.73964   0.00000  Uiso   1.00
C1204  C     0.50012   0.83328   0.92703   0.00000  Uiso   1.00
C1205  C     0.49994   0.83341   0.68849   0.00000  Uiso   1.00
C1206  C     0.50004   0.83326   0.97818   0.00000  Uiso   1.00
C1207  C     0.35503   0.79375   0.84493   0.00000  Uiso   1.00
C1208  C     0.64426   0.87257   0.81580   0.00000  Uiso   1.00
C1209  C     0.64667   0.79160   0.83324   0.00000  Uiso   1.00
C1210  C     0.35288   0.87472   0.82622   0.00000  Uiso   1.00
C1211  C     0.62398   0.83187   0.82389   0.00000  Uiso   1.00
C1212  C     0.37547   0.83464   0.83787   0.00000  Uiso   1.00
C1213  C     0.51904   0.68988   0.87177   0.00000  Uiso   1.00
C1214  C     0.48045   0.97663   0.79518   0.00000  Uiso   1.00
C1215  C     0.48017   0.69132   0.79559   0.00000  Uiso   1.00
C1216  C     0.51936   0.97539   0.87137   0.00000  Uiso   1.00
N1217  N     0.50000   0.95240   0.83333   0.00000  Uiso   1.00
N1218  N     0.50000   0.71427   0.83333   0.00000  Uiso   1.00
O1219  O     0.43892   0.87154   0.83333   0.00000  Uiso   1.00
O1220  O     0.56108   0.79513   0.83334   0.00000  Uiso   1.00
O1221  O     0.56108   0.87154   0.83334   0.00000  Uiso   1.00
O1222  O     0.43892   0.79513   0.83333   0.00000  Uiso   1.00
O1223  O     0.50000   0.87155   0.76178   0.00000  Uiso   1.00
O1224  O     0.50000   0.79512   0.90489   0.00000  Uiso   1.00
O1225  O     0.50000   0.87155   0.90489   0.00000  Uiso   1.00
O1226  O     0.50000   0.79512   0.76178   0.00000  Uiso   1.00
Zn1227 Zn    0.50000   0.88437   0.83333   0.00000  Uiso   1.00
Zn1228 Zn    0.50000   0.78229   0.83333   0.00000  Uiso   1.00
C1229  C     0.37565   0.75417   0.86712   0.00000  Uiso   1.00
N1230  N     0.39192   0.72272   0.88484   0.00000  Uiso   1.00
C1231  C     0.62285   0.91192   0.79414   0.00000  Uiso   1.00
N1232  N     0.60592   0.94315   0.77685   0.00000  Uiso   1.00
C1233  C     0.62874   0.74742   0.82763   0.00000  Uiso   1.00
N1234  N     0.61489   0.71213   0.82277   0.00000  Uiso   1.00
C1235  C     0.37101   0.91900   0.82823   0.00000  Uiso   1.00
N1236  N     0.38482   0.95449   0.83026   0.00000  Uiso   1.00
C1237  C     0.53856   0.71246   0.91538   0.00000  Uiso   1.00
H1238  H     0.52987   0.70341   0.95299   0.00000  Uiso   1.00
O1239  O     0.56610   0.73908   0.91024   0.00000  Uiso   1.00
C1240  C     0.45864   0.95267   0.75404   0.00000  Uiso   1.00
H1241  H     0.44086   0.92339   0.76190   0.00000  Uiso   1.00
O1242  O     0.46074   0.96509   0.71054   0.00000  Uiso   1.00
C1243  C     0.45634   0.71657   0.75662   0.00000  Uiso   1.00
H1244  H     0.47014   0.72390   0.72107   0.00000  Uiso   1.00
O1245  O     0.42054   0.72761   0.76321   0.00000  Uiso   1.00
C1246  C     0.54166   0.95061   0.91207   0.00000  Uiso   1.00
H1247  H     0.52903   0.94969   0.94923   0.00000  Uiso   1.00
O1248  O     0.57526   0.93311   0.90504   0.00000  Uiso   1.00
C1249  C     0.75338   0.83382   0.83608   0.00000  Uiso   1.00
C1250  C     0.91305   0.83284   0.82919   0.00000  Uiso   1.00
C1251  C     0.83319   0.83339   0.73964   0.00000  Uiso   1.00
C1252  C     0.83345   0.83328   0.92703   0.00000  Uiso   1.00
C1253  C     0.83327   0.83341   0.68849   0.00000  Uiso   1.00
C1254  C     0.83337   0.83326   0.97818   0.00000  Uiso   1.00
C1255  C     0.68836   0.79375   0.84493   0.00000  Uiso   1.00
C1256  C     0.97759   0.87257   0.81580   0.00000  Uiso   1.00
C1257  C     0.98000   0.79160   0.83324   0.00000  Uiso   1.00
C1258  C     0.68621   0.87472   0.82622   0.00000  Uiso   1.00
C1259  C     0.95731   0.83187   0.82389   0.00000  Uiso   1.00
C1260  C     0.70881   0.83464   0.83787   0.00000  Uiso   1.00
C1261  C     0.85237   0.68988   0.87177   0.00000  Uiso   1.00
C1262  C     0.81379   0.97663   0.79518   0.00000  Uiso   1.00
C1263  C     0.81350   0.69132   0.79559   0.00000  Uiso   1.00
C1264  C     0.85270   0.97539   0.87137   0.00000  Uiso   1.00
N1265  N     0.83333   0.95240   0.83333   0.00000  Uiso   1.00
N1266  N     0.83333   0.71427   0.83333   0.00000  Uiso   1.00
O1267  O     0.77226   0.87154   0.83333   0.00000  Uiso   1.00
O1268  O     0.89441   0.79513   0.83334   0.00000  Uiso   1.00
O1269  O     0.89441   0.87154   0.83334   0.00000  Uiso   1.00
O1270  O     0.77226   0.79513   0.83333   0.00000  Uiso   1.00
O1271  O     0.83334   0.87155   0.76178   0.00000  Uiso   1.00
O1272  O     0.83333   0.79512   0.90489   0.00000  Uiso   1.00
O1273  O     0.83333   0.87155   0.90489   0.00000  Uiso   1.00
O1274  O     0.83334   0.79512   0.76178   0.00000  Uiso   1.00
Zn1275 Zn    0.83333   0.88437   0.83333   0.00000  Uiso   1.00
Zn1276 Zn    0.83333   0.78229   0.83333   0.00000  Uiso   1.00
C1277  C     0.70899   0.75417   0.86712   0.00000  Uiso   1.00
N1278  N     0.72526   0.72272   0.88484   0.00000  Uiso   1.00
C1279  C     0.95619   0.91192   0.79414   0.00000  Uiso   1.00
N1280  N     0.93926   0.94315   0.77685   0.00000  Uiso   1.00
C1281  C     0.96207   0.74742   0.82763   0.00000  Uiso   1.00
N1282  N     0.94822   0.71213   0.82277   0.00000  Uiso   1.00
C1283  C     0.70434   0.91900   0.82823   0.00000  Uiso   1.00
N1284  N     0.71815   0.95449   0.83026   0.00000  Uiso   1.00
C1285  C     0.87189   0.71246   0.91538   0.00000  Uiso   1.00
H1286  H     0.86320   0.70341   0.95299   0.00000  Uiso   1.00
O1287  O     0.89943   0.73908   0.91024   0.00000  Uiso   1.00
C1288  C     0.79198   0.95267   0.75404   0.00000  Uiso   1.00
H1289  H     0.77419   0.92339   0.76190   0.00000  Uiso   1.00
O1290  O     0.79407   0.96509   0.71054   0.00000  Uiso   1.00
C1291  C     0.78968   0.71657   0.75662   0.00000  Uiso   1.00
H1292  H     0.80347   0.72390   0.72107   0.00000  Uiso   1.00
O1293  O     0.75387   0.72761   0.76321   0.00000  Uiso   1.00
C1294  C     0.87500   0.95061   0.91207   0.00000  Uiso   1.00
H1295  H     0.86237   0.94969   0.94923   0.00000  Uiso   1.00
O1296  O     0.90859   0.93311   0.90504   0.00000  Uiso   1.00
loop_
_geom_bond_atom_site_label_1
_geom_bond_atom_site_label_2
_geom_bond_distance
_geom_bond_site_symmetry_2
_ccdc_geom_bond_type
C1     O22     1.298   .     A
C1     C12     1.449   .     S
C1     O19     1.294   .     A
C2     O21     1.298   .     A
C2     C11     1.448   .     S
C2     O20     1.293   .     A
C3     O23     1.283   .     A
C3     O26     1.282   .     A
C3     C5      1.365   .     S
C4     O25     1.282   .     A
C4     O24     1.283   .     A
C4     C6      1.365   .     S
C5     C870    1.164   1_554 S
C6     C437    1.164   .     S
C7     C29     1.458   .     S
C7     C12     1.414   .     A
C7     C105    1.382   1_455 S
C8     C11     1.410   .     A
C8     C31     1.458   .     S
C8     C58     1.384   .     S
C9     C33     1.456   .     S
C9     C11     1.412   .     A
C9     C55     1.382   .     S
C10    C35     1.455   .     S
C10    C12     1.417   .     A
C10    C104    1.384   1_455 S
C13    N18     1.377   .     A
C13    C37     1.478   .     S
C13    C304    1.424   1_545 S
C14    N17     1.376   .     A
C14    C40     1.480   .     S
C14    C159    1.430   .     S
C15    N18     1.370   .     A
C15    C43     1.471   .     S
C15    C302    1.430   1_545 S
C16    C46     1.473   .     S
C16    N17     1.370   .     A
C16    C157    1.424   .     S
N17    Zn27    2.026   .     S
N18    Zn28    2.026   .     S
O19    Zn27    2.026   .     S
O20    Zn28    2.026   .     S
O21    Zn27    2.011   .     S
O22    Zn28    2.011   .     S
O23    Zn27    1.948   .     S
O24    Zn28    1.948   .     S
O25    Zn27    1.945   .     S
O26    Zn28    1.945   .     S
C29    N30     1.158   .     T
C31    N32     1.158   .     T
C33    N34     1.158   .     T
C35    N36     1.157   .     T
C37    O39     1.217   .     D
C37    H38     1.085   .     S
C40    O42     1.221   .     D
C40    H41     1.079   .     S
C43    H44     1.085   .     S
C43    O45     1.220   .     D
C46    O48     1.219   .     D
C46    H47     1.085   .     S
C49    O70     1.298   .     A
C49    C60     1.449   .     S
C49    O67     1.294   .     A
C50    O69     1.298   .     A
C50    C59     1.448   .     S
C50    O68     1.293   .     A
C51    O71     1.283   .     A
C51    O74     1.282   .     A
C51    C53     1.365   .     S
C52    O73     1.282   .     A
C52    O72     1.283   .     A
C52    C54     1.365   .     S
C53    C918    1.164   1_554 S
C54    C485    1.164   .     S
C55    C77     1.458   .     S
C55    C60     1.414   .     A
C56    C59     1.410   .     A
C56    C79     1.458   .     S
C56    C106    1.384   .     S
C57    C81     1.456   .     S
C57    C59     1.412   .     A
C57    C103    1.382   .     S
C58    C83     1.455   .     S
C58    C60     1.417   .     A
C61    N66     1.377   .     A
C61    C85     1.478   .     S
C61    C352    1.424   1_545 S
C62    N65     1.376   .     A
C62    C88     1.480   .     S
C62    C207    1.430   .     S
C63    N66     1.370   .     A
C63    C91     1.471   .     S
C63    C350    1.430   1_545 S
C64    C94     1.473   .     S
C64    N65     1.370   .     A
C64    C205    1.424   .     S
N65    Zn75    2.026   .     S
N66    Zn76    2.026   .     S
O67    Zn75    2.026   .     S
O68    Zn76    2.026   .     S
O69    Zn75    2.011   .     S
O70    Zn76    2.011   .     S
O71    Zn75    1.948   .     S
O72    Zn76    1.948   .     S
O73    Zn75    1.945   .     S
O74    Zn76    1.945   .     S
C77    N78     1.158   .     T
C79    N80     1.158   .     T
C81    N82     1.158   .     T
C83    N84     1.157   .     T
C85    O87     1.217   .     D
C85    H86     1.085   .     S
C88    O90     1.221   .     D
C88    H89     1.079   .     S
C91    H92     1.085   .     S
C91    O93     1.220   .     D
C94    O96     1.219   .     D
C94    H95     1.085   .     S
C97    O118    1.298   .     A
C97    C108    1.449   .     S
C97    O115    1.294   .     A
C98    O117    1.298   .     A
C98    C107    1.448   .     S
C98    O116    1.293   .     A
C99    O119    1.283   .     A
C99    O122    1.282   .     A
C99    C101    1.365   .     S
C100   O121    1.282   .     A
C100   O120    1.283   .     A
C100   C102    1.365   .     S
C101   C966    1.164   1_554 S
C102   C533    1.164   .     S
C103   C125    1.458   .     S
C103   C108    1.414   .     A
C104   C107    1.410   .     A
C104   C127    1.458   .     S
C104   C10     1.384   1_655 S
C105   C129    1.456   .     S
C105   C107    1.412   .     A
C105   C7      1.382   1_655 S
C106   C131    1.455   .     S
C106   C108    1.417   .     A
C109   N114    1.377   .     A
C109   C133    1.478   .     S
C109   C400    1.424   1_545 S
C110   N113    1.376   .     A
C110   C136    1.480   .     S
C110   C255    1.430   .     S
C111   N114    1.370   .     A
C111   C139    1.471   .     S
C111   C398    1.430   1_545 S
C112   C142    1.473   .     S
C112   N113    1.370   .     A
C112   C253    1.424   .     S
N113   Zn123   2.026   .     S
N114   Zn124   2.026   .     S
O115   Zn123   2.026   .     S
O116   Zn124   2.026   .     S
O117   Zn123   2.011   .     S
O118   Zn124   2.011   .     S
O119   Zn123   1.948   .     S
O120   Zn124   1.948   .     S
O121   Zn123   1.945   .     S
O122   Zn124   1.945   .     S
C125   N126    1.158   .     T
C127   N128    1.158   .     T
C129   N130    1.158   .     T
C131   N132    1.157   .     T
C133   O135    1.217   .     D
C133   H134    1.085   .     S
C136   O138    1.221   .     D
C136   H137    1.079   .     S
C139   H140    1.085   .     S
C139   O141    1.220   .     D
C142   O144    1.219   .     D
C142   H143    1.085   .     S
C145   O166    1.298   .     A
C145   C156    1.449   .     S
C145   O163    1.294   .     A
C146   O165    1.298   .     A
C146   C155    1.448   .     S
C146   O164    1.293   .     A
C147   O167    1.283   .     A
C147   O170    1.282   .     A
C147   C149    1.365   .     S
C148   O169    1.282   .     A
C148   O168    1.283   .     A
C148   C150    1.365   .     S
C149   C1014   1.164   1_554 S
C150   C581    1.164   .     S
C151   C173    1.458   .     S
C151   C156    1.414   .     A
C151   C249    1.382   1_455 S
C152   C155    1.410   .     A
C152   C175    1.458   .     S
C152   C202    1.384   .     S
C153   C177    1.456   .     S
C153   C155    1.412   .     A
C153   C199    1.382   .     S
C154   C179    1.455   .     S
C154   C156    1.417   .     A
C154   C248    1.384   1_455 S
C157   N162    1.377   .     A
C157   C181    1.478   .     S
C158   N161    1.376   .     A
C158   C184    1.480   .     S
C158   C303    1.430   .     S
C159   N162    1.370   .     A
C159   C187    1.471   .     S
C160   C190    1.473   .     S
C160   N161    1.370   .     A
C160   C301    1.424   .     S
N161   Zn171   2.026   .     S
N162   Zn172   2.026   .     S
O163   Zn171   2.026   .     S
O164   Zn172   2.026   .     S
O165   Zn171   2.011   .     S
O166   Zn172   2.011   .     S
O167   Zn171   1.948   .     S
O168   Zn172   1.948   .     S
O169   Zn171   1.945   .     S
O170   Zn172   1.945   .     S
C173   N174    1.158   .     T
C175   N176    1.158   .     T
C177   N178    1.158   .     T
C179   N180    1.157   .     T
C181   O183    1.217   .     D
C181   H182    1.085   .     S
C184   O186    1.221   .     D
C184   H185    1.079   .     S
C187   H188    1.085   .     S
C187   O189    1.220   .     D
C190   O192    1.219   .     D
C190   H191    1.085   .     S
C193   O214    1.298   .     A
C193   C204    1.449   .     S
C193   O211    1.294   .     A
C194   O213    1.298   .     A
C194   C203    1.448   .     S
C194   O212    1.293   .     A
C195   O215    1.283   .     A
C195   O218    1.282   .     A
C195   C197    1.365   .     S
C196   O217    1.282   .     A
C196   O216    1.283   .     A
C196   C198    1.365   .     S
C197   C1062   1.164   1_554 S
C198   C629    1.164   .     S
C199   C221    1.458   .     S
C199   C204    1.414   .     A
C200   C203    1.410   .     A
C200   C223    1.458   .     S
C200   C250    1.384   .     S
C201   C225    1.456   .     S
C201   C203    1.412   .     A
C201   C247    1.382   .     S
C202   C227    1.455   .     S
C202   C204    1.417   .     A
C205   N210    1.377   .     A
C205   C229    1.478   .     S
C206   N209    1.376   .     A
C206   C232    1.480   .     S
C206   C351    1.430   .     S
C207   N210    1.370   .     A
C207   C235    1.471   .     S
C208   C238    1.473   .     S
C208   N209    1.370   .     A
C208   C349    1.424   .     S
N209   Zn219   2.026   .     S
N210   Zn220   2.026   .     S
O211   Zn219   2.026   .     S
O212   Zn220   2.026   .     S
O213   Zn219   2.011   .     S
O214   Zn220   2.011   .     S
O215   Zn219   1.948   .     S
O216   Zn220   1.948   .     S
O217   Zn219   1.945   .     S
O218   Zn220   1.945   .     S
C221   N222    1.158   .     T
C223   N224    1.158   .     T
C225   N226    1.158   .     T
C227   N228    1.157   .     T
C229   O231    1.217   .     D
C229   H230    1.085   .     S
C232   O234    1.221   .     D
C232   H233    1.079   .     S
C235   H236    1.085   .     S
C235   O237    1.220   .     D
C238   O240    1.219   .     D
C238   H239    1.085   .     S
C241   O262    1.298   .     A
C241   C252    1.449   .     S
C241   O259    1.294   .     A
C242   O261    1.298   .     A
C242   C251    1.448   .     S
C242   O260    1.293   .     A
C243   O263    1.283   .     A
C243   O266    1.282   .     A
C243   C245    1.365   .     S
C244   O265    1.282   .     A
C244   O264    1.283   .     A
C244   C246    1.365   .     S
C245   C1110   1.164   1_554 S
C246   C677    1.164   .     S
C247   C269    1.458   .     S
C247   C252    1.414   .     A
C248   C251    1.410   .     A
C248   C271    1.458   .     S
C248   C154    1.384   1_655 S
C249   C273    1.456   .     S
C249   C251    1.412   .     A
C249   C151    1.382   1_655 S
C250   C275    1.455   .     S
C250   C252    1.417   .     A
C253   N258    1.377   .     A
C253   C277    1.478   .     S
C254   N257    1.376   .     A
C254   C280    1.480   .     S
C254   C399    1.430   .     S
C255   N258    1.370   .     A
C255   C283    1.471   .     S
C256   C286    1.473   .     S
C256   N257    1.370   .     A
C256   C397    1.424   .     S
N257   Zn267   2.026   .     S
N258   Zn268   2.026   .     S
O259   Zn267   2.026   .     S
O260   Zn268   2.026   .     S
O261   Zn267   2.011   .     S
O262   Zn268   2.011   .     S
O263   Zn267   1.948   .     S
O264   Zn268   1.948   .     S
O265   Zn267   1.945   .     S
O266   Zn268   1.945   .     S
C269   N270    1.158   .     T
C271   N272    1.158   .     T
C273   N274    1.158   .     T
C275   N276    1.157   .     T
C277   O279    1.217   .     D
C277   H278    1.085   .     S
C280   O282    1.221   .     D
C280   H281    1.079   .     S
C283   H284    1.085   .     S
C283   O285    1.220   .     D
C286   O288    1.219   .     D
C286   H287    1.085   .     S
C289   O310    1.298   .     A
C289   C300    1.449   .     S
C289   O307    1.294   .     A
C290   O309    1.298   .     A
C290   C299    1.448   .     S
C290   O308    1.293   .     A
C291   O311    1.283   .     A
C291   O314    1.282   .     A
C291   C293    1.365   .     S
C292   O313    1.282   .     A
C292   O312    1.283   .     A
C292   C294    1.365   .     S
C293   C1158   1.164   1_554 S
C294   C725    1.164   .     S
C295   C317    1.458   .     S
C295   C300    1.414   .     A
C295   C393    1.382   1_455 S
C296   C299    1.410   .     A
C296   C319    1.458   .     S
C296   C346    1.384   .     S
C297   C321    1.456   .     S
C297   C299    1.412   .     A
C297   C343    1.382   .     S
C298   C323    1.455   .     S
C298   C300    1.417   .     A
C298   C392    1.384   1_455 S
C301   N306    1.377   .     A
C301   C325    1.478   .     S
C302   N305    1.376   .     A
C302   C328    1.480   .     S
C302   C15     1.430   1_565 S
C303   N306    1.370   .     A
C303   C331    1.471   .     S
C304   C334    1.473   .     S
C304   N305    1.370   .     A
C304   C13     1.424   1_565 S
N305   Zn315   2.026   .     S
N306   Zn316   2.026   .     S
O307   Zn315   2.026   .     S
O308   Zn316   2.026   .     S
O309   Zn315   2.011   .     S
O310   Zn316   2.011   .     S
O311   Zn315   1.948   .     S
O312   Zn316   1.948   .     S
O313   Zn315   1.945   .     S
O314   Zn316   1.945   .     S
C317   N318    1.158   .     T
C319   N320    1.158   .     T
C321   N322    1.158   .     T
C323   N324    1.157   .     T
C325   O327    1.217   .     D
C325   H326    1.085   .     S
C328   O330    1.221   .     D
C328   H329    1.079   .     S
C331   H332    1.085   .     S
C331   O333    1.220   .     D
C334   O336    1.219   .     D
C334   H335    1.085   .     S
C337   O358    1.298   .     A
C337   C348    1.449   .     S
C337   O355    1.294   .     A
C338   O357    1.298   .     A
C338   C347    1.448   .     S
C338   O356    1.293   .     A
C339   O359    1.283   .     A
C339   O362    1.282   .     A
C339   C341    1.365   .     S
C340   O361    1.282   .     A
C340   O360    1.283   .     A
C340   C342    1.365   .     S
C341   C1206   1.164   1_554 S
C342   C773    1.164   .     S
C343   C365    1.458   .     S
C343   C348    1.414   .     A
C344   C347    1.410   .     A
C344   C367    1.458   .     S
C344   C394    1.384   .     S
C345   C369    1.456   .     S
C345   C347    1.412   .     A
C345   C391    1.382   .     S
C346   C371    1.455   .     S
C346   C348    1.417   .     A
C349   N354    1.377   .     A
C349   C373    1.478   .     S
C350   N353    1.376   .     A
C350   C376    1.480   .     S
C350   C63     1.430   1_565 S
C351   N354    1.370   .     A
C351   C379    1.471   .     S
C352   C382    1.473   .     S
C352   N353    1.370   .     A
C352   C61     1.424   1_565 S
N353   Zn363   2.026   .     S
N354   Zn364   2.026   .     S
O355   Zn363   2.026   .     S
O356   Zn364   2.026   .     S
O357   Zn363   2.011   .     S
O358   Zn364   2.011   .     S
O359   Zn363   1.948   .     S
O360   Zn364   1.948   .     S
O361   Zn363   1.945   .     S
O362   Zn364   1.945   .     S
C365   N366    1.158   .     T
C367   N368    1.158   .     T
C369   N370    1.158   .     T
C371   N372    1.157   .     T
C373   O375    1.217   .     D
C373   H374    1.085   .     S
C376   O378    1.221   .     D
C376   H377    1.079   .     S
C379   H380    1.085   .     S
C379   O381    1.220   .     D
C382   O384    1.219   .     D
C382   H383    1.085   .     S
C385   O406    1.298   .     A
C385   C396    1.449   .     S
C385   O403    1.294   .     A
C386   O405    1.298   .     A
C386   C395    1.448   .     S
C386   O404    1.293   .     A
C387   O407    1.283   .     A
C387   O410    1.282   .     A
C387   C389    1.365   .     S
C388   O409    1.282   .     A
C388   O408    1.283   .     A
C388   C390    1.365   .     S
C389   C1254   1.164   1_554 S
C390   C821    1.164   .     S
C391   C413    1.458   .     S
C391   C396    1.414   .     A
C392   C395    1.410   .     A
C392   C415    1.458   .     S
C392   C298    1.384   1_655 S
C393   C417    1.456   .     S
C393   C395    1.412   .     A
C393   C295    1.382   1_655 S
C394   C419    1.455   .     S
C394   C396    1.417   .     A
C397   N402    1.377   .     A
C397   C421    1.478   .     S
C398   N401    1.376   .     A
C398   C424    1.480   .     S
C398   C111    1.430   1_565 S
C399   N402    1.370   .     A
C399   C427    1.471   .     S
C400   C430    1.473   .     S
C400   N401    1.370   .     A
C400   C109    1.424   1_565 S
N401   Zn411   2.026   .     S
N402   Zn412   2.026   .     S
O403   Zn411   2.026   .     S
O404   Zn412   2.026   .     S
O405   Zn411   2.011   .     S
O406   Zn412   2.011   .     S
O407   Zn411   1.948   .     S
O408   Zn412   1.948   .     S
O409   Zn411   1.945   .     S
O410   Zn412   1.945   .     S
C413   N414    1.158   .     T
C415   N416    1.158   .     T
C417   N418    1.158   .     T
C419   N420    1.157   .     T
C421   O423    1.217   .     D
C421   H422    1.085   .     S
C424   O426    1.221   .     D
C424   H425    1.079   .     S
C427   H428    1.085   .     S
C427   O429    1.220   .     D
C430   O432    1.219   .     D
C430   H431    1.085   .     S
C433   O454    1.298   .     A
C433   C444    1.449   .     S
C433   O451    1.294   .     A
C434   O453    1.298   .     A
C434   C443    1.448   .     S
C434   O452    1.293   .     A
C435   O455    1.283   .     A
C435   O458    1.282   .     A
C435   C437    1.365   .     S
C436   O457    1.282   .     A
C436   O456    1.283   .     A
C436   C438    1.365   .     S
C438   C869    1.164   .     S
C439   C461    1.458   .     S
C439   C444    1.414   .     A
C439   C537    1.382   1_455 S
C440   C443    1.410   .     A
C440   C463    1.458   .     S
C440   C490    1.384   .     S
C441   C465    1.456   .     S
C441   C443    1.412   .     A
C441   C487    1.382   .     S
C442   C467    1.455   .     S
C442   C444    1.417   .     A
C442   C536    1.384   1_455 S
C445   N450    1.377   .     A
C445   C469    1.478   .     S
C445   C736    1.424   1_545 S
C446   N449    1.376   .     A
C446   C472    1.480   .     S
C446   C591    1.430   .     S
C447   N450    1.370   .     A
C447   C475    1.471   .     S
C447   C734    1.430   1_545 S
C448   C478    1.473   .     S
C448   N449    1.370   .     A
C448   C589    1.424   .     S
N449   Zn459   2.026   .     S
N450   Zn460   2.026   .     S
O451   Zn459   2.026   .     S
O452   Zn460   2.026   .     S
O453   Zn459   2.011   .     S
O454   Zn460   2.011   .     S
O455   Zn459   1.948   .     S
O456   Zn460   1.948   .     S
O457   Zn459   1.945   .     S
O458   Zn460   1.945   .     S
C461   N462    1.158   .     T
C463   N464    1.158   .     T
C465   N466    1.158   .     T
C467   N468    1.157   .     T
C469   O471    1.217   .     D
C469   H470    1.085   .     S
C472   O474    1.221   .     D
C472   H473    1.079   .     S
C475   H476    1.085   .     S
C475   O477    1.220   .     D
C478   O480    1.219   .     D
C478   H479    1.085   .     S
C481   O502    1.298   .     A
C481   C492    1.449   .     S
C481   O499    1.294   .     A
C482   O501    1.298   .     A
C482   C491    1.448   .     S
C482   O500    1.293   .     A
C483   O503    1.283   .     A
C483   O506    1.282   .     A
C483   C485    1.365   .     S
C484   O505    1.282   .     A
C484   O504    1.283   .     A
C484   C486    1.365   .     S
C486   C917    1.164   .     S
C487   C509    1.458   .     S
C487   C492    1.414   .     A
C488   C491    1.410   .     A
C488   C511    1.458   .     S
C488   C538    1.384   .     S
C489   C513    1.456   .     S
C489   C491    1.412   .     A
C489   C535    1.382   .     S
C490   C515    1.455   .     S
C490   C492    1.417   .     A
C493   N498    1.377   .     A
C493   C517    1.478   .     S
C493   C784    1.424   1_545 S
C494   N497    1.376   .     A
C494   C520    1.480   .     S
C494   C639    1.430   .     S
C495   N498    1.370   .     A
C495   C523    1.471   .     S
C495   C782    1.430   1_545 S
C496   C526    1.473   .     S
C496   N497    1.370   .     A
C496   C637    1.424   .     S
N497   Zn507   2.026   .     S
N498   Zn508   2.026   .     S
O499   Zn507   2.026   .     S
O500   Zn508   2.026   .     S
O501   Zn507   2.011   .     S
O502   Zn508   2.011   .     S
O503   Zn507   1.948   .     S
O504   Zn508   1.948   .     S
O505   Zn507   1.945   .     S
O506   Zn508   1.945   .     S
C509   N510    1.158   .     T
C511   N512    1.158   .     T
C513   N514    1.158   .     T
C515   N516    1.157   .     T
C517   O519    1.217   .     D
C517   H518    1.085   .     S
C520   O522    1.221   .     D
C520   H521    1.079   .     S
C523   H524    1.085   .     S
C523   O525    1.220   .     D
C526   O528    1.219   .     D
C526   H527    1.085   .     S
C529   O550    1.298   .     A
C529   C540    1.449   .     S
C529   O547    1.294   .     A
C530   O549    1.298   .     A
C530   C539    1.448   .     S
C530   O548    1.293   .     A
C531   O551    1.283   .     A
C531   O554    1.282   .     A
C531   C533    1.365   .     S
C532   O553    1.282   .     A
C532   O552    1.283   .     A
C532   C534    1.365   .     S
C534   C965    1.164   .     S
C535   C557    1.458   .     S
C535   C540    1.414   .     A
C536   C539    1.410   .     A
C536   C559    1.458   .     S
C536   C442    1.384   1_655 S
C537   C561    1.456   .     S
C537   C539    1.412   .     A
C537   C439    1.382   1_655 S
C538   C563    1.455   .     S
C538   C540    1.417   .     A
C541   N546    1.377   .     A
C541   C565    1.478   .     S
C541   C832    1.424   1_545 S
C542   N545    1.376   .     A
C542   C568    1.480   .     S
C542   C687    1.430   .     S
C543   N546    1.370   .     A
C543   C571    1.471   .     S
C543   C830    1.430   1_545 S
C544   C574    1.473   .     S
C544   N545    1.370   .     A
C544   C685    1.424   .     S
N545   Zn555   2.026   .     S
N546   Zn556   2.026   .     S
O547   Zn555   2.026   .     S
O548   Zn556   2.026   .     S
O549   Zn555   2.011   .     S
O550   Zn556   2.011   .     S
O551   Zn555   1.948   .     S
O552   Zn556   1.948   .     S
O553   Zn555   1.945   .     S
O554   Zn556   1.945   .     S
C557   N558    1.158   .     T
C559   N560    1.158   .     T
C561   N562    1.158   .     T
C563   N564    1.157   .     T
C565   O567    1.217   .     D
C565   H566    1.085   .     S
C568   O570    1.221   .     D
C568   H569    1.079   .     S
C571   H572    1.085   .     S
C571   O573    1.220   .     D
C574   O576    1.219   .     D
C574   H575    1.085   .     S
C577   O598    1.298   .     A
C577   C588    1.449   .     S
C577   O595    1.294   .     A
C578   O597    1.298   .     A
C578   C587    1.448   .     S
C578   O596    1.293   .     A
C579   O599    1.283   .     A
C579   O602    1.282   .     A
C579   C581    1.365   .     S
C580   O601    1.282   .     A
C580   O600    1.283   .     A
C580   C582    1.365   .     S
C582   C1013   1.164   .     S
C583   C605    1.458   .     S
C583   C588    1.414   .     A
C583   C681    1.382   1_455 S
C584   C587    1.410   .     A
C584   C607    1.458   .     S
C584   C634    1.384   .     S
C585   C609    1.456   .     S
C585   C587    1.412   .     A
C585   C631    1.382   .     S
C586   C611    1.455   .     S
C586   C588    1.417   .     A
C586   C680    1.384   1_455 S
C589   N594    1.377   .     A
C589   C613    1.478   .     S
C590   N593    1.376   .     A
C590   C616    1.480   .     S
C590   C735    1.430   .     S
C591   N594    1.370   .     A
C591   C619    1.471   .     S
C592   C622    1.473   .     S
C592   N593    1.370   .     A
C592   C733    1.424   .     S
N593   Zn603   2.026   .     S
N594   Zn604   2.026   .     S
O595   Zn603   2.026   .     S
O596   Zn604   2.026   .     S
O597   Zn603   2.011   .     S
O598   Zn604   2.011   .     S
O599   Zn603   1.948   .     S
O600   Zn604   1.948   .     S
O601   Zn603   1.945   .     S
O602   Zn604   1.945   .     S
C605   N606    1.158   .     T
C607   N608    1.158   .     T
C609   N610    1.158   .     T
C611   N612    1.157   .     T
C613   O615    1.217   .     D
C613   H614    1.085   .     S
C616   O618    1.221   .     D
C616   H617    1.079   .     S
C619   H620    1.085   .     S
C619   O621    1.220   .     D
C622   O624    1.219   .     D
C622   H623    1.085   .     S
C625   O646    1.298   .     A
C625   C636    1.449   .     S
C625   O643    1.294   .     A
C626   O645    1.298   .     A
C626   C635    1.448   .     S
C626   O644    1.293   .     A
C627   O647    1.283   .     A
C627   O650    1.282   .     A
C627   C629    1.365   .     S
C628   O649    1.282   .     A
C628   O648    1.283   .     A
C628   C630    1.365   .     S
C630   C1061   1.164   .     S
C631   C653    1.458   .     S
C631   C636    1.414   .     A
C632   C635    1.410   .     A
C632   C655    1.458   .     S
C632   C682    1.384   .     S
C633   C657    1.456   .     S
C633   C635    1.412   .     A
C633   C679    1.382   .     S
C634   C659    1.455   .     S
C634   C636    1.417   .     A
C637   N642    1.377   .     A
C637   C661    1.478   .     S
C638   N641    1.376   .     A
C638   C664    1.480   .     S
C638   C783    1.430   .     S
C639   N642    1.370   .     A
C639   C667    1.471   .     S
C640   C670    1.473   .     S
C640   N641    1.370   .     A
C640   C781    1.424   .     S
N641   Zn651   2.026   .     S
N642   Zn652   2.026   .     S
O643   Zn651   2.026   .     S
O644   Zn652   2.026   .     S
O645   Zn651   2.011   .     S
O646   Zn652   2.011   .     S
O647   Zn651   1.948   .     S
O648   Zn652   1.948   .     S
O649   Zn651   1.945   .     S
O650   Zn652   1.945   .     S
C653   N654    1.158   .     T
C655   N656    1.158   .     T
C657   N658    1.158   .     T
C659   N660    1.157   .     T
C661   O663    1.217   .     D
C661   H662    1.085   .     S
C664   O666    1.221   .     D
C664   H665    1.079   .     S
C667   H668    1.085   .     S
C667   O669    1.220   .     D
C670   O672    1.219   .     D
C670   H671    1.085   .     S
C673   O694    1.298   .     A
C673   C684    1.449   .     S
C673   O691    1.294   .     A
C674   O693    1.298   .     A
C674   C683    1.448   .     S
C674   O692    1.293   .     A
C675   O695    1.283   .     A
C675   O698    1.282   .     A
C675   C677    1.365   .     S
C676   O697    1.282   .     A
C676   O696    1.283   .     A
C676   C678    1.365   .     S
C678   C1109   1.164   .     S
C679   C701    1.458   .     S
C679   C684    1.414   .     A
C680   C683    1.410   .     A
C680   C703    1.458   .     S
C680   C586    1.384   1_655 S
C681   C705    1.456   .     S
C681   C683    1.412   .     A
C681   C583    1.382   1_655 S
C682   C707    1.455   .     S
C682   C684    1.417   .     A
C685   N690    1.377   .     A
C685   C709    1.478   .     S
C686   N689    1.376   .     A
C686   C712    1.480   .     S
C686   C831    1.430   .     S
C687   N690    1.370   .     A
C687   C715    1.471   .     S
C688   C718    1.473   .     S
C688   N689    1.370   .     A
C688   C829    1.424   .     S
N689   Zn699   2.026   .     S
N690   Zn700   2.026   .     S
O691   Zn699   2.026   .     S
O692   Zn700   2.026   .     S
O693   Zn699   2.011   .     S
O694   Zn700   2.011   .     S
O695   Zn699   1.948   .     S
O696   Zn700   1.948   .     S
O697   Zn699   1.945   .     S
O698   Zn700   1.945   .     S
C701   N702    1.158   .     T
C703   N704    1.158   .     T
C705   N706    1.158   .     T
C707   N708    1.157   .     T
C709   O711    1.217   .     D
C709   H710    1.085   .     S
C712   O714    1.221   .     D
C712   H713    1.079   .     S
C715   H716    1.085   .     S
C715   O717    1.220   .     D
C718   O720    1.219   .     D
C718   H719    1.085   .     S
C721   O742    1.298   .     A
C721   C732    1.449   .     S
C721   O739    1.294   .     A
C722   O741    1.298   .     A
C722   C731    1.448   .     S
C722   O740    1.293   .     A
C723   O743    1.283   .     A
C723   O746    1.282   .     A
C723   C725    1.365   .     S
C724   O745    1.282   .     A
C724   O744    1.283   .     A
C724   C726    1.365   .     S
C726   C1157   1.164   .     S
C727   C749    1.458   .     S
C727   C732    1.414   .     A
C727   C825    1.382   1_455 S
C728   C731    1.410   .     A
C728   C751    1.458   .     S
C728   C778    1.384   .     S
C729   C753    1.456   .     S
C729   C731    1.412   .     A
C729   C775    1.382   .     S
C730   C755    1.455   .     S
C730   C732    1.417   .     A
C730   C824    1.384   1_455 S
C733   N738    1.377   .     A
C733   C757    1.478   .     S
C734   N737    1.376   .     A
C734   C760    1.480   .     S
C734   C447    1.430   1_565 S
C735   N738    1.370   .     A
C735   C763    1.471   .     S
C736   C766    1.473   .     S
C736   N737    1.370   .     A
C736   C445    1.424   1_565 S
N737   Zn747   2.026   .     S
N738   Zn748   2.026   .     S
O739   Zn747   2.026   .     S
O740   Zn748   2.026   .     S
O741   Zn747   2.011   .     S
O742   Zn748   2.011   .     S
O743   Zn747   1.948   .     S
O744   Zn748   1.948   .     S
O745   Zn747   1.945   .     S
O746   Zn748   1.945   .     S
C749   N750    1.158   .     T
C751   N752    1.158   .     T
C753   N754    1.158   .     T
C755   N756    1.157   .     T
C757   O759    1.217   .     D
C757   H758    1.085   .     S
C760   O762    1.221   .     D
C760   H761    1.079   .     S
C763   H764    1.085   .     S
C763   O765    1.220   .     D
C766   O768    1.219   .     D
C766   H767    1.085   .     S
C769   O790    1.298   .     A
C769   C780    1.449   .     S
C769   O787    1.294   .     A
C770   O789    1.298   .     A
C770   C779    1.448   .     S
C770   O788    1.293   .     A
C771   O791    1.283   .     A
C771   O794    1.282   .     A
C771   C773    1.365   .     S
C772   O793    1.282   .     A
C772   O792    1.283   .     A
C772   C774    1.365   .     S
C774   C1205   1.164   .     S
C775   C797    1.458   .     S
C775   C780    1.414   .     A
C776   C779    1.410   .     A
C776   C799    1.458   .     S
C776   C826    1.384   .     S
C777   C801    1.456   .     S
C777   C779    1.412   .     A
C777   C823    1.382   .     S
C778   C803    1.455   .     S
C778   C780    1.417   .     A
C781   N786    1.377   .     A
C781   C805    1.478   .     S
C782   N785    1.376   .     A
C782   C808    1.480   .     S
C782   C495    1.430   1_565 S
C783   N786    1.370   .     A
C783   C811    1.471   .     S
C784   C814    1.473   .     S
C784   N785    1.370   .     A
C784   C493    1.424   1_565 S
N785   Zn795   2.026   .     S
N786   Zn796   2.026   .     S
O787   Zn795   2.026   .     S
O788   Zn796   2.026   .     S
O789   Zn795   2.011   .     S
O790   Zn796   2.011   .     S
O791   Zn795   1.948   .     S
O792   Zn796   1.948   .     S
O793   Zn795   1.945   .     S
O794   Zn796   1.945   .     S
C797   N798    1.158   .     T
C799   N800    1.158   .     T
C801   N802    1.158   .     T
C803   N804    1.157   .     T
C805   O807    1.217   .     D
C805   H806    1.085   .     S
C808   O810    1.221   .     D
C808   H809    1.079   .     S
C811   H812    1.085   .     S
C811   O813    1.220   .     D
C814   O816    1.219   .     D
C814   H815    1.085   .     S
C817   O838    1.298   .     A
C817   C828    1.449   .     S
C817   O835    1.294   .     A
C818   O837    1.298   .     A
C818   C827    1.448   .     S
C818   O836    1.293   .     A
C819   O839    1.283   .     A
C819   O842    1.282   .     A
C819   C821    1.365   .     S
C820   O841    1.282   .     A
C820   O840    1.283   .     A
C820   C822    1.365   .     S
C822   C1253   1.164   .     S
C823   C845    1.458   .     S
C823   C828    1.414   .     A
C824   C827    1.410   .     A
C824   C847    1.458   .     S
C824   C730    1.384   1_655 S
C825   C849    1.456   .     S
C825   C827    1.412   .     A
C825   C727    1.382   1_655 S
C826   C851    1.455   .     S
C826   C828    1.417   .     A
C829   N834    1.377   .     A
C829   C853    1.478   .     S
C830   N833    1.376   .     A
C830   C856    1.480   .     S
C830   C543    1.430   1_565 S
C831   N834    1.370   .     A
C831   C859    1.471   .     S
C832   C862    1.473   .     S
C832   N833    1.370   .     A
C832   C541    1.424   1_565 S
N833   Zn843   2.026   .     S
N834   Zn844   2.026   .     S
O835   Zn843   2.026   .     S
O836   Zn844   2.026   .     S
O837   Zn843   2.011   .     S
O838   Zn844   2.011   .     S
O839   Zn843   1.948   .     S
O840   Zn844   1.948   .     S
O841   Zn843   1.945   .     S
O842   Zn844   1.945   .     S
C845   N846    1.158   .     T
C847   N848    1.158   .     T
C849   N850    1.158   .     T
C851   N852    1.157   .     T
C853   O855    1.217   .     D
C853   H854    1.085   .     S
C856   O858    1.221   .     D
C856   H857    1.079   .     S
C859   H860    1.085   .     S
C859   O861    1.220   .     D
C862   O864    1.219   .     D
C862   H863    1.085   .     S
C865   O886    1.298   .     A
C865   C876    1.449   .     S
C865   O883    1.294   .     A
C866   O885    1.298   .     A
C866   C875    1.448   .     S
C866   O884    1.293   .     A
C867   O887    1.283   .     A
C867   O890    1.282   .     A
C867   C869    1.365   .     S
C868   O889    1.282   .     A
C868   O888    1.283   .     A
C868   C870    1.365   .     S
C870   C5      1.164   1_556 S
C871   C893    1.458   .     S
C871   C876    1.414   .     A
C871   C969    1.382   1_455 S
C872   C875    1.410   .     A
C872   C895    1.458   .     S
C872   C922    1.384   .     S
C873   C897    1.456   .     S
C873   C875    1.412   .     A
C873   C919    1.382   .     S
C874   C899    1.455   .     S
C874   C876    1.417   .     A
C874   C968    1.384   1_455 S
C877   N882    1.377   .     A
C877   C901    1.478   .     S
C877   C1168   1.424   1_545 S
C878   N881    1.376   .     A
C878   C904    1.480   .     S
C878   C1023   1.430   .     S
C879   N882    1.370   .     A
C879   C907    1.471   .     S
C879   C1166   1.430   1_545 S
C880   C910    1.473   .     S
C880   N881    1.370   .     A
C880   C1021   1.424   .     S
N881   Zn891   2.026   .     S
N882   Zn892   2.026   .     S
O883   Zn891   2.026   .     S
O884   Zn892   2.026   .     S
O885   Zn891   2.011   .     S
O886   Zn892   2.011   .     S
O887   Zn891   1.948   .     S
O888   Zn892   1.948   .     S
O889   Zn891   1.945   .     S
O890   Zn892   1.945   .     S
C893   N894    1.158   .     T
C895   N896    1.158   .     T
C897   N898    1.158   .     T
C899   N900    1.157   .     T
C901   O903    1.217   .     D
C901   H902    1.085   .     S
C904   O906    1.221   .     D
C904   H905    1.079   .     S
C907   H908    1.085   .     S
C907   O909    1.220   .     D
C910   O912    1.219   .     D
C910   H911    1.085   .     S
C913   O934    1.298   .     A
C913   C924    1.449   .     S
C913   O931    1.294   .     A
C914   O933    1.298   .     A
C914   C923    1.448   .     S
C914   O932    1.293   .     A
C915   O935    1.283   .     A
C915   O938    1.282   .     A
C915   C917    1.365   .     S
C916   O937    1.282   .     A
C916   O936    1.283   .     A
C916   C918    1.365   .     S
C918   C53     1.164   1_556 S
C919   C941    1.458   .     S
C919   C924    1.414   .     A
C920   C923    1.410   .     A
C920   C943    1.458   .     S
C920   C970    1.384   .     S
C921   C945    1.456   .     S
C921   C923    1.412   .     A
C921   C967    1.382   .     S
C922   C947    1.455   .     S
C922   C924    1.417   .     A
C925   N930    1.377   .     A
C925   C949    1.478   .     S
C925   C1216   1.424   1_545 S
C926   N929    1.376   .     A
C926   C952    1.480   .     S
C926   C1071   1.430   .     S
C927   N930    1.370   .     A
C927   C955    1.471   .     S
C927   C1214   1.430   1_545 S
C928   C958    1.473   .     S
C928   N929    1.370   .     A
C928   C1069   1.424   .     S
N929   Zn939   2.026   .     S
N930   Zn940   2.026   .     S
O931   Zn939   2.026   .     S
O932   Zn940   2.026   .     S
O933   Zn939   2.011   .     S
O934   Zn940   2.011   .     S
O935   Zn939   1.948   .     S
O936   Zn940   1.948   .     S
O937   Zn939   1.945   .     S
O938   Zn940   1.945   .     S
C941   N942    1.158   .     T
C943   N944    1.158   .     T
C945   N946    1.158   .     T
C947   N948    1.157   .     T
C949   O951    1.217   .     D
C949   H950    1.085   .     S
C952   O954    1.221   .     D
C952   H953    1.079   .     S
C955   H956    1.085   .     S
C955   O957    1.220   .     D
C958   O960    1.219   .     D
C958   H959    1.085   .     S
C961   O982    1.298   .     A
C961   C972    1.449   .     S
C961   O979    1.294   .     A
C962   O981    1.298   .     A
C962   C971    1.448   .     S
C962   O980    1.293   .     A
C963   O983    1.283   .     A
C963   O986    1.282   .     A
C963   C965    1.365   .     S
C964   O985    1.282   .     A
C964   O984    1.283   .     A
C964   C966    1.365   .     S
C966   C101    1.164   1_556 S
C967   C989    1.458   .     S
C967   C972    1.414   .     A
C968   C971    1.410   .     A
C968   C991    1.458   .     S
C968   C874    1.384   1_655 S
C969   C993    1.456   .     S
C969   C971    1.412   .     A
C969   C871    1.382   1_655 S
C970   C995    1.455   .     S
C970   C972    1.417   .     A
C973   N978    1.377   .     A
C973   C997    1.478   .     S
C973   C1264   1.424   1_545 S
C974   N977    1.376   .     A
C974   C1000   1.480   .     S
C974   C1119   1.430   .     S
C975   N978    1.370   .     A
C975   C1003   1.471   .     S
C975   C1262   1.430   1_545 S
C976   C1006   1.473   .     S
C976   N977    1.370   .     A
C976   C1117   1.424   .     S
N977   Zn987   2.026   .     S
N978   Zn988   2.026   .     S
O979   Zn987   2.026   .     S
O980   Zn988   2.026   .     S
O981   Zn987   2.011   .     S
O982   Zn988   2.011   .     S
O983   Zn987   1.948   .     S
O984   Zn988   1.948   .     S
O985   Zn987   1.945   .     S
O986   Zn988   1.945   .     S
C989   N990    1.158   .     T
C991   N992    1.158   .     T
C993   N994    1.158   .     T
C995   N996    1.157   .     T
C997   O999    1.217   .     D
C997   H998    1.085   .     S
C1000  O1002   1.221   .     D
C1000  H1001   1.079   .     S
C1003  H1004   1.085   .     S
C1003  O1005   1.220   .     D
C1006  O1008   1.219   .     D
C1006  H1007   1.085   .     S
C1009  O1030   1.298   .     A
C1009  C1020   1.449   .     S
C1009  O1027   1.294   .     A
C1010  O1029   1.298   .     A
C1010  C1019   1.448   .     S
C1010  O1028   1.293   .     A
C1011  O1031   1.283   .     A
C1011  O1034   1.282   .     A
C1011  C1013   1.365   .     S
C1012  O1033   1.282   .     A
C1012  O1032   1.283   .     A
C1012  C1014   1.365   .     S
C1014  C149    1.164   1_556 S
C1015  C1037   1.458   .     S
C1015  C1020   1.414   .     A
C1015  C1113   1.382   1_455 S
C1016  C1019   1.410   .     A
C1016  C1039   1.458   .     S
C1016  C1066   1.384   .     S
C1017  C1041   1.456   .     S
C1017  C1019   1.412   .     A
C1017  C1063   1.382   .     S
C1018  C1043   1.455   .     S
C1018  C1020   1.417   .     A
C1018  C1112   1.384   1_455 S
C1021  N1026   1.377   .     A
C1021  C1045   1.478   .     S
C1022  N1025   1.376   .     A
C1022  C1048   1.480   .     S
C1022  C1167   1.430   .     S
C1023  N1026   1.370   .     A
C1023  C1051   1.471   .     S
C1024  C1054   1.473   .     S
C1024  N1025   1.370   .     A
C1024  C1165   1.424   .     S
N1025  Zn1035  2.026   .     S
N1026  Zn1036  2.026   .     S
O1027  Zn1035  2.026   .     S
O1028  Zn1036  2.026   .     S
O1029  Zn1035  2.011   .     S
O1030  Zn1036  2.011   .     S
O1031  Zn1035  1.948   .     S
O1032  Zn1036  1.948   .     S
O1033  Zn1035  1.945   .     S
O1034  Zn1036  1.945   .     S
C1037  N1038   1.158   .     T
C1039  N1040   1.158   .     T
C1041  N1042   1.158   .     T
C1043  N1044   1.157   .     T
C1045  O1047   1.217   .     D
C1045  H1046   1.085   .     S
C1048  O1050   1.221   .     D
C1048  H1049   1.079   .     S
C1051  H1052   1.085   .     S
C1051  O1053   1.220   .     D
C1054  O1056   1.219   .     D
C1054  H1055   1.085   .     S
C1057  O1078   1.298   .     A
C1057  C1068   1.449   .     S
C1057  O1075   1.294   .     A
C1058  O1077   1.298   .     A
C1058  C1067   1.448   .     S
C1058  O1076   1.293   .     A
C1059  O1079   1.283   .     A
C1059  O1082   1.282   .     A
C1059  C1061   1.365   .     S
C1060  O1081   1.282   .     A
C1060  O1080   1.283   .     A
C1060  C1062   1.365   .     S
C1062  C197    1.164   1_556 S
C1063  C1085   1.458   .     S
C1063  C1068   1.414   .     A
C1064  C1067   1.410   .     A
C1064  C1087   1.458   .     S
C1064  C1114   1.384   .     S
C1065  C1089   1.456   .     S
C1065  C1067   1.412   .     A
C1065  C1111   1.382   .     S
C1066  C1091   1.455   .     S
C1066  C1068   1.417   .     A
C1069  N1074   1.377   .     A
C1069  C1093   1.478   .     S
C1070  N1073   1.376   .     A
C1070  C1096   1.480   .     S
C1070  C1215   1.430   .     S
C1071  N1074   1.370   .     A
C1071  C1099   1.471   .     S
C1072  C1102   1.473   .     S
C1072  N1073   1.370   .     A
C1072  C1213   1.424   .     S
N1073  Zn1083  2.026   .     S
N1074  Zn1084  2.026   .     S
O1075  Zn1083  2.026   .     S
O1076  Zn1084  2.026   .     S
O1077  Zn1083  2.011   .     S
O1078  Zn1084  2.011   .     S
O1079  Zn1083  1.948   .     S
O1080  Zn1084  1.948   .     S
O1081  Zn1083  1.945   .     S
O1082  Zn1084  1.945   .     S
C1085  N1086   1.158   .     T
C1087  N1088   1.158   .     T
C1089  N1090   1.158   .     T
C1091  N1092   1.157   .     T
C1093  O1095   1.217   .     D
C1093  H1094   1.085   .     S
C1096  O1098   1.221   .     D
C1096  H1097   1.079   .     S
C1099  H1100   1.085   .     S
C1099  O1101   1.220   .     D
C1102  O1104   1.219   .     D
C1102  H1103   1.085   .     S
C1105  O1126   1.298   .     A
C1105  C1116   1.449   .     S
C1105  O1123   1.294   .     A
C1106  O1125   1.298   .     A
C1106  C1115   1.448   .     S
C1106  O1124   1.293   .     A
C1107  O1127   1.283   .     A
C1107  O1130   1.282   .     A
C1107  C1109   1.365   .     S
C1108  O1129   1.282   .     A
C1108  O1128   1.283   .     A
C1108  C1110   1.365   .     S
C1110  C245    1.164   1_556 S
C1111  C1133   1.458   .     S
C1111  C1116   1.414   .     A
C1112  C1115   1.410   .     A
C1112  C1135   1.458   .     S
C1112  C1018   1.384   1_655 S
C1113  C1137   1.456   .     S
C1113  C1115   1.412   .     A
C1113  C1015   1.382   1_655 S
C1114  C1139   1.455   .     S
C1114  C1116   1.417   .     A
C1117  N1122   1.377   .     A
C1117  C1141   1.478   .     S
C1118  N1121   1.376   .     A
C1118  C1144   1.480   .     S
C1118  C1263   1.430   .     S
C1119  N1122   1.370   .     A
C1119  C1147   1.471   .     S
C1120  C1150   1.473   .     S
C1120  N1121   1.370   .     A
C1120  C1261   1.424   .     S
N1121  Zn1131  2.026   .     S
N1122  Zn1132  2.026   .     S
O1123  Zn1131  2.026   .     S
O1124  Zn1132  2.026   .     S
O1125  Zn1131  2.011   .     S
O1126  Zn1132  2.011   .     S
O1127  Zn1131  1.948   .     S
O1128  Zn1132  1.948   .     S
O1129  Zn1131  1.945   .     S
O1130  Zn1132  1.945   .     S
C1133  N1134   1.158   .     T
C1135  N1136   1.158   .     T
C1137  N1138   1.158   .     T
C1139  N1140   1.157   .     T
C1141  O1143   1.217   .     D
C1141  H1142   1.085   .     S
C1144  O1146   1.221   .     D
C1144  H1145   1.079   .     S
C1147  H1148   1.085   .     S
C1147  O1149   1.220   .     D
C1150  O1152   1.219   .     D
C1150  H1151   1.085   .     S
C1153  O1174   1.298   .     A
C1153  C1164   1.449   .     S
C1153  O1171   1.294   .     A
C1154  O1173   1.298   .     A
C1154  C1163   1.448   .     S
C1154  O1172   1.293   .     A
C1155  O1175   1.283   .     A
C1155  O1178   1.282   .     A
C1155  C1157   1.365   .     S
C1156  O1177   1.282   .     A
C1156  O1176   1.283   .     A
C1156  C1158   1.365   .     S
C1158  C293    1.164   1_556 S
C1159  C1181   1.458   .     S
C1159  C1164   1.414   .     A
C1159  C1257   1.382   1_455 S
C1160  C1163   1.410   .     A
C1160  C1183   1.458   .     S
C1160  C1210   1.384   .     S
C1161  C1185   1.456   .     S
C1161  C1163   1.412   .     A
C1161  C1207   1.382   .     S
C1162  C1187   1.455   .     S
C1162  C1164   1.417   .     A
C1162  C1256   1.384   1_455 S
C1165  N1170   1.377   .     A
C1165  C1189   1.478   .     S
C1166  N1169   1.376   .     A
C1166  C1192   1.480   .     S
C1166  C879    1.430   1_565 S
C1167  N1170   1.370   .     A
C1167  C1195   1.471   .     S
C1168  C1198   1.473   .     S
C1168  N1169   1.370   .     A
C1168  C877    1.424   1_565 S
N1169  Zn1179  2.026   .     S
N1170  Zn1180  2.026   .     S
O1171  Zn1179  2.026   .     S
O1172  Zn1180  2.026   .     S
O1173  Zn1179  2.011   .     S
O1174  Zn1180  2.011   .     S
O1175  Zn1179  1.948   .     S
O1176  Zn1180  1.948   .     S
O1177  Zn1179  1.945   .     S
O1178  Zn1180  1.945   .     S
C1181  N1182   1.158   .     T
C1183  N1184   1.158   .     T
C1185  N1186   1.158   .     T
C1187  N1188   1.157   .     T
C1189  O1191   1.217   .     D
C1189  H1190   1.085   .     S
C1192  O1194   1.221   .     D
C1192  H1193   1.079   .     S
C1195  H1196   1.085   .     S
C1195  O1197   1.220   .     D
C1198  O1200   1.219   .     D
C1198  H1199   1.085   .     S
C1201  O1222   1.298   .     A
C1201  C1212   1.449   .     S
C1201  O1219   1.294   .     A
C1202  O1221   1.298   .     A
C1202  C1211   1.448   .     S
C1202  O1220   1.293   .     A
C1203  O1223   1.283   .     A
C1203  O1226   1.282   .     A
C1203  C1205   1.365   .     S
C1204  O1225   1.282   .     A
C1204  O1224   1.283   .     A
C1204  C1206   1.365   .     S
C1206  C341    1.164   1_556 S
C1207  C1229   1.458   .     S
C1207  C1212   1.414   .     A
C1208  C1211   1.410   .     A
C1208  C1231   1.458   .     S
C1208  C1258   1.384   .     S
C1209  C1233   1.456   .     S
C1209  C1211   1.412   .     A
C1209  C1255   1.382   .     S
C1210  C1235   1.455   .     S
C1210  C1212   1.417   .     A
C1213  N1218   1.377   .     A
C1213  C1237   1.478   .     S
C1214  N1217   1.376   .     A
C1214  C1240   1.480   .     S
C1214  C927    1.430   1_565 S
C1215  N1218   1.370   .     A
C1215  C1243   1.471   .     S
C1216  C1246   1.473   .     S
C1216  N1217   1.370   .     A
C1216  C925    1.424   1_565 S
N1217  Zn1227  2.026   .     S
N1218  Zn1228  2.026   .     S
O1219  Zn1227  2.026   .     S
O1220  Zn1228  2.026   .     S
O1221  Zn1227  2.011   .     S
O1222  Zn1228  2.011   .     S
O1223  Zn1227  1.948   .     S
O1224  Zn1228  1.948   .     S
O1225  Zn1227  1.945   .     S
O1226  Zn1228  1.945   .     S
C1229  N1230   1.158   .     T
C1231  N1232   1.158   .     T
C1233  N1234   1.158   .     T
C1235  N1236   1.157   .     T
C1237  O1239   1.217   .     D
C1237  H1238   1.085   .     S
C1240  O1242   1.221   .     D
C1240  H1241   1.079   .     S
C1243  H1244   1.085   .     S
C1243  O1245   1.220   .     D
C1246  O1248   1.219   .     D
C1246  H1247   1.085   .     S
C1249  O1270   1.298   .     A
C1249  C1260   1.449   .     S
C1249  O1267   1.294   .     A
C1250  O1269   1.298   .     A
C1250  C1259   1.448   .     S
C1250  O1268   1.293   .     A
C1251  O1271   1.283   .     A
C1251  O1274   1.282   .     A
C1251  C1253   1.365   .     S
C1252  O1273   1.282   .     A
C1252  O1272   1.283   .     A
C1252  C1254   1.365   .     S
C1254  C389    1.164   1_556 S
C1255  C1277   1.458   .     S
C1255  C1260   1.414   .     A
C1256  C1259   1.410   .     A
C1256  C1279   1.458   .     S
C1256  C1162   1.384   1_655 S
C1257  C1281   1.456   .     S
C1257  C1259   1.412   .     A
C1257  C1159   1.382   1_655 S
C1258  C1283   1.455   .     S
C1258  C1260   1.417   .     A
C1261  N1266   1.377   .     A
C1261  C1285   1.478   .     S
C1262  N1265   1.376   .     A
C1262  C1288   1.480   .     S
C1262  C975    1.430   1_565 S
C1263  N1266   1.370   .     A
C1263  C1291   1.471   .     S
C1264  C1294   1.473   .     S
C1264  N1265   1.370   .     A
C1264  C973    1.424   1_565 S
N1265  Zn1275  2.026   .     S
N1266  Zn1276  2.026   .     S
O1267  Zn1275  2.026   .     S
O1268  Zn1276  2.026   .     S
O1269  Zn1275  2.011   .     S
O1270  Zn1276  2.011   .     S
O1271  Zn1275  1.948   .     S
O1272  Zn1276  1.948   .     S
O1273  Zn1275  1.945   .     S
O1274  Zn1276  1.945   .     S
C1277  N1278   1.158   .     T
C1279  N1280   1.158   .     T
C1281  N1282   1.158   .     T
C1283  N1284   1.157   .     T
C1285  O1287   1.217   .     D
C1285  H1286   1.085   .     S
C1288  O1290   1.221   .     D
C1288  H1289   1.079   .     S
C1291  H1292   1.085   .     S
C1291  O1293   1.220   .     D
C1294  O1296   1.219   .     D
C1294  H1295   1.085   .     S
