data_str_m3_o1_o17_pcu_sym.189
_audit_creation_date              2020-01-03
_audit_creation_method            'Materials Studio'
_symmetry_space_group_name_H-M    'P1'
_symmetry_Int_Tables_number       1
_symmetry_cell_setting            triclinic
loop_
_symmetry_equiv_pos_as_xyz
  x,y,z
_cell_length_a                    32.1555
_cell_length_b                    29.4733
_cell_length_c                    30.0116
_cell_angle_alpha                 89.9427
_cell_angle_beta                  90.1299
_cell_angle_gamma                 90.0193
loop_
_atom_site_label
_atom_site_type_symbol
_atom_site_fract_x
_atom_site_fract_y
_atom_site_fract_z
_atom_site_U_iso_or_equiv
_atom_site_adp_type
_atom_site_occupancy
C1     C     0.08661   0.16666   0.24997   0.00000  Uiso   1.00
C2     C     0.24673   0.16667   0.25004   0.00000  Uiso   1.00
C3     C     0.13967   0.24408   0.02368   0.00000  Uiso   1.00
C4     C     0.19365   0.08918   0.47631   0.00000  Uiso   1.00
C5     C     0.02131   0.12612   0.25823   0.00000  Uiso   1.00
C6     C     0.31203   0.20722   0.24180   0.00000  Uiso   1.00
C7     C     0.31204   0.12613   0.25828   0.00000  Uiso   1.00
C8     C     0.02130   0.20721   0.24175   0.00000  Uiso   1.00
C9     C     0.29086   0.16668   0.25005   0.00000  Uiso   1.00
C10    C     0.04247   0.16666   0.24997   0.00000  Uiso   1.00
C11    C     0.19169   0.02399   0.27862   0.00000  Uiso   1.00
C12    C     0.14164   0.30935   0.22139   0.00000  Uiso   1.00
C13    C     0.14164   0.02402   0.22139   0.00000  Uiso   1.00
C14    C     0.19169   0.30931   0.27862   0.00000  Uiso   1.00
C15    C     0.16676   0.16669   0.16330   0.00000  Uiso   1.00
C16    C     0.16659   0.16664   0.33670   0.00000  Uiso   1.00
C17    C     0.17842   0.12772   0.40740   0.00000  Uiso   1.00
C18    C     0.15489   0.20557   0.09260   0.00000  Uiso   1.00
C19    C     0.16604   0.16654   0.38457   0.00000  Uiso   1.00
C20    C     0.16735   0.16678   0.11543   0.00000  Uiso   1.00
C21    C     0.15322   0.20531   0.40722   0.00000  Uiso   1.00
C22    C     0.18030   0.12806   0.09279   0.00000  Uiso   1.00
C23    C     0.15182   0.20568   0.45357   0.00000  Uiso   1.00
C24    C     0.18172   0.12766   0.04644   0.00000  Uiso   1.00
C25    C     0.16607   0.16664   0.47680   0.00000  Uiso   1.00
C26    C     0.16740   0.16668   0.02320   0.00000  Uiso   1.00
C27    C     0.17917   0.12755   0.45351   0.00000  Uiso   1.00
C28    C     0.15420   0.20574   0.04649   0.00000  Uiso   1.00
C29    C     0.13776   0.24430   0.47719   0.00000  Uiso   1.00
C30    C     0.19583   0.08904   0.02276   0.00000  Uiso   1.00
H31    H     0.18854   0.09803   0.38906   0.00000  Uiso   1.00
H32    H     0.14470   0.23524   0.11092   0.00000  Uiso   1.00
H33    H     0.14469   0.23509   0.38827   0.00000  Uiso   1.00
H34    H     0.18889   0.09833   0.11180   0.00000  Uiso   1.00
H35    H     0.03753   0.09461   0.26490   0.00000  Uiso   1.00
H36    H     0.29580   0.23873   0.23513   0.00000  Uiso   1.00
H37    H     0.29582   0.09463   0.26499   0.00000  Uiso   1.00
H38    H     0.03751   0.23871   0.23504   0.00000  Uiso   1.00
H39    H     0.21169   0.04220   0.30147   0.00000  Uiso   1.00
H40    H     0.12164   0.29113   0.19854   0.00000  Uiso   1.00
H41    H     0.12164   0.04227   0.19854   0.00000  Uiso   1.00
H42    H     0.21169   0.29107   0.30147   0.00000  Uiso   1.00
N43    N     0.16667   0.28573   0.25000   0.00000  Uiso   1.00
N44    N     0.16667   0.04760   0.25000   0.00000  Uiso   1.00
O45    O     0.10559   0.20487   0.25000   0.00000  Uiso   1.00
O46    O     0.22774   0.12846   0.25001   0.00000  Uiso   1.00
O47    O     0.22774   0.20487   0.25001   0.00000  Uiso   1.00
O48    O     0.10559   0.12846   0.25000   0.00000  Uiso   1.00
O49    O     0.16666   0.20489   0.18393   0.00000  Uiso   1.00
O50    O     0.16667   0.12844   0.31608   0.00000  Uiso   1.00
O51    O     0.16667   0.20489   0.31608   0.00000  Uiso   1.00
O52    O     0.16666   0.12844   0.18393   0.00000  Uiso   1.00
Zn53   Zn    0.16667   0.21771   0.25000   0.00000  Uiso   1.00
Zn54   Zn    0.16667   0.11563   0.25000   0.00000  Uiso   1.00
C55    C     0.11947   0.28456   0.45462   0.00000  Uiso   1.00
O56    O     0.13014   0.32275   0.46572   0.00000  Uiso   1.00
O57    O     0.08894   0.27887   0.42183   0.00000  Uiso   1.00
H58    H     0.07875   0.30881   0.40922   0.00000  Uiso   1.00
C59    C     0.21421   0.04863   0.04501   0.00000  Uiso   1.00
O60    O     0.24055   0.05329   0.07411   0.00000  Uiso   1.00
O61    O     0.20262   0.00512   0.03125   0.00000  Uiso   1.00
H62    H     0.21747   0.31366   0.04850   0.00000  Uiso   1.00
F63    F     0.12574   0.28071   0.04685   0.00000  Uiso   1.00
F64    F     0.20735   0.05247   0.45309   0.00000  Uiso   1.00
C65    C     0.41994   0.16666   0.24997   0.00000  Uiso   1.00
C66    C     0.58006   0.16667   0.25004   0.00000  Uiso   1.00
C67    C     0.47300   0.24408   0.02368   0.00000  Uiso   1.00
C68    C     0.52699   0.08918   0.47631   0.00000  Uiso   1.00
C69    C     0.35464   0.12612   0.25823   0.00000  Uiso   1.00
C70    C     0.64536   0.20722   0.24180   0.00000  Uiso   1.00
C71    C     0.64537   0.12613   0.25828   0.00000  Uiso   1.00
C72    C     0.35463   0.20721   0.24175   0.00000  Uiso   1.00
C73    C     0.62420   0.16668   0.25005   0.00000  Uiso   1.00
C74    C     0.37580   0.16666   0.24997   0.00000  Uiso   1.00
C75    C     0.52503   0.02399   0.27862   0.00000  Uiso   1.00
C76    C     0.47497   0.30935   0.22139   0.00000  Uiso   1.00
C77    C     0.47497   0.02402   0.22139   0.00000  Uiso   1.00
C78    C     0.52503   0.30931   0.27862   0.00000  Uiso   1.00
C79    C     0.50009   0.16669   0.16330   0.00000  Uiso   1.00
C80    C     0.49992   0.16664   0.33670   0.00000  Uiso   1.00
C81    C     0.51176   0.12772   0.40740   0.00000  Uiso   1.00
C82    C     0.48823   0.20557   0.09260   0.00000  Uiso   1.00
C83    C     0.49938   0.16654   0.38457   0.00000  Uiso   1.00
C84    C     0.50068   0.16678   0.11543   0.00000  Uiso   1.00
C85    C     0.48655   0.20531   0.40722   0.00000  Uiso   1.00
C86    C     0.51364   0.12806   0.09279   0.00000  Uiso   1.00
C87    C     0.48515   0.20568   0.45357   0.00000  Uiso   1.00
C88    C     0.51506   0.12766   0.04644   0.00000  Uiso   1.00
C89    C     0.49941   0.16664   0.47680   0.00000  Uiso   1.00
C90    C     0.50074   0.16668   0.02320   0.00000  Uiso   1.00
C91    C     0.51250   0.12755   0.45351   0.00000  Uiso   1.00
C92    C     0.48753   0.20574   0.04649   0.00000  Uiso   1.00
C93    C     0.47109   0.24430   0.47719   0.00000  Uiso   1.00
C94    C     0.52916   0.08904   0.02276   0.00000  Uiso   1.00
H95    H     0.52187   0.09803   0.38906   0.00000  Uiso   1.00
H96    H     0.47803   0.23524   0.11092   0.00000  Uiso   1.00
H97    H     0.47803   0.23509   0.38827   0.00000  Uiso   1.00
H98    H     0.52222   0.09833   0.11180   0.00000  Uiso   1.00
H99    H     0.37086   0.09461   0.26490   0.00000  Uiso   1.00
H100   H     0.62914   0.23873   0.23513   0.00000  Uiso   1.00
H101   H     0.62915   0.09463   0.26499   0.00000  Uiso   1.00
H102   H     0.37085   0.23871   0.23504   0.00000  Uiso   1.00
H103   H     0.54502   0.04220   0.30147   0.00000  Uiso   1.00
H104   H     0.45498   0.29113   0.19854   0.00000  Uiso   1.00
H105   H     0.45498   0.04227   0.19854   0.00000  Uiso   1.00
H106   H     0.54502   0.29107   0.30147   0.00000  Uiso   1.00
N107   N     0.50000   0.28573   0.25000   0.00000  Uiso   1.00
N108   N     0.50000   0.04760   0.25000   0.00000  Uiso   1.00
O109   O     0.43892   0.20487   0.25000   0.00000  Uiso   1.00
O110   O     0.56108   0.12846   0.25001   0.00000  Uiso   1.00
O111   O     0.56108   0.20487   0.25001   0.00000  Uiso   1.00
O112   O     0.43892   0.12846   0.25000   0.00000  Uiso   1.00
O113   O     0.49999   0.20489   0.18393   0.00000  Uiso   1.00
O114   O     0.50001   0.12844   0.31608   0.00000  Uiso   1.00
O115   O     0.50001   0.20489   0.31608   0.00000  Uiso   1.00
O116   O     0.49999   0.12844   0.18393   0.00000  Uiso   1.00
Zn117  Zn    0.50000   0.21771   0.25000   0.00000  Uiso   1.00
Zn118  Zn    0.50000   0.11563   0.25000   0.00000  Uiso   1.00
C119   C     0.45280   0.28456   0.45462   0.00000  Uiso   1.00
O120   O     0.46348   0.32275   0.46572   0.00000  Uiso   1.00
O121   O     0.42227   0.27887   0.42183   0.00000  Uiso   1.00
H122   H     0.41208   0.30881   0.40922   0.00000  Uiso   1.00
C123   C     0.54755   0.04863   0.04501   0.00000  Uiso   1.00
O124   O     0.57388   0.05329   0.07411   0.00000  Uiso   1.00
O125   O     0.53595   0.00512   0.03125   0.00000  Uiso   1.00
H126   H     0.55080   0.31366   0.04850   0.00000  Uiso   1.00
F127   F     0.45907   0.28071   0.04685   0.00000  Uiso   1.00
F128   F     0.54068   0.05247   0.45309   0.00000  Uiso   1.00
C129   C     0.75327   0.16666   0.24997   0.00000  Uiso   1.00
C130   C     0.91339   0.16667   0.25004   0.00000  Uiso   1.00
C131   C     0.80634   0.24408   0.02368   0.00000  Uiso   1.00
C132   C     0.86032   0.08918   0.47631   0.00000  Uiso   1.00
C133   C     0.68797   0.12612   0.25823   0.00000  Uiso   1.00
C134   C     0.97870   0.20722   0.24180   0.00000  Uiso   1.00
C135   C     0.97870   0.12613   0.25828   0.00000  Uiso   1.00
C136   C     0.68796   0.20721   0.24175   0.00000  Uiso   1.00
C137   C     0.95753   0.16668   0.25005   0.00000  Uiso   1.00
C138   C     0.70914   0.16666   0.24997   0.00000  Uiso   1.00
C139   C     0.85836   0.02399   0.27862   0.00000  Uiso   1.00
C140   C     0.80831   0.30935   0.22139   0.00000  Uiso   1.00
C141   C     0.80831   0.02402   0.22139   0.00000  Uiso   1.00
C142   C     0.85836   0.30931   0.27862   0.00000  Uiso   1.00
C143   C     0.83343   0.16669   0.16330   0.00000  Uiso   1.00
C144   C     0.83325   0.16664   0.33670   0.00000  Uiso   1.00
C145   C     0.84509   0.12772   0.40740   0.00000  Uiso   1.00
C146   C     0.82156   0.20557   0.09260   0.00000  Uiso   1.00
C147   C     0.83271   0.16654   0.38457   0.00000  Uiso   1.00
C148   C     0.83402   0.16678   0.11543   0.00000  Uiso   1.00
C149   C     0.81988   0.20531   0.40722   0.00000  Uiso   1.00
C150   C     0.84697   0.12806   0.09279   0.00000  Uiso   1.00
C151   C     0.81849   0.20568   0.45357   0.00000  Uiso   1.00
C152   C     0.84839   0.12766   0.04644   0.00000  Uiso   1.00
C153   C     0.83274   0.16664   0.47680   0.00000  Uiso   1.00
C154   C     0.83407   0.16668   0.02320   0.00000  Uiso   1.00
C155   C     0.84584   0.12755   0.45351   0.00000  Uiso   1.00
C156   C     0.82087   0.20574   0.04649   0.00000  Uiso   1.00
C157   C     0.80442   0.24430   0.47719   0.00000  Uiso   1.00
C158   C     0.86249   0.08904   0.02276   0.00000  Uiso   1.00
H159   H     0.85520   0.09803   0.38906   0.00000  Uiso   1.00
H160   H     0.81137   0.23524   0.11092   0.00000  Uiso   1.00
H161   H     0.81136   0.23509   0.38827   0.00000  Uiso   1.00
H162   H     0.85555   0.09833   0.11180   0.00000  Uiso   1.00
H163   H     0.70420   0.09461   0.26490   0.00000  Uiso   1.00
H164   H     0.96247   0.23873   0.23513   0.00000  Uiso   1.00
H165   H     0.96249   0.09463   0.26499   0.00000  Uiso   1.00
H166   H     0.70418   0.23871   0.23504   0.00000  Uiso   1.00
H167   H     0.87835   0.04220   0.30147   0.00000  Uiso   1.00
H168   H     0.78831   0.29113   0.19854   0.00000  Uiso   1.00
H169   H     0.78831   0.04227   0.19854   0.00000  Uiso   1.00
H170   H     0.87835   0.29107   0.30147   0.00000  Uiso   1.00
N171   N     0.83333   0.28573   0.25000   0.00000  Uiso   1.00
N172   N     0.83333   0.04760   0.25000   0.00000  Uiso   1.00
O173   O     0.77226   0.20487   0.25000   0.00000  Uiso   1.00
O174   O     0.89441   0.12846   0.25001   0.00000  Uiso   1.00
O175   O     0.89441   0.20487   0.25001   0.00000  Uiso   1.00
O176   O     0.77226   0.12846   0.25000   0.00000  Uiso   1.00
O177   O     0.83333   0.20489   0.18393   0.00000  Uiso   1.00
O178   O     0.83334   0.12844   0.31608   0.00000  Uiso   1.00
O179   O     0.83334   0.20489   0.31608   0.00000  Uiso   1.00
O180   O     0.83333   0.12844   0.18393   0.00000  Uiso   1.00
Zn181  Zn    0.83333   0.21771   0.25000   0.00000  Uiso   1.00
Zn182  Zn    0.83333   0.11563   0.25000   0.00000  Uiso   1.00
C183   C     0.78613   0.28456   0.45462   0.00000  Uiso   1.00
O184   O     0.79681   0.32275   0.46572   0.00000  Uiso   1.00
O185   O     0.75560   0.27887   0.42183   0.00000  Uiso   1.00
H186   H     0.74541   0.30881   0.40922   0.00000  Uiso   1.00
C187   C     0.88088   0.04863   0.04501   0.00000  Uiso   1.00
O188   O     0.90721   0.05329   0.07411   0.00000  Uiso   1.00
O189   O     0.86928   0.00512   0.03125   0.00000  Uiso   1.00
H190   H     0.88414   0.31366   0.04850   0.00000  Uiso   1.00
F191   F     0.79240   0.28071   0.04685   0.00000  Uiso   1.00
F192   F     0.87401   0.05247   0.45309   0.00000  Uiso   1.00
C193   C     0.08661   0.49999   0.24997   0.00000  Uiso   1.00
C194   C     0.24673   0.50000   0.25004   0.00000  Uiso   1.00
C195   C     0.13967   0.57741   0.02368   0.00000  Uiso   1.00
C196   C     0.19365   0.42252   0.47631   0.00000  Uiso   1.00
C197   C     0.02131   0.45945   0.25823   0.00000  Uiso   1.00
C198   C     0.31203   0.54055   0.24180   0.00000  Uiso   1.00
C199   C     0.31204   0.45946   0.25828   0.00000  Uiso   1.00
C200   C     0.02130   0.54054   0.24175   0.00000  Uiso   1.00
C201   C     0.29086   0.50001   0.25005   0.00000  Uiso   1.00
C202   C     0.04247   0.49999   0.24997   0.00000  Uiso   1.00
C203   C     0.19169   0.35732   0.27862   0.00000  Uiso   1.00
C204   C     0.14164   0.64268   0.22139   0.00000  Uiso   1.00
C205   C     0.14164   0.35735   0.22139   0.00000  Uiso   1.00
C206   C     0.19169   0.64265   0.27862   0.00000  Uiso   1.00
C207   C     0.16676   0.50002   0.16330   0.00000  Uiso   1.00
C208   C     0.16659   0.49998   0.33670   0.00000  Uiso   1.00
C209   C     0.17842   0.46105   0.40740   0.00000  Uiso   1.00
C210   C     0.15489   0.53891   0.09260   0.00000  Uiso   1.00
C211   C     0.16604   0.49988   0.38457   0.00000  Uiso   1.00
C212   C     0.16735   0.50012   0.11543   0.00000  Uiso   1.00
C213   C     0.15322   0.53864   0.40722   0.00000  Uiso   1.00
C214   C     0.18030   0.46139   0.09279   0.00000  Uiso   1.00
C215   C     0.15182   0.53901   0.45357   0.00000  Uiso   1.00
C216   C     0.18172   0.46100   0.04644   0.00000  Uiso   1.00
C217   C     0.16607   0.49998   0.47680   0.00000  Uiso   1.00
C218   C     0.16740   0.50001   0.02320   0.00000  Uiso   1.00
C219   C     0.17917   0.46089   0.45351   0.00000  Uiso   1.00
C220   C     0.15420   0.53907   0.04649   0.00000  Uiso   1.00
C221   C     0.13776   0.57763   0.47719   0.00000  Uiso   1.00
C222   C     0.19583   0.42237   0.02276   0.00000  Uiso   1.00
H223   H     0.18854   0.43136   0.38906   0.00000  Uiso   1.00
H224   H     0.14470   0.56857   0.11092   0.00000  Uiso   1.00
H225   H     0.14469   0.56843   0.38827   0.00000  Uiso   1.00
H226   H     0.18889   0.43167   0.11180   0.00000  Uiso   1.00
H227   H     0.03753   0.42794   0.26490   0.00000  Uiso   1.00
H228   H     0.29580   0.57206   0.23513   0.00000  Uiso   1.00
H229   H     0.29582   0.42796   0.26499   0.00000  Uiso   1.00
H230   H     0.03751   0.57204   0.23504   0.00000  Uiso   1.00
H231   H     0.21169   0.37554   0.30147   0.00000  Uiso   1.00
H232   H     0.12164   0.62446   0.19854   0.00000  Uiso   1.00
H233   H     0.12164   0.37560   0.19854   0.00000  Uiso   1.00
H234   H     0.21169   0.62440   0.30147   0.00000  Uiso   1.00
N235   N     0.16667   0.61907   0.25000   0.00000  Uiso   1.00
N236   N     0.16667   0.38093   0.25000   0.00000  Uiso   1.00
O237   O     0.10559   0.53821   0.25000   0.00000  Uiso   1.00
O238   O     0.22774   0.46179   0.25001   0.00000  Uiso   1.00
O239   O     0.22774   0.53821   0.25001   0.00000  Uiso   1.00
O240   O     0.10559   0.46179   0.25000   0.00000  Uiso   1.00
O241   O     0.16666   0.53823   0.18393   0.00000  Uiso   1.00
O242   O     0.16667   0.46177   0.31608   0.00000  Uiso   1.00
O243   O     0.16667   0.53823   0.31608   0.00000  Uiso   1.00
O244   O     0.16666   0.46177   0.18393   0.00000  Uiso   1.00
Zn245  Zn    0.16667   0.55104   0.25000   0.00000  Uiso   1.00
Zn246  Zn    0.16667   0.44896   0.25000   0.00000  Uiso   1.00
C247   C     0.11947   0.61790   0.45462   0.00000  Uiso   1.00
O248   O     0.13014   0.65609   0.46572   0.00000  Uiso   1.00
O249   O     0.08894   0.61220   0.42183   0.00000  Uiso   1.00
H250   H     0.07875   0.64215   0.40922   0.00000  Uiso   1.00
C251   C     0.21421   0.38196   0.04501   0.00000  Uiso   1.00
O252   O     0.24055   0.38663   0.07411   0.00000  Uiso   1.00
O253   O     0.20262   0.33845   0.03125   0.00000  Uiso   1.00
H254   H     0.21747   0.64700   0.04850   0.00000  Uiso   1.00
F255   F     0.12574   0.61404   0.04685   0.00000  Uiso   1.00
F256   F     0.20735   0.38580   0.45309   0.00000  Uiso   1.00
C257   C     0.41994   0.49999   0.24997   0.00000  Uiso   1.00
C258   C     0.58006   0.50000   0.25004   0.00000  Uiso   1.00
C259   C     0.47300   0.57741   0.02368   0.00000  Uiso   1.00
C260   C     0.52699   0.42252   0.47631   0.00000  Uiso   1.00
C261   C     0.35464   0.45945   0.25823   0.00000  Uiso   1.00
C262   C     0.64536   0.54055   0.24180   0.00000  Uiso   1.00
C263   C     0.64537   0.45946   0.25828   0.00000  Uiso   1.00
C264   C     0.35463   0.54054   0.24175   0.00000  Uiso   1.00
C265   C     0.62420   0.50001   0.25005   0.00000  Uiso   1.00
C266   C     0.37580   0.49999   0.24997   0.00000  Uiso   1.00
C267   C     0.52503   0.35732   0.27862   0.00000  Uiso   1.00
C268   C     0.47497   0.64268   0.22139   0.00000  Uiso   1.00
C269   C     0.47497   0.35735   0.22139   0.00000  Uiso   1.00
C270   C     0.52503   0.64265   0.27862   0.00000  Uiso   1.00
C271   C     0.50009   0.50002   0.16330   0.00000  Uiso   1.00
C272   C     0.49992   0.49998   0.33670   0.00000  Uiso   1.00
C273   C     0.51176   0.46105   0.40740   0.00000  Uiso   1.00
C274   C     0.48823   0.53891   0.09260   0.00000  Uiso   1.00
C275   C     0.49938   0.49988   0.38457   0.00000  Uiso   1.00
C276   C     0.50068   0.50012   0.11543   0.00000  Uiso   1.00
C277   C     0.48655   0.53864   0.40722   0.00000  Uiso   1.00
C278   C     0.51364   0.46139   0.09279   0.00000  Uiso   1.00
C279   C     0.48515   0.53901   0.45357   0.00000  Uiso   1.00
C280   C     0.51506   0.46100   0.04644   0.00000  Uiso   1.00
C281   C     0.49941   0.49998   0.47680   0.00000  Uiso   1.00
C282   C     0.50074   0.50001   0.02320   0.00000  Uiso   1.00
C283   C     0.51250   0.46089   0.45351   0.00000  Uiso   1.00
C284   C     0.48753   0.53907   0.04649   0.00000  Uiso   1.00
C285   C     0.47109   0.57763   0.47719   0.00000  Uiso   1.00
C286   C     0.52916   0.42237   0.02276   0.00000  Uiso   1.00
H287   H     0.52187   0.43136   0.38906   0.00000  Uiso   1.00
H288   H     0.47803   0.56857   0.11092   0.00000  Uiso   1.00
H289   H     0.47803   0.56843   0.38827   0.00000  Uiso   1.00
H290   H     0.52222   0.43167   0.11180   0.00000  Uiso   1.00
H291   H     0.37086   0.42794   0.26490   0.00000  Uiso   1.00
H292   H     0.62914   0.57206   0.23513   0.00000  Uiso   1.00
H293   H     0.62915   0.42796   0.26499   0.00000  Uiso   1.00
H294   H     0.37085   0.57204   0.23504   0.00000  Uiso   1.00
H295   H     0.54502   0.37554   0.30147   0.00000  Uiso   1.00
H296   H     0.45498   0.62446   0.19854   0.00000  Uiso   1.00
H297   H     0.45498   0.37560   0.19854   0.00000  Uiso   1.00
H298   H     0.54502   0.62440   0.30147   0.00000  Uiso   1.00
N299   N     0.50000   0.61907   0.25000   0.00000  Uiso   1.00
N300   N     0.50000   0.38093   0.25000   0.00000  Uiso   1.00
O301   O     0.43892   0.53821   0.25000   0.00000  Uiso   1.00
O302   O     0.56108   0.46179   0.25001   0.00000  Uiso   1.00
O303   O     0.56108   0.53821   0.25001   0.00000  Uiso   1.00
O304   O     0.43892   0.46179   0.25000   0.00000  Uiso   1.00
O305   O     0.49999   0.53823   0.18393   0.00000  Uiso   1.00
O306   O     0.50001   0.46177   0.31608   0.00000  Uiso   1.00
O307   O     0.50001   0.53823   0.31608   0.00000  Uiso   1.00
O308   O     0.49999   0.46177   0.18393   0.00000  Uiso   1.00
Zn309  Zn    0.50000   0.55104   0.25000   0.00000  Uiso   1.00
Zn310  Zn    0.50000   0.44896   0.25000   0.00000  Uiso   1.00
C311   C     0.45280   0.61790   0.45462   0.00000  Uiso   1.00
O312   O     0.46348   0.65609   0.46572   0.00000  Uiso   1.00
O313   O     0.42227   0.61220   0.42183   0.00000  Uiso   1.00
H314   H     0.41208   0.64215   0.40922   0.00000  Uiso   1.00
C315   C     0.54755   0.38196   0.04501   0.00000  Uiso   1.00
O316   O     0.57388   0.38663   0.07411   0.00000  Uiso   1.00
O317   O     0.53595   0.33845   0.03125   0.00000  Uiso   1.00
H318   H     0.55080   0.64700   0.04850   0.00000  Uiso   1.00
F319   F     0.45907   0.61404   0.04685   0.00000  Uiso   1.00
F320   F     0.54068   0.38580   0.45309   0.00000  Uiso   1.00
C321   C     0.75327   0.49999   0.24997   0.00000  Uiso   1.00
C322   C     0.91339   0.50000   0.25004   0.00000  Uiso   1.00
C323   C     0.80634   0.57741   0.02368   0.00000  Uiso   1.00
C324   C     0.86032   0.42252   0.47631   0.00000  Uiso   1.00
C325   C     0.68797   0.45945   0.25823   0.00000  Uiso   1.00
C326   C     0.97870   0.54055   0.24180   0.00000  Uiso   1.00
C327   C     0.97870   0.45946   0.25828   0.00000  Uiso   1.00
C328   C     0.68796   0.54054   0.24175   0.00000  Uiso   1.00
C329   C     0.95753   0.50001   0.25005   0.00000  Uiso   1.00
C330   C     0.70914   0.49999   0.24997   0.00000  Uiso   1.00
C331   C     0.85836   0.35732   0.27862   0.00000  Uiso   1.00
C332   C     0.80831   0.64268   0.22139   0.00000  Uiso   1.00
C333   C     0.80831   0.35735   0.22139   0.00000  Uiso   1.00
C334   C     0.85836   0.64265   0.27862   0.00000  Uiso   1.00
C335   C     0.83343   0.50002   0.16330   0.00000  Uiso   1.00
C336   C     0.83325   0.49998   0.33670   0.00000  Uiso   1.00
C337   C     0.84509   0.46105   0.40740   0.00000  Uiso   1.00
C338   C     0.82156   0.53891   0.09260   0.00000  Uiso   1.00
C339   C     0.83271   0.49988   0.38457   0.00000  Uiso   1.00
C340   C     0.83402   0.50012   0.11543   0.00000  Uiso   1.00
C341   C     0.81988   0.53864   0.40722   0.00000  Uiso   1.00
C342   C     0.84697   0.46139   0.09279   0.00000  Uiso   1.00
C343   C     0.81849   0.53901   0.45357   0.00000  Uiso   1.00
C344   C     0.84839   0.46100   0.04644   0.00000  Uiso   1.00
C345   C     0.83274   0.49998   0.47680   0.00000  Uiso   1.00
C346   C     0.83407   0.50001   0.02320   0.00000  Uiso   1.00
C347   C     0.84584   0.46089   0.45351   0.00000  Uiso   1.00
C348   C     0.82087   0.53907   0.04649   0.00000  Uiso   1.00
C349   C     0.80442   0.57763   0.47719   0.00000  Uiso   1.00
C350   C     0.86249   0.42237   0.02276   0.00000  Uiso   1.00
H351   H     0.85520   0.43136   0.38906   0.00000  Uiso   1.00
H352   H     0.81137   0.56857   0.11092   0.00000  Uiso   1.00
H353   H     0.81136   0.56843   0.38827   0.00000  Uiso   1.00
H354   H     0.85555   0.43167   0.11180   0.00000  Uiso   1.00
H355   H     0.70420   0.42794   0.26490   0.00000  Uiso   1.00
H356   H     0.96247   0.57206   0.23513   0.00000  Uiso   1.00
H357   H     0.96249   0.42796   0.26499   0.00000  Uiso   1.00
H358   H     0.70418   0.57204   0.23504   0.00000  Uiso   1.00
H359   H     0.87835   0.37554   0.30147   0.00000  Uiso   1.00
H360   H     0.78831   0.62446   0.19854   0.00000  Uiso   1.00
H361   H     0.78831   0.37560   0.19854   0.00000  Uiso   1.00
H362   H     0.87835   0.62440   0.30147   0.00000  Uiso   1.00
N363   N     0.83333   0.61907   0.25000   0.00000  Uiso   1.00
N364   N     0.83333   0.38093   0.25000   0.00000  Uiso   1.00
O365   O     0.77226   0.53821   0.25000   0.00000  Uiso   1.00
O366   O     0.89441   0.46179   0.25001   0.00000  Uiso   1.00
O367   O     0.89441   0.53821   0.25001   0.00000  Uiso   1.00
O368   O     0.77226   0.46179   0.25000   0.00000  Uiso   1.00
O369   O     0.83333   0.53823   0.18393   0.00000  Uiso   1.00
O370   O     0.83334   0.46177   0.31608   0.00000  Uiso   1.00
O371   O     0.83334   0.53823   0.31608   0.00000  Uiso   1.00
O372   O     0.83333   0.46177   0.18393   0.00000  Uiso   1.00
Zn373  Zn    0.83333   0.55104   0.25000   0.00000  Uiso   1.00
Zn374  Zn    0.83333   0.44896   0.25000   0.00000  Uiso   1.00
C375   C     0.78613   0.61790   0.45462   0.00000  Uiso   1.00
O376   O     0.79681   0.65609   0.46572   0.00000  Uiso   1.00
O377   O     0.75560   0.61220   0.42183   0.00000  Uiso   1.00
H378   H     0.74541   0.64215   0.40922   0.00000  Uiso   1.00
C379   C     0.88088   0.38196   0.04501   0.00000  Uiso   1.00
O380   O     0.90721   0.38663   0.07411   0.00000  Uiso   1.00
O381   O     0.86928   0.33845   0.03125   0.00000  Uiso   1.00
H382   H     0.88414   0.64700   0.04850   0.00000  Uiso   1.00
F383   F     0.79240   0.61404   0.04685   0.00000  Uiso   1.00
F384   F     0.87401   0.38580   0.45309   0.00000  Uiso   1.00
C385   C     0.08661   0.83333   0.24997   0.00000  Uiso   1.00
C386   C     0.24673   0.83334   0.25004   0.00000  Uiso   1.00
C387   C     0.13967   0.91074   0.02368   0.00000  Uiso   1.00
C388   C     0.19365   0.75585   0.47631   0.00000  Uiso   1.00
C389   C     0.02131   0.79279   0.25823   0.00000  Uiso   1.00
C390   C     0.31203   0.87388   0.24180   0.00000  Uiso   1.00
C391   C     0.31204   0.79280   0.25828   0.00000  Uiso   1.00
C392   C     0.02130   0.87387   0.24175   0.00000  Uiso   1.00
C393   C     0.29086   0.83334   0.25005   0.00000  Uiso   1.00
C394   C     0.04247   0.83333   0.24997   0.00000  Uiso   1.00
C395   C     0.19169   0.69065   0.27862   0.00000  Uiso   1.00
C396   C     0.14164   0.97601   0.22139   0.00000  Uiso   1.00
C397   C     0.14164   0.69069   0.22139   0.00000  Uiso   1.00
C398   C     0.19169   0.97598   0.27862   0.00000  Uiso   1.00
C399   C     0.16676   0.83336   0.16330   0.00000  Uiso   1.00
C400   C     0.16659   0.83331   0.33670   0.00000  Uiso   1.00
C401   C     0.17842   0.79438   0.40740   0.00000  Uiso   1.00
C402   C     0.15489   0.87224   0.09260   0.00000  Uiso   1.00
C403   C     0.16604   0.83321   0.38457   0.00000  Uiso   1.00
C404   C     0.16735   0.83345   0.11543   0.00000  Uiso   1.00
C405   C     0.15322   0.87197   0.40722   0.00000  Uiso   1.00
C406   C     0.18030   0.79473   0.09279   0.00000  Uiso   1.00
C407   C     0.15182   0.87234   0.45357   0.00000  Uiso   1.00
C408   C     0.18172   0.79433   0.04644   0.00000  Uiso   1.00
C409   C     0.16607   0.83331   0.47680   0.00000  Uiso   1.00
C410   C     0.16740   0.83334   0.02320   0.00000  Uiso   1.00
C411   C     0.17917   0.79422   0.45351   0.00000  Uiso   1.00
C412   C     0.15420   0.87240   0.04649   0.00000  Uiso   1.00
C413   C     0.13776   0.91097   0.47719   0.00000  Uiso   1.00
C414   C     0.19583   0.75571   0.02276   0.00000  Uiso   1.00
H415   H     0.18854   0.76469   0.38906   0.00000  Uiso   1.00
H416   H     0.14470   0.90190   0.11092   0.00000  Uiso   1.00
H417   H     0.14469   0.90176   0.38827   0.00000  Uiso   1.00
H418   H     0.18889   0.76500   0.11180   0.00000  Uiso   1.00
H419   H     0.03753   0.76128   0.26490   0.00000  Uiso   1.00
H420   H     0.29580   0.90539   0.23513   0.00000  Uiso   1.00
H421   H     0.29582   0.76129   0.26499   0.00000  Uiso   1.00
H422   H     0.03751   0.90538   0.23504   0.00000  Uiso   1.00
H423   H     0.21169   0.70887   0.30147   0.00000  Uiso   1.00
H424   H     0.12164   0.95780   0.19854   0.00000  Uiso   1.00
H425   H     0.12164   0.70893   0.19854   0.00000  Uiso   1.00
H426   H     0.21169   0.95773   0.30147   0.00000  Uiso   1.00
N427   N     0.16667   0.95240   0.25000   0.00000  Uiso   1.00
N428   N     0.16667   0.71427   0.25000   0.00000  Uiso   1.00
O429   O     0.10559   0.87154   0.25000   0.00000  Uiso   1.00
O430   O     0.22774   0.79513   0.25001   0.00000  Uiso   1.00
O431   O     0.22774   0.87154   0.25001   0.00000  Uiso   1.00
O432   O     0.10559   0.79513   0.25000   0.00000  Uiso   1.00
O433   O     0.16666   0.87156   0.18393   0.00000  Uiso   1.00
O434   O     0.16667   0.79511   0.31608   0.00000  Uiso   1.00
O435   O     0.16667   0.87156   0.31608   0.00000  Uiso   1.00
O436   O     0.16666   0.79511   0.18393   0.00000  Uiso   1.00
Zn437  Zn    0.16667   0.88437   0.25000   0.00000  Uiso   1.00
Zn438  Zn    0.16667   0.78229   0.25000   0.00000  Uiso   1.00
C439   C     0.11947   0.95123   0.45462   0.00000  Uiso   1.00
O440   O     0.13014   0.98942   0.46572   0.00000  Uiso   1.00
O441   O     0.08894   0.94554   0.42183   0.00000  Uiso   1.00
H442   H     0.07875   0.97548   0.40922   0.00000  Uiso   1.00
C443   C     0.21421   0.71530   0.04501   0.00000  Uiso   1.00
O444   O     0.24055   0.71996   0.07411   0.00000  Uiso   1.00
O445   O     0.20262   0.67178   0.03125   0.00000  Uiso   1.00
H446   H     0.21747   0.98033   0.04850   0.00000  Uiso   1.00
F447   F     0.12574   0.94737   0.04685   0.00000  Uiso   1.00
F448   F     0.20735   0.71914   0.45309   0.00000  Uiso   1.00
C449   C     0.41994   0.83333   0.24997   0.00000  Uiso   1.00
C450   C     0.58006   0.83334   0.25004   0.00000  Uiso   1.00
C451   C     0.47300   0.91074   0.02368   0.00000  Uiso   1.00
C452   C     0.52699   0.75585   0.47631   0.00000  Uiso   1.00
C453   C     0.35464   0.79279   0.25823   0.00000  Uiso   1.00
C454   C     0.64536   0.87388   0.24180   0.00000  Uiso   1.00
C455   C     0.64537   0.79280   0.25828   0.00000  Uiso   1.00
C456   C     0.35463   0.87387   0.24175   0.00000  Uiso   1.00
C457   C     0.62420   0.83334   0.25005   0.00000  Uiso   1.00
C458   C     0.37580   0.83333   0.24997   0.00000  Uiso   1.00
C459   C     0.52503   0.69065   0.27862   0.00000  Uiso   1.00
C460   C     0.47497   0.97601   0.22139   0.00000  Uiso   1.00
C461   C     0.47497   0.69069   0.22139   0.00000  Uiso   1.00
C462   C     0.52503   0.97598   0.27862   0.00000  Uiso   1.00
C463   C     0.50009   0.83336   0.16330   0.00000  Uiso   1.00
C464   C     0.49992   0.83331   0.33670   0.00000  Uiso   1.00
C465   C     0.51176   0.79438   0.40740   0.00000  Uiso   1.00
C466   C     0.48823   0.87224   0.09260   0.00000  Uiso   1.00
C467   C     0.49938   0.83321   0.38457   0.00000  Uiso   1.00
C468   C     0.50068   0.83345   0.11543   0.00000  Uiso   1.00
C469   C     0.48655   0.87197   0.40722   0.00000  Uiso   1.00
C470   C     0.51364   0.79473   0.09279   0.00000  Uiso   1.00
C471   C     0.48515   0.87234   0.45357   0.00000  Uiso   1.00
C472   C     0.51506   0.79433   0.04644   0.00000  Uiso   1.00
C473   C     0.49941   0.83331   0.47680   0.00000  Uiso   1.00
C474   C     0.50074   0.83334   0.02320   0.00000  Uiso   1.00
C475   C     0.51250   0.79422   0.45351   0.00000  Uiso   1.00
C476   C     0.48753   0.87240   0.04649   0.00000  Uiso   1.00
C477   C     0.47109   0.91097   0.47719   0.00000  Uiso   1.00
C478   C     0.52916   0.75571   0.02276   0.00000  Uiso   1.00
H479   H     0.52187   0.76469   0.38906   0.00000  Uiso   1.00
H480   H     0.47803   0.90190   0.11092   0.00000  Uiso   1.00
H481   H     0.47803   0.90176   0.38827   0.00000  Uiso   1.00
H482   H     0.52222   0.76500   0.11180   0.00000  Uiso   1.00
H483   H     0.37086   0.76128   0.26490   0.00000  Uiso   1.00
H484   H     0.62914   0.90539   0.23513   0.00000  Uiso   1.00
H485   H     0.62915   0.76129   0.26499   0.00000  Uiso   1.00
H486   H     0.37085   0.90538   0.23504   0.00000  Uiso   1.00
H487   H     0.54502   0.70887   0.30147   0.00000  Uiso   1.00
H488   H     0.45498   0.95780   0.19854   0.00000  Uiso   1.00
H489   H     0.45498   0.70893   0.19854   0.00000  Uiso   1.00
H490   H     0.54502   0.95773   0.30147   0.00000  Uiso   1.00
N491   N     0.50000   0.95240   0.25000   0.00000  Uiso   1.00
N492   N     0.50000   0.71427   0.25000   0.00000  Uiso   1.00
O493   O     0.43892   0.87154   0.25000   0.00000  Uiso   1.00
O494   O     0.56108   0.79513   0.25001   0.00000  Uiso   1.00
O495   O     0.56108   0.87154   0.25001   0.00000  Uiso   1.00
O496   O     0.43892   0.79513   0.25000   0.00000  Uiso   1.00
O497   O     0.49999   0.87156   0.18393   0.00000  Uiso   1.00
O498   O     0.50001   0.79511   0.31608   0.00000  Uiso   1.00
O499   O     0.50001   0.87156   0.31608   0.00000  Uiso   1.00
O500   O     0.49999   0.79511   0.18393   0.00000  Uiso   1.00
Zn501  Zn    0.50000   0.88437   0.25000   0.00000  Uiso   1.00
Zn502  Zn    0.50000   0.78229   0.25000   0.00000  Uiso   1.00
C503   C     0.45280   0.95123   0.45462   0.00000  Uiso   1.00
O504   O     0.46348   0.98942   0.46572   0.00000  Uiso   1.00
O505   O     0.42227   0.94554   0.42183   0.00000  Uiso   1.00
H506   H     0.41208   0.97548   0.40922   0.00000  Uiso   1.00
C507   C     0.54755   0.71530   0.04501   0.00000  Uiso   1.00
O508   O     0.57388   0.71996   0.07411   0.00000  Uiso   1.00
O509   O     0.53595   0.67178   0.03125   0.00000  Uiso   1.00
H510   H     0.55080   0.98033   0.04850   0.00000  Uiso   1.00
F511   F     0.45907   0.94737   0.04685   0.00000  Uiso   1.00
F512   F     0.54068   0.71914   0.45309   0.00000  Uiso   1.00
C513   C     0.75327   0.83333   0.24997   0.00000  Uiso   1.00
C514   C     0.91339   0.83334   0.25004   0.00000  Uiso   1.00
C515   C     0.80634   0.91074   0.02368   0.00000  Uiso   1.00
C516   C     0.86032   0.75585   0.47631   0.00000  Uiso   1.00
C517   C     0.68797   0.79279   0.25823   0.00000  Uiso   1.00
C518   C     0.97870   0.87388   0.24180   0.00000  Uiso   1.00
C519   C     0.97870   0.79280   0.25828   0.00000  Uiso   1.00
C520   C     0.68796   0.87387   0.24175   0.00000  Uiso   1.00
C521   C     0.95753   0.83334   0.25005   0.00000  Uiso   1.00
C522   C     0.70914   0.83333   0.24997   0.00000  Uiso   1.00
C523   C     0.85836   0.69065   0.27862   0.00000  Uiso   1.00
C524   C     0.80831   0.97601   0.22139   0.00000  Uiso   1.00
C525   C     0.80831   0.69069   0.22139   0.00000  Uiso   1.00
C526   C     0.85836   0.97598   0.27862   0.00000  Uiso   1.00
C527   C     0.83343   0.83336   0.16330   0.00000  Uiso   1.00
C528   C     0.83325   0.83331   0.33670   0.00000  Uiso   1.00
C529   C     0.84509   0.79438   0.40740   0.00000  Uiso   1.00
C530   C     0.82156   0.87224   0.09260   0.00000  Uiso   1.00
C531   C     0.83271   0.83321   0.38457   0.00000  Uiso   1.00
C532   C     0.83402   0.83345   0.11543   0.00000  Uiso   1.00
C533   C     0.81988   0.87197   0.40722   0.00000  Uiso   1.00
C534   C     0.84697   0.79473   0.09279   0.00000  Uiso   1.00
C535   C     0.81849   0.87234   0.45357   0.00000  Uiso   1.00
C536   C     0.84839   0.79433   0.04644   0.00000  Uiso   1.00
C537   C     0.83274   0.83331   0.47680   0.00000  Uiso   1.00
C538   C     0.83407   0.83334   0.02320   0.00000  Uiso   1.00
C539   C     0.84584   0.79422   0.45351   0.00000  Uiso   1.00
C540   C     0.82087   0.87240   0.04649   0.00000  Uiso   1.00
C541   C     0.80442   0.91097   0.47719   0.00000  Uiso   1.00
C542   C     0.86249   0.75571   0.02276   0.00000  Uiso   1.00
H543   H     0.85520   0.76469   0.38906   0.00000  Uiso   1.00
H544   H     0.81137   0.90190   0.11092   0.00000  Uiso   1.00
H545   H     0.81136   0.90176   0.38827   0.00000  Uiso   1.00
H546   H     0.85555   0.76500   0.11180   0.00000  Uiso   1.00
H547   H     0.70420   0.76128   0.26490   0.00000  Uiso   1.00
H548   H     0.96247   0.90539   0.23513   0.00000  Uiso   1.00
H549   H     0.96249   0.76129   0.26499   0.00000  Uiso   1.00
H550   H     0.70418   0.90538   0.23504   0.00000  Uiso   1.00
H551   H     0.87835   0.70887   0.30147   0.00000  Uiso   1.00
H552   H     0.78831   0.95780   0.19854   0.00000  Uiso   1.00
H553   H     0.78831   0.70893   0.19854   0.00000  Uiso   1.00
H554   H     0.87835   0.95773   0.30147   0.00000  Uiso   1.00
N555   N     0.83333   0.95240   0.25000   0.00000  Uiso   1.00
N556   N     0.83333   0.71427   0.25000   0.00000  Uiso   1.00
O557   O     0.77226   0.87154   0.25000   0.00000  Uiso   1.00
O558   O     0.89441   0.79513   0.25001   0.00000  Uiso   1.00
O559   O     0.89441   0.87154   0.25001   0.00000  Uiso   1.00
O560   O     0.77226   0.79513   0.25000   0.00000  Uiso   1.00
O561   O     0.83333   0.87156   0.18393   0.00000  Uiso   1.00
O562   O     0.83334   0.79511   0.31608   0.00000  Uiso   1.00
O563   O     0.83334   0.87156   0.31608   0.00000  Uiso   1.00
O564   O     0.83333   0.79511   0.18393   0.00000  Uiso   1.00
Zn565  Zn    0.83333   0.88437   0.25000   0.00000  Uiso   1.00
Zn566  Zn    0.83333   0.78229   0.25000   0.00000  Uiso   1.00
C567   C     0.78613   0.95123   0.45462   0.00000  Uiso   1.00
O568   O     0.79681   0.98942   0.46572   0.00000  Uiso   1.00
O569   O     0.75560   0.94554   0.42183   0.00000  Uiso   1.00
H570   H     0.74541   0.97548   0.40922   0.00000  Uiso   1.00
C571   C     0.88088   0.71530   0.04501   0.00000  Uiso   1.00
O572   O     0.90721   0.71996   0.07411   0.00000  Uiso   1.00
O573   O     0.86928   0.67178   0.03125   0.00000  Uiso   1.00
H574   H     0.88414   0.98033   0.04850   0.00000  Uiso   1.00
F575   F     0.79240   0.94737   0.04685   0.00000  Uiso   1.00
F576   F     0.87401   0.71914   0.45309   0.00000  Uiso   1.00
C577   C     0.08661   0.16666   0.74997   0.00000  Uiso   1.00
C578   C     0.24673   0.16667   0.75004   0.00000  Uiso   1.00
C579   C     0.13967   0.24408   0.52368   0.00000  Uiso   1.00
C580   C     0.19365   0.08918   0.97631   0.00000  Uiso   1.00
C581   C     0.02131   0.12612   0.75823   0.00000  Uiso   1.00
C582   C     0.31203   0.20722   0.74180   0.00000  Uiso   1.00
C583   C     0.31204   0.12613   0.75828   0.00000  Uiso   1.00
C584   C     0.02130   0.20721   0.74175   0.00000  Uiso   1.00
C585   C     0.29086   0.16668   0.75005   0.00000  Uiso   1.00
C586   C     0.04247   0.16666   0.74997   0.00000  Uiso   1.00
C587   C     0.19169   0.02399   0.77862   0.00000  Uiso   1.00
C588   C     0.14164   0.30935   0.72139   0.00000  Uiso   1.00
C589   C     0.14164   0.02402   0.72139   0.00000  Uiso   1.00
C590   C     0.19169   0.30931   0.77862   0.00000  Uiso   1.00
C591   C     0.16676   0.16669   0.66330   0.00000  Uiso   1.00
C592   C     0.16659   0.16664   0.83670   0.00000  Uiso   1.00
C593   C     0.17842   0.12772   0.90740   0.00000  Uiso   1.00
C594   C     0.15489   0.20557   0.59260   0.00000  Uiso   1.00
C595   C     0.16604   0.16654   0.88457   0.00000  Uiso   1.00
C596   C     0.16735   0.16678   0.61543   0.00000  Uiso   1.00
C597   C     0.15322   0.20531   0.90722   0.00000  Uiso   1.00
C598   C     0.18030   0.12806   0.59279   0.00000  Uiso   1.00
C599   C     0.15182   0.20568   0.95357   0.00000  Uiso   1.00
C600   C     0.18172   0.12766   0.54644   0.00000  Uiso   1.00
C601   C     0.16607   0.16664   0.97680   0.00000  Uiso   1.00
C602   C     0.16740   0.16668   0.52320   0.00000  Uiso   1.00
C603   C     0.17917   0.12755   0.95351   0.00000  Uiso   1.00
C604   C     0.15420   0.20574   0.54649   0.00000  Uiso   1.00
C605   C     0.13776   0.24430   0.97719   0.00000  Uiso   1.00
C606   C     0.19583   0.08904   0.52276   0.00000  Uiso   1.00
H607   H     0.18854   0.09803   0.88906   0.00000  Uiso   1.00
H608   H     0.14470   0.23524   0.61092   0.00000  Uiso   1.00
H609   H     0.14469   0.23509   0.88827   0.00000  Uiso   1.00
H610   H     0.18889   0.09833   0.61180   0.00000  Uiso   1.00
H611   H     0.03753   0.09461   0.76490   0.00000  Uiso   1.00
H612   H     0.29580   0.23873   0.73513   0.00000  Uiso   1.00
H613   H     0.29582   0.09463   0.76499   0.00000  Uiso   1.00
H614   H     0.03751   0.23871   0.73504   0.00000  Uiso   1.00
H615   H     0.21169   0.04220   0.80147   0.00000  Uiso   1.00
H616   H     0.12164   0.29113   0.69854   0.00000  Uiso   1.00
H617   H     0.12164   0.04227   0.69854   0.00000  Uiso   1.00
H618   H     0.21169   0.29107   0.80147   0.00000  Uiso   1.00
N619   N     0.16667   0.28573   0.75000   0.00000  Uiso   1.00
N620   N     0.16667   0.04760   0.75000   0.00000  Uiso   1.00
O621   O     0.10559   0.20487   0.75000   0.00000  Uiso   1.00
O622   O     0.22774   0.12846   0.75001   0.00000  Uiso   1.00
O623   O     0.22774   0.20487   0.75001   0.00000  Uiso   1.00
O624   O     0.10559   0.12846   0.75000   0.00000  Uiso   1.00
O625   O     0.16666   0.20489   0.68393   0.00000  Uiso   1.00
O626   O     0.16667   0.12844   0.81608   0.00000  Uiso   1.00
O627   O     0.16667   0.20489   0.81608   0.00000  Uiso   1.00
O628   O     0.16666   0.12844   0.68393   0.00000  Uiso   1.00
Zn629  Zn    0.16667   0.21771   0.75000   0.00000  Uiso   1.00
Zn630  Zn    0.16667   0.11563   0.75000   0.00000  Uiso   1.00
C631   C     0.11947   0.28456   0.95462   0.00000  Uiso   1.00
O632   O     0.13014   0.32275   0.96572   0.00000  Uiso   1.00
O633   O     0.08894   0.27887   0.92183   0.00000  Uiso   1.00
H634   H     0.07875   0.30881   0.90922   0.00000  Uiso   1.00
C635   C     0.21421   0.04863   0.54501   0.00000  Uiso   1.00
O636   O     0.24055   0.05329   0.57411   0.00000  Uiso   1.00
O637   O     0.20262   0.00512   0.53125   0.00000  Uiso   1.00
H638   H     0.21747   0.31366   0.54850   0.00000  Uiso   1.00
F639   F     0.12574   0.28071   0.54685   0.00000  Uiso   1.00
F640   F     0.20735   0.05247   0.95309   0.00000  Uiso   1.00
C641   C     0.41994   0.16666   0.74997   0.00000  Uiso   1.00
C642   C     0.58006   0.16667   0.75004   0.00000  Uiso   1.00
C643   C     0.47300   0.24408   0.52368   0.00000  Uiso   1.00
C644   C     0.52699   0.08918   0.97631   0.00000  Uiso   1.00
C645   C     0.35464   0.12612   0.75823   0.00000  Uiso   1.00
C646   C     0.64536   0.20722   0.74180   0.00000  Uiso   1.00
C647   C     0.64537   0.12613   0.75828   0.00000  Uiso   1.00
C648   C     0.35463   0.20721   0.74175   0.00000  Uiso   1.00
C649   C     0.62420   0.16668   0.75005   0.00000  Uiso   1.00
C650   C     0.37580   0.16666   0.74997   0.00000  Uiso   1.00
C651   C     0.52503   0.02399   0.77862   0.00000  Uiso   1.00
C652   C     0.47497   0.30935   0.72139   0.00000  Uiso   1.00
C653   C     0.47497   0.02402   0.72139   0.00000  Uiso   1.00
C654   C     0.52503   0.30931   0.77862   0.00000  Uiso   1.00
C655   C     0.50009   0.16669   0.66330   0.00000  Uiso   1.00
C656   C     0.49992   0.16664   0.83670   0.00000  Uiso   1.00
C657   C     0.51176   0.12772   0.90740   0.00000  Uiso   1.00
C658   C     0.48823   0.20557   0.59260   0.00000  Uiso   1.00
C659   C     0.49938   0.16654   0.88457   0.00000  Uiso   1.00
C660   C     0.50068   0.16678   0.61543   0.00000  Uiso   1.00
C661   C     0.48655   0.20531   0.90722   0.00000  Uiso   1.00
C662   C     0.51364   0.12806   0.59279   0.00000  Uiso   1.00
C663   C     0.48515   0.20568   0.95357   0.00000  Uiso   1.00
C664   C     0.51506   0.12766   0.54644   0.00000  Uiso   1.00
C665   C     0.49941   0.16664   0.97680   0.00000  Uiso   1.00
C666   C     0.50074   0.16668   0.52320   0.00000  Uiso   1.00
C667   C     0.51250   0.12755   0.95351   0.00000  Uiso   1.00
C668   C     0.48753   0.20574   0.54649   0.00000  Uiso   1.00
C669   C     0.47109   0.24430   0.97719   0.00000  Uiso   1.00
C670   C     0.52916   0.08904   0.52276   0.00000  Uiso   1.00
H671   H     0.52187   0.09803   0.88906   0.00000  Uiso   1.00
H672   H     0.47803   0.23524   0.61092   0.00000  Uiso   1.00
H673   H     0.47803   0.23509   0.88827   0.00000  Uiso   1.00
H674   H     0.52222   0.09833   0.61180   0.00000  Uiso   1.00
H675   H     0.37086   0.09461   0.76490   0.00000  Uiso   1.00
H676   H     0.62914   0.23873   0.73513   0.00000  Uiso   1.00
H677   H     0.62915   0.09463   0.76499   0.00000  Uiso   1.00
H678   H     0.37085   0.23871   0.73504   0.00000  Uiso   1.00
H679   H     0.54502   0.04220   0.80147   0.00000  Uiso   1.00
H680   H     0.45498   0.29113   0.69854   0.00000  Uiso   1.00
H681   H     0.45498   0.04227   0.69854   0.00000  Uiso   1.00
H682   H     0.54502   0.29107   0.80147   0.00000  Uiso   1.00
N683   N     0.50000   0.28573   0.75000   0.00000  Uiso   1.00
N684   N     0.50000   0.04760   0.75000   0.00000  Uiso   1.00
O685   O     0.43892   0.20487   0.75000   0.00000  Uiso   1.00
O686   O     0.56108   0.12846   0.75001   0.00000  Uiso   1.00
O687   O     0.56108   0.20487   0.75001   0.00000  Uiso   1.00
O688   O     0.43892   0.12846   0.75000   0.00000  Uiso   1.00
O689   O     0.49999   0.20489   0.68393   0.00000  Uiso   1.00
O690   O     0.50001   0.12844   0.81608   0.00000  Uiso   1.00
O691   O     0.50001   0.20489   0.81608   0.00000  Uiso   1.00
O692   O     0.49999   0.12844   0.68393   0.00000  Uiso   1.00
Zn693  Zn    0.50000   0.21771   0.75000   0.00000  Uiso   1.00
Zn694  Zn    0.50000   0.11563   0.75000   0.00000  Uiso   1.00
C695   C     0.45280   0.28456   0.95462   0.00000  Uiso   1.00
O696   O     0.46348   0.32275   0.96572   0.00000  Uiso   1.00
O697   O     0.42227   0.27887   0.92183   0.00000  Uiso   1.00
H698   H     0.41208   0.30881   0.90922   0.00000  Uiso   1.00
C699   C     0.54755   0.04863   0.54501   0.00000  Uiso   1.00
O700   O     0.57388   0.05329   0.57411   0.00000  Uiso   1.00
O701   O     0.53595   0.00512   0.53125   0.00000  Uiso   1.00
H702   H     0.55080   0.31366   0.54850   0.00000  Uiso   1.00
F703   F     0.45907   0.28071   0.54685   0.00000  Uiso   1.00
F704   F     0.54068   0.05247   0.95309   0.00000  Uiso   1.00
C705   C     0.75327   0.16666   0.74997   0.00000  Uiso   1.00
C706   C     0.91339   0.16667   0.75004   0.00000  Uiso   1.00
C707   C     0.80634   0.24408   0.52368   0.00000  Uiso   1.00
C708   C     0.86032   0.08918   0.97631   0.00000  Uiso   1.00
C709   C     0.68797   0.12612   0.75823   0.00000  Uiso   1.00
C710   C     0.97870   0.20722   0.74180   0.00000  Uiso   1.00
C711   C     0.97870   0.12613   0.75828   0.00000  Uiso   1.00
C712   C     0.68796   0.20721   0.74175   0.00000  Uiso   1.00
C713   C     0.95753   0.16668   0.75005   0.00000  Uiso   1.00
C714   C     0.70914   0.16666   0.74997   0.00000  Uiso   1.00
C715   C     0.85836   0.02399   0.77862   0.00000  Uiso   1.00
C716   C     0.80831   0.30935   0.72139   0.00000  Uiso   1.00
C717   C     0.80831   0.02402   0.72139   0.00000  Uiso   1.00
C718   C     0.85836   0.30931   0.77862   0.00000  Uiso   1.00
C719   C     0.83343   0.16669   0.66330   0.00000  Uiso   1.00
C720   C     0.83325   0.16664   0.83670   0.00000  Uiso   1.00
C721   C     0.84509   0.12772   0.90740   0.00000  Uiso   1.00
C722   C     0.82156   0.20557   0.59260   0.00000  Uiso   1.00
C723   C     0.83271   0.16654   0.88457   0.00000  Uiso   1.00
C724   C     0.83402   0.16678   0.61543   0.00000  Uiso   1.00
C725   C     0.81988   0.20531   0.90722   0.00000  Uiso   1.00
C726   C     0.84697   0.12806   0.59279   0.00000  Uiso   1.00
C727   C     0.81849   0.20568   0.95357   0.00000  Uiso   1.00
C728   C     0.84839   0.12766   0.54644   0.00000  Uiso   1.00
C729   C     0.83274   0.16664   0.97680   0.00000  Uiso   1.00
C730   C     0.83407   0.16668   0.52320   0.00000  Uiso   1.00
C731   C     0.84584   0.12755   0.95351   0.00000  Uiso   1.00
C732   C     0.82087   0.20574   0.54649   0.00000  Uiso   1.00
C733   C     0.80442   0.24430   0.97719   0.00000  Uiso   1.00
C734   C     0.86249   0.08904   0.52276   0.00000  Uiso   1.00
H735   H     0.85520   0.09803   0.88906   0.00000  Uiso   1.00
H736   H     0.81137   0.23524   0.61092   0.00000  Uiso   1.00
H737   H     0.81136   0.23509   0.88827   0.00000  Uiso   1.00
H738   H     0.85555   0.09833   0.61180   0.00000  Uiso   1.00
H739   H     0.70420   0.09461   0.76490   0.00000  Uiso   1.00
H740   H     0.96247   0.23873   0.73513   0.00000  Uiso   1.00
H741   H     0.96249   0.09463   0.76499   0.00000  Uiso   1.00
H742   H     0.70418   0.23871   0.73504   0.00000  Uiso   1.00
H743   H     0.87835   0.04220   0.80147   0.00000  Uiso   1.00
H744   H     0.78831   0.29113   0.69854   0.00000  Uiso   1.00
H745   H     0.78831   0.04227   0.69854   0.00000  Uiso   1.00
H746   H     0.87835   0.29107   0.80147   0.00000  Uiso   1.00
N747   N     0.83333   0.28573   0.75000   0.00000  Uiso   1.00
N748   N     0.83333   0.04760   0.75000   0.00000  Uiso   1.00
O749   O     0.77226   0.20487   0.75000   0.00000  Uiso   1.00
O750   O     0.89441   0.12846   0.75001   0.00000  Uiso   1.00
O751   O     0.89441   0.20487   0.75001   0.00000  Uiso   1.00
O752   O     0.77226   0.12846   0.75000   0.00000  Uiso   1.00
O753   O     0.83333   0.20489   0.68393   0.00000  Uiso   1.00
O754   O     0.83334   0.12844   0.81608   0.00000  Uiso   1.00
O755   O     0.83334   0.20489   0.81608   0.00000  Uiso   1.00
O756   O     0.83333   0.12844   0.68393   0.00000  Uiso   1.00
Zn757  Zn    0.83333   0.21771   0.75000   0.00000  Uiso   1.00
Zn758  Zn    0.83333   0.11563   0.75000   0.00000  Uiso   1.00
C759   C     0.78613   0.28456   0.95462   0.00000  Uiso   1.00
O760   O     0.79681   0.32275   0.96572   0.00000  Uiso   1.00
O761   O     0.75560   0.27887   0.92183   0.00000  Uiso   1.00
H762   H     0.74541   0.30881   0.90922   0.00000  Uiso   1.00
C763   C     0.88088   0.04863   0.54501   0.00000  Uiso   1.00
O764   O     0.90721   0.05329   0.57411   0.00000  Uiso   1.00
O765   O     0.86928   0.00512   0.53125   0.00000  Uiso   1.00
H766   H     0.88414   0.31366   0.54850   0.00000  Uiso   1.00
F767   F     0.79240   0.28071   0.54685   0.00000  Uiso   1.00
F768   F     0.87401   0.05247   0.95309   0.00000  Uiso   1.00
C769   C     0.08661   0.49999   0.74997   0.00000  Uiso   1.00
C770   C     0.24673   0.50000   0.75004   0.00000  Uiso   1.00
C771   C     0.13967   0.57741   0.52368   0.00000  Uiso   1.00
C772   C     0.19365   0.42252   0.97631   0.00000  Uiso   1.00
C773   C     0.02131   0.45945   0.75823   0.00000  Uiso   1.00
C774   C     0.31203   0.54055   0.74180   0.00000  Uiso   1.00
C775   C     0.31204   0.45946   0.75828   0.00000  Uiso   1.00
C776   C     0.02130   0.54054   0.74175   0.00000  Uiso   1.00
C777   C     0.29086   0.50001   0.75005   0.00000  Uiso   1.00
C778   C     0.04247   0.49999   0.74997   0.00000  Uiso   1.00
C779   C     0.19169   0.35732   0.77862   0.00000  Uiso   1.00
C780   C     0.14164   0.64268   0.72139   0.00000  Uiso   1.00
C781   C     0.14164   0.35735   0.72139   0.00000  Uiso   1.00
C782   C     0.19169   0.64265   0.77862   0.00000  Uiso   1.00
C783   C     0.16676   0.50002   0.66330   0.00000  Uiso   1.00
C784   C     0.16659   0.49998   0.83670   0.00000  Uiso   1.00
C785   C     0.17842   0.46105   0.90740   0.00000  Uiso   1.00
C786   C     0.15489   0.53891   0.59260   0.00000  Uiso   1.00
C787   C     0.16604   0.49988   0.88457   0.00000  Uiso   1.00
C788   C     0.16735   0.50012   0.61543   0.00000  Uiso   1.00
C789   C     0.15322   0.53864   0.90722   0.00000  Uiso   1.00
C790   C     0.18030   0.46139   0.59279   0.00000  Uiso   1.00
C791   C     0.15182   0.53901   0.95357   0.00000  Uiso   1.00
C792   C     0.18172   0.46100   0.54644   0.00000  Uiso   1.00
C793   C     0.16607   0.49998   0.97680   0.00000  Uiso   1.00
C794   C     0.16740   0.50001   0.52320   0.00000  Uiso   1.00
C795   C     0.17917   0.46089   0.95351   0.00000  Uiso   1.00
C796   C     0.15420   0.53907   0.54649   0.00000  Uiso   1.00
C797   C     0.13776   0.57763   0.97719   0.00000  Uiso   1.00
C798   C     0.19583   0.42237   0.52276   0.00000  Uiso   1.00
H799   H     0.18854   0.43136   0.88906   0.00000  Uiso   1.00
H800   H     0.14470   0.56857   0.61092   0.00000  Uiso   1.00
H801   H     0.14469   0.56843   0.88827   0.00000  Uiso   1.00
H802   H     0.18889   0.43167   0.61180   0.00000  Uiso   1.00
H803   H     0.03753   0.42794   0.76490   0.00000  Uiso   1.00
H804   H     0.29580   0.57206   0.73513   0.00000  Uiso   1.00
H805   H     0.29582   0.42796   0.76499   0.00000  Uiso   1.00
H806   H     0.03751   0.57204   0.73504   0.00000  Uiso   1.00
H807   H     0.21169   0.37554   0.80147   0.00000  Uiso   1.00
H808   H     0.12164   0.62446   0.69854   0.00000  Uiso   1.00
H809   H     0.12164   0.37560   0.69854   0.00000  Uiso   1.00
H810   H     0.21169   0.62440   0.80147   0.00000  Uiso   1.00
N811   N     0.16667   0.61907   0.75000   0.00000  Uiso   1.00
N812   N     0.16667   0.38093   0.75000   0.00000  Uiso   1.00
O813   O     0.10559   0.53821   0.75000   0.00000  Uiso   1.00
O814   O     0.22774   0.46179   0.75001   0.00000  Uiso   1.00
O815   O     0.22774   0.53821   0.75001   0.00000  Uiso   1.00
O816   O     0.10559   0.46179   0.75000   0.00000  Uiso   1.00
O817   O     0.16666   0.53823   0.68393   0.00000  Uiso   1.00
O818   O     0.16667   0.46177   0.81608   0.00000  Uiso   1.00
O819   O     0.16667   0.53823   0.81608   0.00000  Uiso   1.00
O820   O     0.16666   0.46177   0.68393   0.00000  Uiso   1.00
Zn821  Zn    0.16667   0.55104   0.75000   0.00000  Uiso   1.00
Zn822  Zn    0.16667   0.44896   0.75000   0.00000  Uiso   1.00
C823   C     0.11947   0.61790   0.95462   0.00000  Uiso   1.00
O824   O     0.13014   0.65609   0.96572   0.00000  Uiso   1.00
O825   O     0.08894   0.61220   0.92183   0.00000  Uiso   1.00
H826   H     0.07875   0.64215   0.90922   0.00000  Uiso   1.00
C827   C     0.21421   0.38196   0.54501   0.00000  Uiso   1.00
O828   O     0.24055   0.38663   0.57411   0.00000  Uiso   1.00
O829   O     0.20262   0.33845   0.53125   0.00000  Uiso   1.00
H830   H     0.21747   0.64700   0.54850   0.00000  Uiso   1.00
F831   F     0.12574   0.61404   0.54685   0.00000  Uiso   1.00
F832   F     0.20735   0.38580   0.95309   0.00000  Uiso   1.00
C833   C     0.41994   0.49999   0.74997   0.00000  Uiso   1.00
C834   C     0.58006   0.50000   0.75004   0.00000  Uiso   1.00
C835   C     0.47300   0.57741   0.52368   0.00000  Uiso   1.00
C836   C     0.52699   0.42252   0.97631   0.00000  Uiso   1.00
C837   C     0.35464   0.45945   0.75823   0.00000  Uiso   1.00
C838   C     0.64536   0.54055   0.74180   0.00000  Uiso   1.00
C839   C     0.64537   0.45946   0.75828   0.00000  Uiso   1.00
C840   C     0.35463   0.54054   0.74175   0.00000  Uiso   1.00
C841   C     0.62420   0.50001   0.75005   0.00000  Uiso   1.00
C842   C     0.37580   0.49999   0.74997   0.00000  Uiso   1.00
C843   C     0.52503   0.35732   0.77862   0.00000  Uiso   1.00
C844   C     0.47497   0.64268   0.72139   0.00000  Uiso   1.00
C845   C     0.47497   0.35735   0.72139   0.00000  Uiso   1.00
C846   C     0.52503   0.64265   0.77862   0.00000  Uiso   1.00
C847   C     0.50009   0.50002   0.66330   0.00000  Uiso   1.00
C848   C     0.49992   0.49998   0.83670   0.00000  Uiso   1.00
C849   C     0.51176   0.46105   0.90740   0.00000  Uiso   1.00
C850   C     0.48823   0.53891   0.59260   0.00000  Uiso   1.00
C851   C     0.49938   0.49988   0.88457   0.00000  Uiso   1.00
C852   C     0.50068   0.50012   0.61543   0.00000  Uiso   1.00
C853   C     0.48655   0.53864   0.90722   0.00000  Uiso   1.00
C854   C     0.51364   0.46139   0.59279   0.00000  Uiso   1.00
C855   C     0.48515   0.53901   0.95357   0.00000  Uiso   1.00
C856   C     0.51506   0.46100   0.54644   0.00000  Uiso   1.00
C857   C     0.49941   0.49998   0.97680   0.00000  Uiso   1.00
C858   C     0.50074   0.50001   0.52320   0.00000  Uiso   1.00
C859   C     0.51250   0.46089   0.95351   0.00000  Uiso   1.00
C860   C     0.48753   0.53907   0.54649   0.00000  Uiso   1.00
C861   C     0.47109   0.57763   0.97719   0.00000  Uiso   1.00
C862   C     0.52916   0.42237   0.52276   0.00000  Uiso   1.00
H863   H     0.52187   0.43136   0.88906   0.00000  Uiso   1.00
H864   H     0.47803   0.56857   0.61092   0.00000  Uiso   1.00
H865   H     0.47803   0.56843   0.88827   0.00000  Uiso   1.00
H866   H     0.52222   0.43167   0.61180   0.00000  Uiso   1.00
H867   H     0.37086   0.42794   0.76490   0.00000  Uiso   1.00
H868   H     0.62914   0.57206   0.73513   0.00000  Uiso   1.00
H869   H     0.62915   0.42796   0.76499   0.00000  Uiso   1.00
H870   H     0.37085   0.57204   0.73504   0.00000  Uiso   1.00
H871   H     0.54502   0.37554   0.80147   0.00000  Uiso   1.00
H872   H     0.45498   0.62446   0.69854   0.00000  Uiso   1.00
H873   H     0.45498   0.37560   0.69854   0.00000  Uiso   1.00
H874   H     0.54502   0.62440   0.80147   0.00000  Uiso   1.00
N875   N     0.50000   0.61907   0.75000   0.00000  Uiso   1.00
N876   N     0.50000   0.38093   0.75000   0.00000  Uiso   1.00
O877   O     0.43892   0.53821   0.75000   0.00000  Uiso   1.00
O878   O     0.56108   0.46179   0.75001   0.00000  Uiso   1.00
O879   O     0.56108   0.53821   0.75001   0.00000  Uiso   1.00
O880   O     0.43892   0.46179   0.75000   0.00000  Uiso   1.00
O881   O     0.49999   0.53823   0.68393   0.00000  Uiso   1.00
O882   O     0.50001   0.46177   0.81608   0.00000  Uiso   1.00
O883   O     0.50001   0.53823   0.81608   0.00000  Uiso   1.00
O884   O     0.49999   0.46177   0.68393   0.00000  Uiso   1.00
Zn885  Zn    0.50000   0.55104   0.75000   0.00000  Uiso   1.00
Zn886  Zn    0.50000   0.44896   0.75000   0.00000  Uiso   1.00
C887   C     0.45280   0.61790   0.95462   0.00000  Uiso   1.00
O888   O     0.46348   0.65609   0.96572   0.00000  Uiso   1.00
O889   O     0.42227   0.61220   0.92183   0.00000  Uiso   1.00
H890   H     0.41208   0.64215   0.90922   0.00000  Uiso   1.00
C891   C     0.54755   0.38196   0.54501   0.00000  Uiso   1.00
O892   O     0.57388   0.38663   0.57411   0.00000  Uiso   1.00
O893   O     0.53595   0.33845   0.53125   0.00000  Uiso   1.00
H894   H     0.55080   0.64700   0.54850   0.00000  Uiso   1.00
F895   F     0.45907   0.61404   0.54685   0.00000  Uiso   1.00
F896   F     0.54068   0.38580   0.95309   0.00000  Uiso   1.00
C897   C     0.75327   0.49999   0.74997   0.00000  Uiso   1.00
C898   C     0.91339   0.50000   0.75004   0.00000  Uiso   1.00
C899   C     0.80634   0.57741   0.52368   0.00000  Uiso   1.00
C900   C     0.86032   0.42252   0.97631   0.00000  Uiso   1.00
C901   C     0.68797   0.45945   0.75823   0.00000  Uiso   1.00
C902   C     0.97870   0.54055   0.74180   0.00000  Uiso   1.00
C903   C     0.97870   0.45946   0.75828   0.00000  Uiso   1.00
C904   C     0.68796   0.54054   0.74175   0.00000  Uiso   1.00
C905   C     0.95753   0.50001   0.75005   0.00000  Uiso   1.00
C906   C     0.70914   0.49999   0.74997   0.00000  Uiso   1.00
C907   C     0.85836   0.35732   0.77862   0.00000  Uiso   1.00
C908   C     0.80831   0.64268   0.72139   0.00000  Uiso   1.00
C909   C     0.80831   0.35735   0.72139   0.00000  Uiso   1.00
C910   C     0.85836   0.64265   0.77862   0.00000  Uiso   1.00
C911   C     0.83343   0.50002   0.66330   0.00000  Uiso   1.00
C912   C     0.83325   0.49998   0.83670   0.00000  Uiso   1.00
C913   C     0.84509   0.46105   0.90740   0.00000  Uiso   1.00
C914   C     0.82156   0.53891   0.59260   0.00000  Uiso   1.00
C915   C     0.83271   0.49988   0.88457   0.00000  Uiso   1.00
C916   C     0.83402   0.50012   0.61543   0.00000  Uiso   1.00
C917   C     0.81988   0.53864   0.90722   0.00000  Uiso   1.00
C918   C     0.84697   0.46139   0.59279   0.00000  Uiso   1.00
C919   C     0.81849   0.53901   0.95357   0.00000  Uiso   1.00
C920   C     0.84839   0.46100   0.54644   0.00000  Uiso   1.00
C921   C     0.83274   0.49998   0.97680   0.00000  Uiso   1.00
C922   C     0.83407   0.50001   0.52320   0.00000  Uiso   1.00
C923   C     0.84584   0.46089   0.95351   0.00000  Uiso   1.00
C924   C     0.82087   0.53907   0.54649   0.00000  Uiso   1.00
C925   C     0.80442   0.57763   0.97719   0.00000  Uiso   1.00
C926   C     0.86249   0.42237   0.52276   0.00000  Uiso   1.00
H927   H     0.85520   0.43136   0.88906   0.00000  Uiso   1.00
H928   H     0.81137   0.56857   0.61092   0.00000  Uiso   1.00
H929   H     0.81136   0.56843   0.88827   0.00000  Uiso   1.00
H930   H     0.85555   0.43167   0.61180   0.00000  Uiso   1.00
H931   H     0.70420   0.42794   0.76490   0.00000  Uiso   1.00
H932   H     0.96247   0.57206   0.73513   0.00000  Uiso   1.00
H933   H     0.96249   0.42796   0.76499   0.00000  Uiso   1.00
H934   H     0.70418   0.57204   0.73504   0.00000  Uiso   1.00
H935   H     0.87835   0.37554   0.80147   0.00000  Uiso   1.00
H936   H     0.78831   0.62446   0.69854   0.00000  Uiso   1.00
H937   H     0.78831   0.37560   0.69854   0.00000  Uiso   1.00
H938   H     0.87835   0.62440   0.80147   0.00000  Uiso   1.00
N939   N     0.83333   0.61907   0.75000   0.00000  Uiso   1.00
N940   N     0.83333   0.38093   0.75000   0.00000  Uiso   1.00
O941   O     0.77226   0.53821   0.75000   0.00000  Uiso   1.00
O942   O     0.89441   0.46179   0.75001   0.00000  Uiso   1.00
O943   O     0.89441   0.53821   0.75001   0.00000  Uiso   1.00
O944   O     0.77226   0.46179   0.75000   0.00000  Uiso   1.00
O945   O     0.83333   0.53823   0.68393   0.00000  Uiso   1.00
O946   O     0.83334   0.46177   0.81608   0.00000  Uiso   1.00
O947   O     0.83334   0.53823   0.81608   0.00000  Uiso   1.00
O948   O     0.83333   0.46177   0.68393   0.00000  Uiso   1.00
Zn949  Zn    0.83333   0.55104   0.75000   0.00000  Uiso   1.00
Zn950  Zn    0.83333   0.44896   0.75000   0.00000  Uiso   1.00
C951   C     0.78613   0.61790   0.95462   0.00000  Uiso   1.00
O952   O     0.79681   0.65609   0.96572   0.00000  Uiso   1.00
O953   O     0.75560   0.61220   0.92183   0.00000  Uiso   1.00
H954   H     0.74541   0.64215   0.90922   0.00000  Uiso   1.00
C955   C     0.88088   0.38196   0.54501   0.00000  Uiso   1.00
O956   O     0.90721   0.38663   0.57411   0.00000  Uiso   1.00
O957   O     0.86928   0.33845   0.53125   0.00000  Uiso   1.00
H958   H     0.88414   0.64700   0.54850   0.00000  Uiso   1.00
F959   F     0.79240   0.61404   0.54685   0.00000  Uiso   1.00
F960   F     0.87401   0.38580   0.95309   0.00000  Uiso   1.00
C961   C     0.08661   0.83333   0.74997   0.00000  Uiso   1.00
C962   C     0.24673   0.83334   0.75004   0.00000  Uiso   1.00
C963   C     0.13967   0.91074   0.52368   0.00000  Uiso   1.00
C964   C     0.19365   0.75585   0.97631   0.00000  Uiso   1.00
C965   C     0.02131   0.79279   0.75823   0.00000  Uiso   1.00
C966   C     0.31203   0.87388   0.74180   0.00000  Uiso   1.00
C967   C     0.31204   0.79280   0.75828   0.00000  Uiso   1.00
C968   C     0.02130   0.87387   0.74175   0.00000  Uiso   1.00
C969   C     0.29086   0.83334   0.75005   0.00000  Uiso   1.00
C970   C     0.04247   0.83333   0.74997   0.00000  Uiso   1.00
C971   C     0.19169   0.69065   0.77862   0.00000  Uiso   1.00
C972   C     0.14164   0.97601   0.72139   0.00000  Uiso   1.00
C973   C     0.14164   0.69069   0.72139   0.00000  Uiso   1.00
C974   C     0.19169   0.97598   0.77862   0.00000  Uiso   1.00
C975   C     0.16676   0.83336   0.66330   0.00000  Uiso   1.00
C976   C     0.16659   0.83331   0.83670   0.00000  Uiso   1.00
C977   C     0.17842   0.79438   0.90740   0.00000  Uiso   1.00
C978   C     0.15489   0.87224   0.59260   0.00000  Uiso   1.00
C979   C     0.16604   0.83321   0.88457   0.00000  Uiso   1.00
C980   C     0.16735   0.83345   0.61543   0.00000  Uiso   1.00
C981   C     0.15322   0.87197   0.90722   0.00000  Uiso   1.00
C982   C     0.18030   0.79473   0.59279   0.00000  Uiso   1.00
C983   C     0.15182   0.87234   0.95357   0.00000  Uiso   1.00
C984   C     0.18172   0.79433   0.54644   0.00000  Uiso   1.00
C985   C     0.16607   0.83331   0.97680   0.00000  Uiso   1.00
C986   C     0.16740   0.83334   0.52320   0.00000  Uiso   1.00
C987   C     0.17917   0.79422   0.95351   0.00000  Uiso   1.00
C988   C     0.15420   0.87240   0.54649   0.00000  Uiso   1.00
C989   C     0.13776   0.91097   0.97719   0.00000  Uiso   1.00
C990   C     0.19583   0.75571   0.52276   0.00000  Uiso   1.00
H991   H     0.18854   0.76469   0.88906   0.00000  Uiso   1.00
H992   H     0.14470   0.90190   0.61092   0.00000  Uiso   1.00
H993   H     0.14469   0.90176   0.88827   0.00000  Uiso   1.00
H994   H     0.18889   0.76500   0.61180   0.00000  Uiso   1.00
H995   H     0.03753   0.76128   0.76490   0.00000  Uiso   1.00
H996   H     0.29580   0.90539   0.73513   0.00000  Uiso   1.00
H997   H     0.29582   0.76129   0.76499   0.00000  Uiso   1.00
H998   H     0.03751   0.90538   0.73504   0.00000  Uiso   1.00
H999   H     0.21169   0.70887   0.80147   0.00000  Uiso   1.00
H1000  H     0.12164   0.95780   0.69854   0.00000  Uiso   1.00
H1001  H     0.12164   0.70893   0.69854   0.00000  Uiso   1.00
H1002  H     0.21169   0.95773   0.80147   0.00000  Uiso   1.00
N1003  N     0.16667   0.95240   0.75000   0.00000  Uiso   1.00
N1004  N     0.16667   0.71427   0.75000   0.00000  Uiso   1.00
O1005  O     0.10559   0.87154   0.75000   0.00000  Uiso   1.00
O1006  O     0.22774   0.79513   0.75001   0.00000  Uiso   1.00
O1007  O     0.22774   0.87154   0.75001   0.00000  Uiso   1.00
O1008  O     0.10559   0.79513   0.75000   0.00000  Uiso   1.00
O1009  O     0.16666   0.87156   0.68393   0.00000  Uiso   1.00
O1010  O     0.16667   0.79511   0.81608   0.00000  Uiso   1.00
O1011  O     0.16667   0.87156   0.81608   0.00000  Uiso   1.00
O1012  O     0.16666   0.79511   0.68393   0.00000  Uiso   1.00
Zn1013 Zn    0.16667   0.88437   0.75000   0.00000  Uiso   1.00
Zn1014 Zn    0.16667   0.78229   0.75000   0.00000  Uiso   1.00
C1015  C     0.11947   0.95123   0.95462   0.00000  Uiso   1.00
O1016  O     0.13014   0.98942   0.96572   0.00000  Uiso   1.00
O1017  O     0.08894   0.94554   0.92183   0.00000  Uiso   1.00
H1018  H     0.07875   0.97548   0.90922   0.00000  Uiso   1.00
C1019  C     0.21421   0.71530   0.54501   0.00000  Uiso   1.00
O1020  O     0.24055   0.71996   0.57411   0.00000  Uiso   1.00
O1021  O     0.20262   0.67178   0.53125   0.00000  Uiso   1.00
H1022  H     0.21747   0.98033   0.54850   0.00000  Uiso   1.00
F1023  F     0.12574   0.94737   0.54685   0.00000  Uiso   1.00
F1024  F     0.20735   0.71914   0.95309   0.00000  Uiso   1.00
C1025  C     0.41994   0.83333   0.74997   0.00000  Uiso   1.00
C1026  C     0.58006   0.83334   0.75004   0.00000  Uiso   1.00
C1027  C     0.47300   0.91074   0.52368   0.00000  Uiso   1.00
C1028  C     0.52699   0.75585   0.97631   0.00000  Uiso   1.00
C1029  C     0.35464   0.79279   0.75823   0.00000  Uiso   1.00
C1030  C     0.64536   0.87388   0.74180   0.00000  Uiso   1.00
C1031  C     0.64537   0.79280   0.75828   0.00000  Uiso   1.00
C1032  C     0.35463   0.87387   0.74175   0.00000  Uiso   1.00
C1033  C     0.62420   0.83334   0.75005   0.00000  Uiso   1.00
C1034  C     0.37580   0.83333   0.74997   0.00000  Uiso   1.00
C1035  C     0.52503   0.69065   0.77862   0.00000  Uiso   1.00
C1036  C     0.47497   0.97601   0.72139   0.00000  Uiso   1.00
C1037  C     0.47497   0.69069   0.72139   0.00000  Uiso   1.00
C1038  C     0.52503   0.97598   0.77862   0.00000  Uiso   1.00
C1039  C     0.50009   0.83336   0.66330   0.00000  Uiso   1.00
C1040  C     0.49992   0.83331   0.83670   0.00000  Uiso   1.00
C1041  C     0.51176   0.79438   0.90740   0.00000  Uiso   1.00
C1042  C     0.48823   0.87224   0.59260   0.00000  Uiso   1.00
C1043  C     0.49938   0.83321   0.88457   0.00000  Uiso   1.00
C1044  C     0.50068   0.83345   0.61543   0.00000  Uiso   1.00
C1045  C     0.48655   0.87197   0.90722   0.00000  Uiso   1.00
C1046  C     0.51364   0.79473   0.59279   0.00000  Uiso   1.00
C1047  C     0.48515   0.87234   0.95357   0.00000  Uiso   1.00
C1048  C     0.51506   0.79433   0.54644   0.00000  Uiso   1.00
C1049  C     0.49941   0.83331   0.97680   0.00000  Uiso   1.00
C1050  C     0.50074   0.83334   0.52320   0.00000  Uiso   1.00
C1051  C     0.51250   0.79422   0.95351   0.00000  Uiso   1.00
C1052  C     0.48753   0.87240   0.54649   0.00000  Uiso   1.00
C1053  C     0.47109   0.91097   0.97719   0.00000  Uiso   1.00
C1054  C     0.52916   0.75571   0.52276   0.00000  Uiso   1.00
H1055  H     0.52187   0.76469   0.88906   0.00000  Uiso   1.00
H1056  H     0.47803   0.90190   0.61092   0.00000  Uiso   1.00
H1057  H     0.47803   0.90176   0.88827   0.00000  Uiso   1.00
H1058  H     0.52222   0.76500   0.61180   0.00000  Uiso   1.00
H1059  H     0.37086   0.76128   0.76490   0.00000  Uiso   1.00
H1060  H     0.62914   0.90539   0.73513   0.00000  Uiso   1.00
H1061  H     0.62915   0.76129   0.76499   0.00000  Uiso   1.00
H1062  H     0.37085   0.90538   0.73504   0.00000  Uiso   1.00
H1063  H     0.54502   0.70887   0.80147   0.00000  Uiso   1.00
H1064  H     0.45498   0.95780   0.69854   0.00000  Uiso   1.00
H1065  H     0.45498   0.70893   0.69854   0.00000  Uiso   1.00
H1066  H     0.54502   0.95773   0.80147   0.00000  Uiso   1.00
N1067  N     0.50000   0.95240   0.75000   0.00000  Uiso   1.00
N1068  N     0.50000   0.71427   0.75000   0.00000  Uiso   1.00
O1069  O     0.43892   0.87154   0.75000   0.00000  Uiso   1.00
O1070  O     0.56108   0.79513   0.75001   0.00000  Uiso   1.00
O1071  O     0.56108   0.87154   0.75001   0.00000  Uiso   1.00
O1072  O     0.43892   0.79513   0.75000   0.00000  Uiso   1.00
O1073  O     0.49999   0.87156   0.68393   0.00000  Uiso   1.00
O1074  O     0.50001   0.79511   0.81608   0.00000  Uiso   1.00
O1075  O     0.50001   0.87156   0.81608   0.00000  Uiso   1.00
O1076  O     0.49999   0.79511   0.68393   0.00000  Uiso   1.00
Zn1077 Zn    0.50000   0.88437   0.75000   0.00000  Uiso   1.00
Zn1078 Zn    0.50000   0.78229   0.75000   0.00000  Uiso   1.00
C1079  C     0.45280   0.95123   0.95462   0.00000  Uiso   1.00
O1080  O     0.46348   0.98942   0.96572   0.00000  Uiso   1.00
O1081  O     0.42227   0.94554   0.92183   0.00000  Uiso   1.00
H1082  H     0.41208   0.97548   0.90922   0.00000  Uiso   1.00
C1083  C     0.54755   0.71530   0.54501   0.00000  Uiso   1.00
O1084  O     0.57388   0.71996   0.57411   0.00000  Uiso   1.00
O1085  O     0.53595   0.67178   0.53125   0.00000  Uiso   1.00
H1086  H     0.55080   0.98033   0.54850   0.00000  Uiso   1.00
F1087  F     0.45907   0.94737   0.54685   0.00000  Uiso   1.00
F1088  F     0.54068   0.71914   0.95309   0.00000  Uiso   1.00
C1089  C     0.75327   0.83333   0.74997   0.00000  Uiso   1.00
C1090  C     0.91339   0.83334   0.75004   0.00000  Uiso   1.00
C1091  C     0.80634   0.91074   0.52368   0.00000  Uiso   1.00
C1092  C     0.86032   0.75585   0.97631   0.00000  Uiso   1.00
C1093  C     0.68797   0.79279   0.75823   0.00000  Uiso   1.00
C1094  C     0.97870   0.87388   0.74180   0.00000  Uiso   1.00
C1095  C     0.97870   0.79280   0.75828   0.00000  Uiso   1.00
C1096  C     0.68796   0.87387   0.74175   0.00000  Uiso   1.00
C1097  C     0.95753   0.83334   0.75005   0.00000  Uiso   1.00
C1098  C     0.70914   0.83333   0.74997   0.00000  Uiso   1.00
C1099  C     0.85836   0.69065   0.77862   0.00000  Uiso   1.00
C1100  C     0.80831   0.97601   0.72139   0.00000  Uiso   1.00
C1101  C     0.80831   0.69069   0.72139   0.00000  Uiso   1.00
C1102  C     0.85836   0.97598   0.77862   0.00000  Uiso   1.00
C1103  C     0.83343   0.83336   0.66330   0.00000  Uiso   1.00
C1104  C     0.83325   0.83331   0.83670   0.00000  Uiso   1.00
C1105  C     0.84509   0.79438   0.90740   0.00000  Uiso   1.00
C1106  C     0.82156   0.87224   0.59260   0.00000  Uiso   1.00
C1107  C     0.83271   0.83321   0.88457   0.00000  Uiso   1.00
C1108  C     0.83402   0.83345   0.61543   0.00000  Uiso   1.00
C1109  C     0.81988   0.87197   0.90722   0.00000  Uiso   1.00
C1110  C     0.84697   0.79473   0.59279   0.00000  Uiso   1.00
C1111  C     0.81849   0.87234   0.95357   0.00000  Uiso   1.00
C1112  C     0.84839   0.79433   0.54644   0.00000  Uiso   1.00
C1113  C     0.83274   0.83331   0.97680   0.00000  Uiso   1.00
C1114  C     0.83407   0.83334   0.52320   0.00000  Uiso   1.00
C1115  C     0.84584   0.79422   0.95351   0.00000  Uiso   1.00
C1116  C     0.82087   0.87240   0.54649   0.00000  Uiso   1.00
C1117  C     0.80442   0.91097   0.97719   0.00000  Uiso   1.00
C1118  C     0.86249   0.75571   0.52276   0.00000  Uiso   1.00
H1119  H     0.85520   0.76469   0.88906   0.00000  Uiso   1.00
H1120  H     0.81137   0.90190   0.61092   0.00000  Uiso   1.00
H1121  H     0.81136   0.90176   0.88827   0.00000  Uiso   1.00
H1122  H     0.85555   0.76500   0.61180   0.00000  Uiso   1.00
H1123  H     0.70420   0.76128   0.76490   0.00000  Uiso   1.00
H1124  H     0.96247   0.90539   0.73513   0.00000  Uiso   1.00
H1125  H     0.96249   0.76129   0.76499   0.00000  Uiso   1.00
H1126  H     0.70418   0.90538   0.73504   0.00000  Uiso   1.00
H1127  H     0.87835   0.70887   0.80147   0.00000  Uiso   1.00
H1128  H     0.78831   0.95780   0.69854   0.00000  Uiso   1.00
H1129  H     0.78831   0.70893   0.69854   0.00000  Uiso   1.00
H1130  H     0.87835   0.95773   0.80147   0.00000  Uiso   1.00
N1131  N     0.83333   0.95240   0.75000   0.00000  Uiso   1.00
N1132  N     0.83333   0.71427   0.75000   0.00000  Uiso   1.00
O1133  O     0.77226   0.87154   0.75000   0.00000  Uiso   1.00
O1134  O     0.89441   0.79513   0.75001   0.00000  Uiso   1.00
O1135  O     0.89441   0.87154   0.75001   0.00000  Uiso   1.00
O1136  O     0.77226   0.79513   0.75000   0.00000  Uiso   1.00
O1137  O     0.83333   0.87156   0.68393   0.00000  Uiso   1.00
O1138  O     0.83334   0.79511   0.81608   0.00000  Uiso   1.00
O1139  O     0.83334   0.87156   0.81608   0.00000  Uiso   1.00
O1140  O     0.83333   0.79511   0.68393   0.00000  Uiso   1.00
Zn1141 Zn    0.83333   0.88437   0.75000   0.00000  Uiso   1.00
Zn1142 Zn    0.83333   0.78229   0.75000   0.00000  Uiso   1.00
C1143  C     0.78613   0.95123   0.95462   0.00000  Uiso   1.00
O1144  O     0.79681   0.98942   0.96572   0.00000  Uiso   1.00
O1145  O     0.75560   0.94554   0.92183   0.00000  Uiso   1.00
H1146  H     0.74541   0.97548   0.90922   0.00000  Uiso   1.00
C1147  C     0.88088   0.71530   0.54501   0.00000  Uiso   1.00
O1148  O     0.90721   0.71996   0.57411   0.00000  Uiso   1.00
O1149  O     0.86928   0.67178   0.53125   0.00000  Uiso   1.00
H1150  H     0.88414   0.98033   0.54850   0.00000  Uiso   1.00
F1151  F     0.79240   0.94737   0.54685   0.00000  Uiso   1.00
F1152  F     0.87401   0.71914   0.95309   0.00000  Uiso   1.00
loop_
_geom_bond_atom_site_label_1
_geom_bond_atom_site_label_2
_geom_bond_distance
_geom_bond_site_symmetry_2
_ccdc_geom_bond_type
C1     O48     1.281   .     A
C1     O45     1.281   .     A
C1     C10     1.419   .     S
C2     O47     1.281   .     A
C2     O46     1.281   .     A
C2     C9      1.419   .     S
C3     F63     1.361   .     S
C3     C28     1.400   .     A
C3     C605    1.396   1_554 S
C4     F64     1.361   .     S
C4     C27     1.400   .     A
C4     C606    1.396   .     S
C5     H35     1.084   .     S
C5     C10     1.397   .     A
C5     C135    1.370   1_455 S
C6     C9      1.397   .     A
C6     H36     1.084   .     S
C6     C72     1.370   .     S
C7     C9      1.397   .     A
C7     H37     1.084   .     S
C7     C69     1.370   .     S
C8     H38     1.084   .     S
C8     C10     1.397   .     A
C8     C134    1.370   1_455 S
C11    H39     1.082   .     S
C11    N44     1.366   .     A
C11    C398    1.415   1_545 S
C12    H40     1.082   .     S
C12    N43     1.366   .     A
C12    C205    1.415   .     S
C13    H41     1.082   .     S
C13    N44     1.366   .     A
C13    C396    1.415   1_545 S
C14    H42     1.082   .     S
C14    N43     1.366   .     A
C14    C203    1.415   .     S
C15    O52     1.286   .     A
C15    O49     1.285   .     A
C15    C20     1.437   .     S
C16    O51     1.286   .     A
C16    C19     1.437   .     S
C16    O50     1.285   .     A
C17    H31     1.085   .     S
C17    C27     1.384   .     A
C17    C19     1.391   .     A
C18    H32     1.085   .     S
C18    C28     1.384   .     A
C18    C20     1.391   .     A
C19    C21     1.393   .     A
C20    C22     1.393   .     A
C21    C23     1.392   .     A
C21    H33     1.081   .     S
C22    H34     1.081   .     S
C22    C24     1.392   .     A
C23    C29     1.416   .     A
C23    C25     1.420   .     A
C24    C30     1.418   .     A
C24    C26     1.420   .     A
C25    C27     1.413   .     A
C25    C602    1.393   .     S
C26    C28     1.413   .     A
C26    C601    1.393   1_554 S
C29    C55     1.487   .     S
C29    C579    1.396   .     S
C30    C59     1.487   .     S
C30    C580    1.396   1_554 S
N43    Zn53    2.005   .     S
N44    Zn54    2.005   .     S
O45    Zn53    2.000   .     S
O46    Zn54    2.000   .     S
O47    Zn53    2.000   .     S
O48    Zn54    2.000   .     S
O49    Zn53    2.019   .     S
O50    Zn54    2.019   .     S
O51    Zn53    2.018   .     S
O52    Zn54    2.018   .     S
C55    O56     1.223   .     D
C55    O57     1.399   .     S
O57    H58     1.014   .     S
C59    O60     1.223   .     D
C59    O61     1.398   .     S
O61    H446    1.014   1_545 S
H62    O253    1.014   .     S
C65    O112    1.281   .     A
C65    O109    1.281   .     A
C65    C74     1.419   .     S
C66    O111    1.281   .     A
C66    O110    1.281   .     A
C66    C73     1.419   .     S
C67    F127    1.361   .     S
C67    C92     1.400   .     A
C67    C669    1.396   1_554 S
C68    F128    1.361   .     S
C68    C91     1.400   .     A
C68    C670    1.396   .     S
C69    H99     1.084   .     S
C69    C74     1.397   .     A
C70    C73     1.397   .     A
C70    H100    1.084   .     S
C70    C136    1.370   .     S
C71    C73     1.397   .     A
C71    H101    1.084   .     S
C71    C133    1.370   .     S
C72    H102    1.084   .     S
C72    C74     1.397   .     A
C75    H103    1.082   .     S
C75    N108    1.366   .     A
C75    C462    1.415   1_545 S
C76    H104    1.082   .     S
C76    N107    1.366   .     A
C76    C269    1.415   .     S
C77    H105    1.082   .     S
C77    N108    1.366   .     A
C77    C460    1.415   1_545 S
C78    H106    1.082   .     S
C78    N107    1.366   .     A
C78    C267    1.415   .     S
C79    O116    1.286   .     A
C79    O113    1.285   .     A
C79    C84     1.437   .     S
C80    O115    1.286   .     A
C80    C83     1.437   .     S
C80    O114    1.285   .     A
C81    H95     1.085   .     S
C81    C91     1.384   .     A
C81    C83     1.391   .     A
C82    H96     1.085   .     S
C82    C92     1.384   .     A
C82    C84     1.391   .     A
C83    C85     1.393   .     A
C84    C86     1.393   .     A
C85    C87     1.392   .     A
C85    H97     1.081   .     S
C86    H98     1.081   .     S
C86    C88     1.392   .     A
C87    C93     1.416   .     A
C87    C89     1.420   .     A
C88    C94     1.418   .     A
C88    C90     1.420   .     A
C89    C91     1.413   .     A
C89    C666    1.393   .     S
C90    C92     1.413   .     A
C90    C665    1.393   1_554 S
C93    C119    1.487   .     S
C93    C643    1.396   .     S
C94    C123    1.487   .     S
C94    C644    1.396   1_554 S
N107   Zn117   2.005   .     S
N108   Zn118   2.005   .     S
O109   Zn117   2.000   .     S
O110   Zn118   2.000   .     S
O111   Zn117   2.000   .     S
O112   Zn118   2.000   .     S
O113   Zn117   2.019   .     S
O114   Zn118   2.019   .     S
O115   Zn117   2.018   .     S
O116   Zn118   2.018   .     S
C119   O120    1.223   .     D
C119   O121    1.399   .     S
O121   H122    1.014   .     S
C123   O124    1.223   .     D
C123   O125    1.398   .     S
O125   H510    1.014   1_545 S
H126   O317    1.014   .     S
C129   O176    1.281   .     A
C129   O173    1.281   .     A
C129   C138    1.419   .     S
C130   O175    1.281   .     A
C130   O174    1.281   .     A
C130   C137    1.419   .     S
C131   F191    1.361   .     S
C131   C156    1.400   .     A
C131   C733    1.396   1_554 S
C132   F192    1.361   .     S
C132   C155    1.400   .     A
C132   C734    1.396   .     S
C133   H163    1.084   .     S
C133   C138    1.397   .     A
C134   C137    1.397   .     A
C134   H164    1.084   .     S
C134   C8      1.370   1_655 S
C135   C137    1.397   .     A
C135   H165    1.084   .     S
C135   C5      1.370   1_655 S
C136   H166    1.084   .     S
C136   C138    1.397   .     A
C139   H167    1.082   .     S
C139   N172    1.366   .     A
C139   C526    1.415   1_545 S
C140   H168    1.082   .     S
C140   N171    1.366   .     A
C140   C333    1.415   .     S
C141   H169    1.082   .     S
C141   N172    1.366   .     A
C141   C524    1.415   1_545 S
C142   H170    1.082   .     S
C142   N171    1.366   .     A
C142   C331    1.415   .     S
C143   O180    1.286   .     A
C143   O177    1.285   .     A
C143   C148    1.437   .     S
C144   O179    1.286   .     A
C144   C147    1.437   .     S
C144   O178    1.285   .     A
C145   H159    1.085   .     S
C145   C155    1.384   .     A
C145   C147    1.391   .     A
C146   H160    1.085   .     S
C146   C156    1.384   .     A
C146   C148    1.391   .     A
C147   C149    1.393   .     A
C148   C150    1.393   .     A
C149   C151    1.392   .     A
C149   H161    1.081   .     S
C150   H162    1.081   .     S
C150   C152    1.392   .     A
C151   C157    1.416   .     A
C151   C153    1.420   .     A
C152   C158    1.418   .     A
C152   C154    1.420   .     A
C153   C155    1.413   .     A
C153   C730    1.393   .     S
C154   C156    1.413   .     A
C154   C729    1.393   1_554 S
C157   C183    1.487   .     S
C157   C707    1.396   .     S
C158   C187    1.487   .     S
C158   C708    1.396   1_554 S
N171   Zn181   2.005   .     S
N172   Zn182   2.005   .     S
O173   Zn181   2.000   .     S
O174   Zn182   2.000   .     S
O175   Zn181   2.000   .     S
O176   Zn182   2.000   .     S
O177   Zn181   2.019   .     S
O178   Zn182   2.019   .     S
O179   Zn181   2.018   .     S
O180   Zn182   2.018   .     S
C183   O184    1.223   .     D
C183   O185    1.399   .     S
O185   H186    1.014   .     S
C187   O188    1.223   .     D
C187   O189    1.398   .     S
O189   H574    1.014   1_545 S
H190   O381    1.014   .     S
C193   O240    1.281   .     A
C193   O237    1.281   .     A
C193   C202    1.419   .     S
C194   O239    1.281   .     A
C194   O238    1.281   .     A
C194   C201    1.419   .     S
C195   F255    1.361   .     S
C195   C220    1.400   .     A
C195   C797    1.396   1_554 S
C196   F256    1.361   .     S
C196   C219    1.400   .     A
C196   C798    1.396   .     S
C197   H227    1.084   .     S
C197   C202    1.397   .     A
C197   C327    1.370   1_455 S
C198   C201    1.397   .     A
C198   H228    1.084   .     S
C198   C264    1.370   .     S
C199   C201    1.397   .     A
C199   H229    1.084   .     S
C199   C261    1.370   .     S
C200   H230    1.084   .     S
C200   C202    1.397   .     A
C200   C326    1.370   1_455 S
C203   H231    1.082   .     S
C203   N236    1.366   .     A
C204   H232    1.082   .     S
C204   N235    1.366   .     A
C204   C397    1.415   .     S
C205   H233    1.082   .     S
C205   N236    1.366   .     A
C206   H234    1.082   .     S
C206   N235    1.366   .     A
C206   C395    1.415   .     S
C207   O244    1.286   .     A
C207   O241    1.285   .     A
C207   C212    1.437   .     S
C208   O243    1.286   .     A
C208   C211    1.437   .     S
C208   O242    1.285   .     A
C209   H223    1.085   .     S
C209   C219    1.384   .     A
C209   C211    1.391   .     A
C210   H224    1.085   .     S
C210   C220    1.384   .     A
C210   C212    1.391   .     A
C211   C213    1.393   .     A
C212   C214    1.393   .     A
C213   C215    1.392   .     A
C213   H225    1.081   .     S
C214   H226    1.081   .     S
C214   C216    1.392   .     A
C215   C221    1.416   .     A
C215   C217    1.420   .     A
C216   C222    1.418   .     A
C216   C218    1.420   .     A
C217   C219    1.413   .     A
C217   C794    1.393   .     S
C218   C220    1.413   .     A
C218   C793    1.393   1_554 S
C221   C247    1.487   .     S
C221   C771    1.396   .     S
C222   C251    1.487   .     S
C222   C772    1.396   1_554 S
N235   Zn245   2.005   .     S
N236   Zn246   2.005   .     S
O237   Zn245   2.000   .     S
O238   Zn246   2.000   .     S
O239   Zn245   2.000   .     S
O240   Zn246   2.000   .     S
O241   Zn245   2.019   .     S
O242   Zn246   2.019   .     S
O243   Zn245   2.018   .     S
O244   Zn246   2.018   .     S
C247   O248    1.223   .     D
C247   O249    1.399   .     S
O249   H250    1.014   .     S
C251   O252    1.223   .     D
C251   O253    1.398   .     S
H254   O445    1.014   .     S
C257   O304    1.281   .     A
C257   O301    1.281   .     A
C257   C266    1.419   .     S
C258   O303    1.281   .     A
C258   O302    1.281   .     A
C258   C265    1.419   .     S
C259   F319    1.361   .     S
C259   C284    1.400   .     A
C259   C861    1.396   1_554 S
C260   F320    1.361   .     S
C260   C283    1.400   .     A
C260   C862    1.396   .     S
C261   H291    1.084   .     S
C261   C266    1.397   .     A
C262   C265    1.397   .     A
C262   H292    1.084   .     S
C262   C328    1.370   .     S
C263   C265    1.397   .     A
C263   H293    1.084   .     S
C263   C325    1.370   .     S
C264   H294    1.084   .     S
C264   C266    1.397   .     A
C267   H295    1.082   .     S
C267   N300    1.366   .     A
C268   H296    1.082   .     S
C268   N299    1.366   .     A
C268   C461    1.415   .     S
C269   H297    1.082   .     S
C269   N300    1.366   .     A
C270   H298    1.082   .     S
C270   N299    1.366   .     A
C270   C459    1.415   .     S
C271   O308    1.286   .     A
C271   O305    1.285   .     A
C271   C276    1.437   .     S
C272   O307    1.286   .     A
C272   C275    1.437   .     S
C272   O306    1.285   .     A
C273   H287    1.085   .     S
C273   C283    1.384   .     A
C273   C275    1.391   .     A
C274   H288    1.085   .     S
C274   C284    1.384   .     A
C274   C276    1.391   .     A
C275   C277    1.393   .     A
C276   C278    1.393   .     A
C277   C279    1.392   .     A
C277   H289    1.081   .     S
C278   H290    1.081   .     S
C278   C280    1.392   .     A
C279   C285    1.416   .     A
C279   C281    1.420   .     A
C280   C286    1.418   .     A
C280   C282    1.420   .     A
C281   C283    1.413   .     A
C281   C858    1.393   .     S
C282   C284    1.413   .     A
C282   C857    1.393   1_554 S
C285   C311    1.487   .     S
C285   C835    1.396   .     S
C286   C315    1.487   .     S
C286   C836    1.396   1_554 S
N299   Zn309   2.005   .     S
N300   Zn310   2.005   .     S
O301   Zn309   2.000   .     S
O302   Zn310   2.000   .     S
O303   Zn309   2.000   .     S
O304   Zn310   2.000   .     S
O305   Zn309   2.019   .     S
O306   Zn310   2.019   .     S
O307   Zn309   2.018   .     S
O308   Zn310   2.018   .     S
C311   O312    1.223   .     D
C311   O313    1.399   .     S
O313   H314    1.014   .     S
C315   O316    1.223   .     D
C315   O317    1.398   .     S
H318   O509    1.014   .     S
C321   O368    1.281   .     A
C321   O365    1.281   .     A
C321   C330    1.419   .     S
C322   O367    1.281   .     A
C322   O366    1.281   .     A
C322   C329    1.419   .     S
C323   F383    1.361   .     S
C323   C348    1.400   .     A
C323   C925    1.396   1_554 S
C324   F384    1.361   .     S
C324   C347    1.400   .     A
C324   C926    1.396   .     S
C325   H355    1.084   .     S
C325   C330    1.397   .     A
C326   C329    1.397   .     A
C326   H356    1.084   .     S
C326   C200    1.370   1_655 S
C327   C329    1.397   .     A
C327   H357    1.084   .     S
C327   C197    1.370   1_655 S
C328   H358    1.084   .     S
C328   C330    1.397   .     A
C331   H359    1.082   .     S
C331   N364    1.366   .     A
C332   H360    1.082   .     S
C332   N363    1.366   .     A
C332   C525    1.415   .     S
C333   H361    1.082   .     S
C333   N364    1.366   .     A
C334   H362    1.082   .     S
C334   N363    1.366   .     A
C334   C523    1.415   .     S
C335   O372    1.286   .     A
C335   O369    1.285   .     A
C335   C340    1.437   .     S
C336   O371    1.286   .     A
C336   C339    1.437   .     S
C336   O370    1.285   .     A
C337   H351    1.085   .     S
C337   C347    1.384   .     A
C337   C339    1.391   .     A
C338   H352    1.085   .     S
C338   C348    1.384   .     A
C338   C340    1.391   .     A
C339   C341    1.393   .     A
C340   C342    1.393   .     A
C341   C343    1.392   .     A
C341   H353    1.081   .     S
C342   H354    1.081   .     S
C342   C344    1.392   .     A
C343   C349    1.416   .     A
C343   C345    1.420   .     A
C344   C350    1.418   .     A
C344   C346    1.420   .     A
C345   C347    1.413   .     A
C345   C922    1.393   .     S
C346   C348    1.413   .     A
C346   C921    1.393   1_554 S
C349   C375    1.487   .     S
C349   C899    1.396   .     S
C350   C379    1.487   .     S
C350   C900    1.396   1_554 S
N363   Zn373   2.005   .     S
N364   Zn374   2.005   .     S
O365   Zn373   2.000   .     S
O366   Zn374   2.000   .     S
O367   Zn373   2.000   .     S
O368   Zn374   2.000   .     S
O369   Zn373   2.019   .     S
O370   Zn374   2.019   .     S
O371   Zn373   2.018   .     S
O372   Zn374   2.018   .     S
C375   O376    1.223   .     D
C375   O377    1.399   .     S
O377   H378    1.014   .     S
C379   O380    1.223   .     D
C379   O381    1.398   .     S
H382   O573    1.014   .     S
C385   O432    1.281   .     A
C385   O429    1.281   .     A
C385   C394    1.419   .     S
C386   O431    1.281   .     A
C386   O430    1.281   .     A
C386   C393    1.419   .     S
C387   F447    1.361   .     S
C387   C412    1.400   .     A
C387   C989    1.396   1_554 S
C388   F448    1.361   .     S
C388   C411    1.400   .     A
C388   C990    1.396   .     S
C389   H419    1.084   .     S
C389   C394    1.397   .     A
C389   C519    1.370   1_455 S
C390   C393    1.397   .     A
C390   H420    1.084   .     S
C390   C456    1.370   .     S
C391   C393    1.397   .     A
C391   H421    1.084   .     S
C391   C453    1.370   .     S
C392   H422    1.084   .     S
C392   C394    1.397   .     A
C392   C518    1.370   1_455 S
C395   H423    1.082   .     S
C395   N428    1.366   .     A
C396   H424    1.082   .     S
C396   N427    1.366   .     A
C396   C13     1.415   1_565 S
C397   H425    1.082   .     S
C397   N428    1.366   .     A
C398   H426    1.082   .     S
C398   N427    1.366   .     A
C398   C11     1.415   1_565 S
C399   O436    1.286   .     A
C399   O433    1.285   .     A
C399   C404    1.437   .     S
C400   O435    1.286   .     A
C400   C403    1.437   .     S
C400   O434    1.285   .     A
C401   H415    1.085   .     S
C401   C411    1.384   .     A
C401   C403    1.391   .     A
C402   H416    1.085   .     S
C402   C412    1.384   .     A
C402   C404    1.391   .     A
C403   C405    1.393   .     A
C404   C406    1.393   .     A
C405   C407    1.392   .     A
C405   H417    1.081   .     S
C406   H418    1.081   .     S
C406   C408    1.392   .     A
C407   C413    1.416   .     A
C407   C409    1.420   .     A
C408   C414    1.418   .     A
C408   C410    1.420   .     A
C409   C411    1.413   .     A
C409   C986    1.393   .     S
C410   C412    1.413   .     A
C410   C985    1.393   1_554 S
C413   C439    1.487   .     S
C413   C963    1.396   .     S
C414   C443    1.487   .     S
C414   C964    1.396   1_554 S
N427   Zn437   2.005   .     S
N428   Zn438   2.005   .     S
O429   Zn437   2.000   .     S
O430   Zn438   2.000   .     S
O431   Zn437   2.000   .     S
O432   Zn438   2.000   .     S
O433   Zn437   2.019   .     S
O434   Zn438   2.019   .     S
O435   Zn437   2.018   .     S
O436   Zn438   2.018   .     S
C439   O440    1.223   .     D
C439   O441    1.399   .     S
O441   H442    1.014   .     S
C443   O444    1.223   .     D
C443   O445    1.398   .     S
H446   O61     1.014   1_565 S
C449   O496    1.281   .     A
C449   O493    1.281   .     A
C449   C458    1.419   .     S
C450   O495    1.281   .     A
C450   O494    1.281   .     A
C450   C457    1.419   .     S
C451   F511    1.361   .     S
C451   C476    1.400   .     A
C451   C1053   1.396   1_554 S
C452   F512    1.361   .     S
C452   C475    1.400   .     A
C452   C1054   1.396   .     S
C453   H483    1.084   .     S
C453   C458    1.397   .     A
C454   C457    1.397   .     A
C454   H484    1.084   .     S
C454   C520    1.370   .     S
C455   C457    1.397   .     A
C455   H485    1.084   .     S
C455   C517    1.370   .     S
C456   H486    1.084   .     S
C456   C458    1.397   .     A
C459   H487    1.082   .     S
C459   N492    1.366   .     A
C460   H488    1.082   .     S
C460   N491    1.366   .     A
C460   C77     1.415   1_565 S
C461   H489    1.082   .     S
C461   N492    1.366   .     A
C462   H490    1.082   .     S
C462   N491    1.366   .     A
C462   C75     1.415   1_565 S
C463   O500    1.286   .     A
C463   O497    1.285   .     A
C463   C468    1.437   .     S
C464   O499    1.286   .     A
C464   C467    1.437   .     S
C464   O498    1.285   .     A
C465   H479    1.085   .     S
C465   C475    1.384   .     A
C465   C467    1.391   .     A
C466   H480    1.085   .     S
C466   C476    1.384   .     A
C466   C468    1.391   .     A
C467   C469    1.393   .     A
C468   C470    1.393   .     A
C469   C471    1.392   .     A
C469   H481    1.081   .     S
C470   H482    1.081   .     S
C470   C472    1.392   .     A
C471   C477    1.416   .     A
C471   C473    1.420   .     A
C472   C478    1.418   .     A
C472   C474    1.420   .     A
C473   C475    1.413   .     A
C473   C1050   1.393   .     S
C474   C476    1.413   .     A
C474   C1049   1.393   1_554 S
C477   C503    1.487   .     S
C477   C1027   1.396   .     S
C478   C507    1.487   .     S
C478   C1028   1.396   1_554 S
N491   Zn501   2.005   .     S
N492   Zn502   2.005   .     S
O493   Zn501   2.000   .     S
O494   Zn502   2.000   .     S
O495   Zn501   2.000   .     S
O496   Zn502   2.000   .     S
O497   Zn501   2.019   .     S
O498   Zn502   2.019   .     S
O499   Zn501   2.018   .     S
O500   Zn502   2.018   .     S
C503   O504    1.223   .     D
C503   O505    1.399   .     S
O505   H506    1.014   .     S
C507   O508    1.223   .     D
C507   O509    1.398   .     S
H510   O125    1.014   1_565 S
C513   O560    1.281   .     A
C513   O557    1.281   .     A
C513   C522    1.419   .     S
C514   O559    1.281   .     A
C514   O558    1.281   .     A
C514   C521    1.419   .     S
C515   F575    1.361   .     S
C515   C540    1.400   .     A
C515   C1117   1.396   1_554 S
C516   F576    1.361   .     S
C516   C539    1.400   .     A
C516   C1118   1.396   .     S
C517   H547    1.084   .     S
C517   C522    1.397   .     A
C518   C521    1.397   .     A
C518   H548    1.084   .     S
C518   C392    1.370   1_655 S
C519   C521    1.397   .     A
C519   H549    1.084   .     S
C519   C389    1.370   1_655 S
C520   H550    1.084   .     S
C520   C522    1.397   .     A
C523   H551    1.082   .     S
C523   N556    1.366   .     A
C524   H552    1.082   .     S
C524   N555    1.366   .     A
C524   C141    1.415   1_565 S
C525   H553    1.082   .     S
C525   N556    1.366   .     A
C526   H554    1.082   .     S
C526   N555    1.366   .     A
C526   C139    1.415   1_565 S
C527   O564    1.286   .     A
C527   O561    1.285   .     A
C527   C532    1.437   .     S
C528   O563    1.286   .     A
C528   C531    1.437   .     S
C528   O562    1.285   .     A
C529   H543    1.085   .     S
C529   C539    1.384   .     A
C529   C531    1.391   .     A
C530   H544    1.085   .     S
C530   C540    1.384   .     A
C530   C532    1.391   .     A
C531   C533    1.393   .     A
C532   C534    1.393   .     A
C533   C535    1.392   .     A
C533   H545    1.081   .     S
C534   H546    1.081   .     S
C534   C536    1.392   .     A
C535   C541    1.416   .     A
C535   C537    1.420   .     A
C536   C542    1.418   .     A
C536   C538    1.420   .     A
C537   C539    1.413   .     A
C537   C1114   1.393   .     S
C538   C540    1.413   .     A
C538   C1113   1.393   1_554 S
C541   C567    1.487   .     S
C541   C1091   1.396   .     S
C542   C571    1.487   .     S
C542   C1092   1.396   1_554 S
N555   Zn565   2.005   .     S
N556   Zn566   2.005   .     S
O557   Zn565   2.000   .     S
O558   Zn566   2.000   .     S
O559   Zn565   2.000   .     S
O560   Zn566   2.000   .     S
O561   Zn565   2.019   .     S
O562   Zn566   2.019   .     S
O563   Zn565   2.018   .     S
O564   Zn566   2.018   .     S
C567   O568    1.223   .     D
C567   O569    1.399   .     S
O569   H570    1.014   .     S
C571   O572    1.223   .     D
C571   O573    1.398   .     S
H574   O189    1.014   1_565 S
C577   O624    1.281   .     A
C577   O621    1.281   .     A
C577   C586    1.419   .     S
C578   O623    1.281   .     A
C578   O622    1.281   .     A
C578   C585    1.419   .     S
C579   F639    1.361   .     S
C579   C604    1.400   .     A
C580   F640    1.361   .     S
C580   C603    1.400   .     A
C580   C30     1.396   1_556 S
C581   H611    1.084   .     S
C581   C586    1.397   .     A
C581   C711    1.370   1_455 S
C582   C585    1.397   .     A
C582   H612    1.084   .     S
C582   C648    1.370   .     S
C583   C585    1.397   .     A
C583   H613    1.084   .     S
C583   C645    1.370   .     S
C584   H614    1.084   .     S
C584   C586    1.397   .     A
C584   C710    1.370   1_455 S
C587   H615    1.082   .     S
C587   N620    1.366   .     A
C587   C974    1.415   1_545 S
C588   H616    1.082   .     S
C588   N619    1.366   .     A
C588   C781    1.415   .     S
C589   H617    1.082   .     S
C589   N620    1.366   .     A
C589   C972    1.415   1_545 S
C590   H618    1.082   .     S
C590   N619    1.366   .     A
C590   C779    1.415   .     S
C591   O628    1.286   .     A
C591   O625    1.285   .     A
C591   C596    1.437   .     S
C592   O627    1.286   .     A
C592   C595    1.437   .     S
C592   O626    1.285   .     A
C593   H607    1.085   .     S
C593   C603    1.384   .     A
C593   C595    1.391   .     A
C594   H608    1.085   .     S
C594   C604    1.384   .     A
C594   C596    1.391   .     A
C595   C597    1.393   .     A
C596   C598    1.393   .     A
C597   C599    1.392   .     A
C597   H609    1.081   .     S
C598   H610    1.081   .     S
C598   C600    1.392   .     A
C599   C605    1.416   .     A
C599   C601    1.420   .     A
C600   C606    1.418   .     A
C600   C602    1.420   .     A
C601   C603    1.413   .     A
C601   C26     1.393   1_556 S
C602   C604    1.413   .     A
C605   C631    1.487   .     S
C605   C3      1.396   1_556 S
C606   C635    1.487   .     S
N619   Zn629   2.005   .     S
N620   Zn630   2.005   .     S
O621   Zn629   2.000   .     S
O622   Zn630   2.000   .     S
O623   Zn629   2.000   .     S
O624   Zn630   2.000   .     S
O625   Zn629   2.019   .     S
O626   Zn630   2.019   .     S
O627   Zn629   2.018   .     S
O628   Zn630   2.018   .     S
C631   O632    1.223   .     D
C631   O633    1.399   .     S
O633   H634    1.014   .     S
C635   O636    1.223   .     D
C635   O637    1.398   .     S
O637   H1022   1.014   1_545 S
H638   O829    1.014   .     S
C641   O688    1.281   .     A
C641   O685    1.281   .     A
C641   C650    1.419   .     S
C642   O687    1.281   .     A
C642   O686    1.281   .     A
C642   C649    1.419   .     S
C643   F703    1.361   .     S
C643   C668    1.400   .     A
C644   F704    1.361   .     S
C644   C667    1.400   .     A
C644   C94     1.396   1_556 S
C645   H675    1.084   .     S
C645   C650    1.397   .     A
C646   C649    1.397   .     A
C646   H676    1.084   .     S
C646   C712    1.370   .     S
C647   C649    1.397   .     A
C647   H677    1.084   .     S
C647   C709    1.370   .     S
C648   H678    1.084   .     S
C648   C650    1.397   .     A
C651   H679    1.082   .     S
C651   N684    1.366   .     A
C651   C1038   1.415   1_545 S
C652   H680    1.082   .     S
C652   N683    1.366   .     A
C652   C845    1.415   .     S
C653   H681    1.082   .     S
C653   N684    1.366   .     A
C653   C1036   1.415   1_545 S
C654   H682    1.082   .     S
C654   N683    1.366   .     A
C654   C843    1.415   .     S
C655   O692    1.286   .     A
C655   O689    1.285   .     A
C655   C660    1.437   .     S
C656   O691    1.286   .     A
C656   C659    1.437   .     S
C656   O690    1.285   .     A
C657   H671    1.085   .     S
C657   C667    1.384   .     A
C657   C659    1.391   .     A
C658   H672    1.085   .     S
C658   C668    1.384   .     A
C658   C660    1.391   .     A
C659   C661    1.393   .     A
C660   C662    1.393   .     A
C661   C663    1.392   .     A
C661   H673    1.081   .     S
C662   H674    1.081   .     S
C662   C664    1.392   .     A
C663   C669    1.416   .     A
C663   C665    1.420   .     A
C664   C670    1.418   .     A
C664   C666    1.420   .     A
C665   C667    1.413   .     A
C665   C90     1.393   1_556 S
C666   C668    1.413   .     A
C669   C695    1.487   .     S
C669   C67     1.396   1_556 S
C670   C699    1.487   .     S
N683   Zn693   2.005   .     S
N684   Zn694   2.005   .     S
O685   Zn693   2.000   .     S
O686   Zn694   2.000   .     S
O687   Zn693   2.000   .     S
O688   Zn694   2.000   .     S
O689   Zn693   2.019   .     S
O690   Zn694   2.019   .     S
O691   Zn693   2.018   .     S
O692   Zn694   2.018   .     S
C695   O696    1.223   .     D
C695   O697    1.399   .     S
O697   H698    1.014   .     S
C699   O700    1.223   .     D
C699   O701    1.398   .     S
O701   H1086   1.014   1_545 S
H702   O893    1.014   .     S
C705   O752    1.281   .     A
C705   O749    1.281   .     A
C705   C714    1.419   .     S
C706   O751    1.281   .     A
C706   O750    1.281   .     A
C706   C713    1.419   .     S
C707   F767    1.361   .     S
C707   C732    1.400   .     A
C708   F768    1.361   .     S
C708   C731    1.400   .     A
C708   C158    1.396   1_556 S
C709   H739    1.084   .     S
C709   C714    1.397   .     A
C710   C713    1.397   .     A
C710   H740    1.084   .     S
C710   C584    1.370   1_655 S
C711   C713    1.397   .     A
C711   H741    1.084   .     S
C711   C581    1.370   1_655 S
C712   H742    1.084   .     S
C712   C714    1.397   .     A
C715   H743    1.082   .     S
C715   N748    1.366   .     A
C715   C1102   1.415   1_545 S
C716   H744    1.082   .     S
C716   N747    1.366   .     A
C716   C909    1.415   .     S
C717   H745    1.082   .     S
C717   N748    1.366   .     A
C717   C1100   1.415   1_545 S
C718   H746    1.082   .     S
C718   N747    1.366   .     A
C718   C907    1.415   .     S
C719   O756    1.286   .     A
C719   O753    1.285   .     A
C719   C724    1.437   .     S
C720   O755    1.286   .     A
C720   C723    1.437   .     S
C720   O754    1.285   .     A
C721   H735    1.085   .     S
C721   C731    1.384   .     A
C721   C723    1.391   .     A
C722   H736    1.085   .     S
C722   C732    1.384   .     A
C722   C724    1.391   .     A
C723   C725    1.393   .     A
C724   C726    1.393   .     A
C725   C727    1.392   .     A
C725   H737    1.081   .     S
C726   H738    1.081   .     S
C726   C728    1.392   .     A
C727   C733    1.416   .     A
C727   C729    1.420   .     A
C728   C734    1.418   .     A
C728   C730    1.420   .     A
C729   C731    1.413   .     A
C729   C154    1.393   1_556 S
C730   C732    1.413   .     A
C733   C759    1.487   .     S
C733   C131    1.396   1_556 S
C734   C763    1.487   .     S
N747   Zn757   2.005   .     S
N748   Zn758   2.005   .     S
O749   Zn757   2.000   .     S
O750   Zn758   2.000   .     S
O751   Zn757   2.000   .     S
O752   Zn758   2.000   .     S
O753   Zn757   2.019   .     S
O754   Zn758   2.019   .     S
O755   Zn757   2.018   .     S
O756   Zn758   2.018   .     S
C759   O760    1.223   .     D
C759   O761    1.399   .     S
O761   H762    1.014   .     S
C763   O764    1.223   .     D
C763   O765    1.398   .     S
O765   H1150   1.014   1_545 S
H766   O957    1.014   .     S
C769   O816    1.281   .     A
C769   O813    1.281   .     A
C769   C778    1.419   .     S
C770   O815    1.281   .     A
C770   O814    1.281   .     A
C770   C777    1.419   .     S
C771   F831    1.361   .     S
C771   C796    1.400   .     A
C772   F832    1.361   .     S
C772   C795    1.400   .     A
C772   C222    1.396   1_556 S
C773   H803    1.084   .     S
C773   C778    1.397   .     A
C773   C903    1.370   1_455 S
C774   C777    1.397   .     A
C774   H804    1.084   .     S
C774   C840    1.370   .     S
C775   C777    1.397   .     A
C775   H805    1.084   .     S
C775   C837    1.370   .     S
C776   H806    1.084   .     S
C776   C778    1.397   .     A
C776   C902    1.370   1_455 S
C779   H807    1.082   .     S
C779   N812    1.366   .     A
C780   H808    1.082   .     S
C780   N811    1.366   .     A
C780   C973    1.415   .     S
C781   H809    1.082   .     S
C781   N812    1.366   .     A
C782   H810    1.082   .     S
C782   N811    1.366   .     A
C782   C971    1.415   .     S
C783   O820    1.286   .     A
C783   O817    1.285   .     A
C783   C788    1.437   .     S
C784   O819    1.286   .     A
C784   C787    1.437   .     S
C784   O818    1.285   .     A
C785   H799    1.085   .     S
C785   C795    1.384   .     A
C785   C787    1.391   .     A
C786   H800    1.085   .     S
C786   C796    1.384   .     A
C786   C788    1.391   .     A
C787   C789    1.393   .     A
C788   C790    1.393   .     A
C789   C791    1.392   .     A
C789   H801    1.081   .     S
C790   H802    1.081   .     S
C790   C792    1.392   .     A
C791   C797    1.416   .     A
C791   C793    1.420   .     A
C792   C798    1.418   .     A
C792   C794    1.420   .     A
C793   C795    1.413   .     A
C793   C218    1.393   1_556 S
C794   C796    1.413   .     A
C797   C823    1.487   .     S
C797   C195    1.396   1_556 S
C798   C827    1.487   .     S
N811   Zn821   2.005   .     S
N812   Zn822   2.005   .     S
O813   Zn821   2.000   .     S
O814   Zn822   2.000   .     S
O815   Zn821   2.000   .     S
O816   Zn822   2.000   .     S
O817   Zn821   2.019   .     S
O818   Zn822   2.019   .     S
O819   Zn821   2.018   .     S
O820   Zn822   2.018   .     S
C823   O824    1.223   .     D
C823   O825    1.399   .     S
O825   H826    1.014   .     S
C827   O828    1.223   .     D
C827   O829    1.398   .     S
H830   O1021   1.014   .     S
C833   O880    1.281   .     A
C833   O877    1.281   .     A
C833   C842    1.419   .     S
C834   O879    1.281   .     A
C834   O878    1.281   .     A
C834   C841    1.419   .     S
C835   F895    1.361   .     S
C835   C860    1.400   .     A
C836   F896    1.361   .     S
C836   C859    1.400   .     A
C836   C286    1.396   1_556 S
C837   H867    1.084   .     S
C837   C842    1.397   .     A
C838   C841    1.397   .     A
C838   H868    1.084   .     S
C838   C904    1.370   .     S
C839   C841    1.397   .     A
C839   H869    1.084   .     S
C839   C901    1.370   .     S
C840   H870    1.084   .     S
C840   C842    1.397   .     A
C843   H871    1.082   .     S
C843   N876    1.366   .     A
C844   H872    1.082   .     S
C844   N875    1.366   .     A
C844   C1037   1.415   .     S
C845   H873    1.082   .     S
C845   N876    1.366   .     A
C846   H874    1.082   .     S
C846   N875    1.366   .     A
C846   C1035   1.415   .     S
C847   O884    1.286   .     A
C847   O881    1.285   .     A
C847   C852    1.437   .     S
C848   O883    1.286   .     A
C848   C851    1.437   .     S
C848   O882    1.285   .     A
C849   H863    1.085   .     S
C849   C859    1.384   .     A
C849   C851    1.391   .     A
C850   H864    1.085   .     S
C850   C860    1.384   .     A
C850   C852    1.391   .     A
C851   C853    1.393   .     A
C852   C854    1.393   .     A
C853   C855    1.392   .     A
C853   H865    1.081   .     S
C854   H866    1.081   .     S
C854   C856    1.392   .     A
C855   C861    1.416   .     A
C855   C857    1.420   .     A
C856   C862    1.418   .     A
C856   C858    1.420   .     A
C857   C859    1.413   .     A
C857   C282    1.393   1_556 S
C858   C860    1.413   .     A
C861   C887    1.487   .     S
C861   C259    1.396   1_556 S
C862   C891    1.487   .     S
N875   Zn885   2.005   .     S
N876   Zn886   2.005   .     S
O877   Zn885   2.000   .     S
O878   Zn886   2.000   .     S
O879   Zn885   2.000   .     S
O880   Zn886   2.000   .     S
O881   Zn885   2.019   .     S
O882   Zn886   2.019   .     S
O883   Zn885   2.018   .     S
O884   Zn886   2.018   .     S
C887   O888    1.223   .     D
C887   O889    1.399   .     S
O889   H890    1.014   .     S
C891   O892    1.223   .     D
C891   O893    1.398   .     S
H894   O1085   1.014   .     S
C897   O944    1.281   .     A
C897   O941    1.281   .     A
C897   C906    1.419   .     S
C898   O943    1.281   .     A
C898   O942    1.281   .     A
C898   C905    1.419   .     S
C899   F959    1.361   .     S
C899   C924    1.400   .     A
C900   F960    1.361   .     S
C900   C923    1.400   .     A
C900   C350    1.396   1_556 S
C901   H931    1.084   .     S
C901   C906    1.397   .     A
C902   C905    1.397   .     A
C902   H932    1.084   .     S
C902   C776    1.370   1_655 S
C903   C905    1.397   .     A
C903   H933    1.084   .     S
C903   C773    1.370   1_655 S
C904   H934    1.084   .     S
C904   C906    1.397   .     A
C907   H935    1.082   .     S
C907   N940    1.366   .     A
C908   H936    1.082   .     S
C908   N939    1.366   .     A
C908   C1101   1.415   .     S
C909   H937    1.082   .     S
C909   N940    1.366   .     A
C910   H938    1.082   .     S
C910   N939    1.366   .     A
C910   C1099   1.415   .     S
C911   O948    1.286   .     A
C911   O945    1.285   .     A
C911   C916    1.437   .     S
C912   O947    1.286   .     A
C912   C915    1.437   .     S
C912   O946    1.285   .     A
C913   H927    1.085   .     S
C913   C923    1.384   .     A
C913   C915    1.391   .     A
C914   H928    1.085   .     S
C914   C924    1.384   .     A
C914   C916    1.391   .     A
C915   C917    1.393   .     A
C916   C918    1.393   .     A
C917   C919    1.392   .     A
C917   H929    1.081   .     S
C918   H930    1.081   .     S
C918   C920    1.392   .     A
C919   C925    1.416   .     A
C919   C921    1.420   .     A
C920   C926    1.418   .     A
C920   C922    1.420   .     A
C921   C923    1.413   .     A
C921   C346    1.393   1_556 S
C922   C924    1.413   .     A
C925   C951    1.487   .     S
C925   C323    1.396   1_556 S
C926   C955    1.487   .     S
N939   Zn949   2.005   .     S
N940   Zn950   2.005   .     S
O941   Zn949   2.000   .     S
O942   Zn950   2.000   .     S
O943   Zn949   2.000   .     S
O944   Zn950   2.000   .     S
O945   Zn949   2.019   .     S
O946   Zn950   2.019   .     S
O947   Zn949   2.018   .     S
O948   Zn950   2.018   .     S
C951   O952    1.223   .     D
C951   O953    1.399   .     S
O953   H954    1.014   .     S
C955   O956    1.223   .     D
C955   O957    1.398   .     S
H958   O1149   1.014   .     S
C961   O1008   1.281   .     A
C961   O1005   1.281   .     A
C961   C970    1.419   .     S
C962   O1007   1.281   .     A
C962   O1006   1.281   .     A
C962   C969    1.419   .     S
C963   F1023   1.361   .     S
C963   C988    1.400   .     A
C964   F1024   1.361   .     S
C964   C987    1.400   .     A
C964   C414    1.396   1_556 S
C965   H995    1.084   .     S
C965   C970    1.397   .     A
C965   C1095   1.370   1_455 S
C966   C969    1.397   .     A
C966   H996    1.084   .     S
C966   C1032   1.370   .     S
C967   C969    1.397   .     A
C967   H997    1.084   .     S
C967   C1029   1.370   .     S
C968   H998    1.084   .     S
C968   C970    1.397   .     A
C968   C1094   1.370   1_455 S
C971   H999    1.082   .     S
C971   N1004   1.366   .     A
C972   H1000   1.082   .     S
C972   N1003   1.366   .     A
C972   C589    1.415   1_565 S
C973   H1001   1.082   .     S
C973   N1004   1.366   .     A
C974   H1002   1.082   .     S
C974   N1003   1.366   .     A
C974   C587    1.415   1_565 S
C975   O1012   1.286   .     A
C975   O1009   1.285   .     A
C975   C980    1.437   .     S
C976   O1011   1.286   .     A
C976   C979    1.437   .     S
C976   O1010   1.285   .     A
C977   H991    1.085   .     S
C977   C987    1.384   .     A
C977   C979    1.391   .     A
C978   H992    1.085   .     S
C978   C988    1.384   .     A
C978   C980    1.391   .     A
C979   C981    1.393   .     A
C980   C982    1.393   .     A
C981   C983    1.392   .     A
C981   H993    1.081   .     S
C982   H994    1.081   .     S
C982   C984    1.392   .     A
C983   C989    1.416   .     A
C983   C985    1.420   .     A
C984   C990    1.418   .     A
C984   C986    1.420   .     A
C985   C987    1.413   .     A
C985   C410    1.393   1_556 S
C986   C988    1.413   .     A
C989   C1015   1.487   .     S
C989   C387    1.396   1_556 S
C990   C1019   1.487   .     S
N1003  Zn1013  2.005   .     S
N1004  Zn1014  2.005   .     S
O1005  Zn1013  2.000   .     S
O1006  Zn1014  2.000   .     S
O1007  Zn1013  2.000   .     S
O1008  Zn1014  2.000   .     S
O1009  Zn1013  2.019   .     S
O1010  Zn1014  2.019   .     S
O1011  Zn1013  2.018   .     S
O1012  Zn1014  2.018   .     S
C1015  O1016   1.223   .     D
C1015  O1017   1.399   .     S
O1017  H1018   1.014   .     S
C1019  O1020   1.223   .     D
C1019  O1021   1.398   .     S
H1022  O637    1.014   1_565 S
C1025  O1072   1.281   .     A
C1025  O1069   1.281   .     A
C1025  C1034   1.419   .     S
C1026  O1071   1.281   .     A
C1026  O1070   1.281   .     A
C1026  C1033   1.419   .     S
C1027  F1087   1.361   .     S
C1027  C1052   1.400   .     A
C1028  F1088   1.361   .     S
C1028  C1051   1.400   .     A
C1028  C478    1.396   1_556 S
C1029  H1059   1.084   .     S
C1029  C1034   1.397   .     A
C1030  C1033   1.397   .     A
C1030  H1060   1.084   .     S
C1030  C1096   1.370   .     S
C1031  C1033   1.397   .     A
C1031  H1061   1.084   .     S
C1031  C1093   1.370   .     S
C1032  H1062   1.084   .     S
C1032  C1034   1.397   .     A
C1035  H1063   1.082   .     S
C1035  N1068   1.366   .     A
C1036  H1064   1.082   .     S
C1036  N1067   1.366   .     A
C1036  C653    1.415   1_565 S
C1037  H1065   1.082   .     S
C1037  N1068   1.366   .     A
C1038  H1066   1.082   .     S
C1038  N1067   1.366   .     A
C1038  C651    1.415   1_565 S
C1039  O1076   1.286   .     A
C1039  O1073   1.285   .     A
C1039  C1044   1.437   .     S
C1040  O1075   1.286   .     A
C1040  C1043   1.437   .     S
C1040  O1074   1.285   .     A
C1041  H1055   1.085   .     S
C1041  C1051   1.384   .     A
C1041  C1043   1.391   .     A
C1042  H1056   1.085   .     S
C1042  C1052   1.384   .     A
C1042  C1044   1.391   .     A
C1043  C1045   1.393   .     A
C1044  C1046   1.393   .     A
C1045  C1047   1.392   .     A
C1045  H1057   1.081   .     S
C1046  H1058   1.081   .     S
C1046  C1048   1.392   .     A
C1047  C1053   1.416   .     A
C1047  C1049   1.420   .     A
C1048  C1054   1.418   .     A
C1048  C1050   1.420   .     A
C1049  C1051   1.413   .     A
C1049  C474    1.393   1_556 S
C1050  C1052   1.413   .     A
C1053  C1079   1.487   .     S
C1053  C451    1.396   1_556 S
C1054  C1083   1.487   .     S
N1067  Zn1077  2.005   .     S
N1068  Zn1078  2.005   .     S
O1069  Zn1077  2.000   .     S
O1070  Zn1078  2.000   .     S
O1071  Zn1077  2.000   .     S
O1072  Zn1078  2.000   .     S
O1073  Zn1077  2.019   .     S
O1074  Zn1078  2.019   .     S
O1075  Zn1077  2.018   .     S
O1076  Zn1078  2.018   .     S
C1079  O1080   1.223   .     D
C1079  O1081   1.399   .     S
O1081  H1082   1.014   .     S
C1083  O1084   1.223   .     D
C1083  O1085   1.398   .     S
H1086  O701    1.014   1_565 S
C1089  O1136   1.281   .     A
C1089  O1133   1.281   .     A
C1089  C1098   1.419   .     S
C1090  O1135   1.281   .     A
C1090  O1134   1.281   .     A
C1090  C1097   1.419   .     S
C1091  F1151   1.361   .     S
C1091  C1116   1.400   .     A
C1092  F1152   1.361   .     S
C1092  C1115   1.400   .     A
C1092  C542    1.396   1_556 S
C1093  H1123   1.084   .     S
C1093  C1098   1.397   .     A
C1094  C1097   1.397   .     A
C1094  H1124   1.084   .     S
C1094  C968    1.370   1_655 S
C1095  C1097   1.397   .     A
C1095  H1125   1.084   .     S
C1095  C965    1.370   1_655 S
C1096  H1126   1.084   .     S
C1096  C1098   1.397   .     A
C1099  H1127   1.082   .     S
C1099  N1132   1.366   .     A
C1100  H1128   1.082   .     S
C1100  N1131   1.366   .     A
C1100  C717    1.415   1_565 S
C1101  H1129   1.082   .     S
C1101  N1132   1.366   .     A
C1102  H1130   1.082   .     S
C1102  N1131   1.366   .     A
C1102  C715    1.415   1_565 S
C1103  O1140   1.286   .     A
C1103  O1137   1.285   .     A
C1103  C1108   1.437   .     S
C1104  O1139   1.286   .     A
C1104  C1107   1.437   .     S
C1104  O1138   1.285   .     A
C1105  H1119   1.085   .     S
C1105  C1115   1.384   .     A
C1105  C1107   1.391   .     A
C1106  H1120   1.085   .     S
C1106  C1116   1.384   .     A
C1106  C1108   1.391   .     A
C1107  C1109   1.393   .     A
C1108  C1110   1.393   .     A
C1109  C1111   1.392   .     A
C1109  H1121   1.081   .     S
C1110  H1122   1.081   .     S
C1110  C1112   1.392   .     A
C1111  C1117   1.416   .     A
C1111  C1113   1.420   .     A
C1112  C1118   1.418   .     A
C1112  C1114   1.420   .     A
C1113  C1115   1.413   .     A
C1113  C538    1.393   1_556 S
C1114  C1116   1.413   .     A
C1117  C1143   1.487   .     S
C1117  C515    1.396   1_556 S
C1118  C1147   1.487   .     S
N1131  Zn1141  2.005   .     S
N1132  Zn1142  2.005   .     S
O1133  Zn1141  2.000   .     S
O1134  Zn1142  2.000   .     S
O1135  Zn1141  2.000   .     S
O1136  Zn1142  2.000   .     S
O1137  Zn1141  2.019   .     S
O1138  Zn1142  2.019   .     S
O1139  Zn1141  2.018   .     S
O1140  Zn1142  2.018   .     S
C1143  O1144   1.223   .     D
C1143  O1145   1.399   .     S
O1145  H1146   1.014   .     S
C1147  O1148   1.223   .     D
C1147  O1149   1.398   .     S
H1150  O765    1.014   1_565 S
