data_str_m2_o1_o17_pcu_sym.115
_audit_creation_date              2020-01-03
_audit_creation_method            'Materials Studio'
_symmetry_space_group_name_H-M    'P1'
_symmetry_Int_Tables_number       1
_symmetry_cell_setting            triclinic
loop_
_symmetry_equiv_pos_as_xyz
  x,y,z
_cell_length_a                    32.3977
_cell_length_b                    28.5545
_cell_length_c                    30.1584
_cell_angle_alpha                 89.8991
_cell_angle_beta                  90.1939
_cell_angle_gamma                 89.9967
loop_
_atom_site_label
_atom_site_type_symbol
_atom_site_fract_x
_atom_site_fract_y
_atom_site_fract_z
_atom_site_U_iso_or_equiv
_atom_site_adp_type
_atom_site_occupancy
C1     C     0.08753   0.16667   0.24991   0.00000  Uiso   1.00
C2     C     0.24580   0.16667   0.25009   0.00000  Uiso   1.00
C3     C     0.14596   0.08396   0.02265   0.00000  Uiso   1.00
C4     C     0.18737   0.24937   0.47735   0.00000  Uiso   1.00
C5     C     0.02142   0.14354   0.21569   0.00000  Uiso   1.00
C6     C     0.31191   0.18979   0.28431   0.00000  Uiso   1.00
C7     C     0.31162   0.14354   0.21575   0.00000  Uiso   1.00
C8     C     0.02171   0.18980   0.28425   0.00000  Uiso   1.00
C9     C     0.29046   0.16666   0.25006   0.00000  Uiso   1.00
C10    C     0.04287   0.16667   0.24994   0.00000  Uiso   1.00
C11    C     0.14207   0.02486   0.22131   0.00000  Uiso   1.00
C12    C     0.19126   0.30847   0.27869   0.00000  Uiso   1.00
C13    C     0.19127   0.02475   0.27869   0.00000  Uiso   1.00
C14    C     0.14206   0.30858   0.22131   0.00000  Uiso   1.00
C15    C     0.16662   0.16669   0.16431   0.00000  Uiso   1.00
C16    C     0.16672   0.16664   0.33569   0.00000  Uiso   1.00
C17    C     0.17665   0.20775   0.40707   0.00000  Uiso   1.00
C18    C     0.15668   0.12559   0.09293   0.00000  Uiso   1.00
C19    C     0.16679   0.16667   0.38406   0.00000  Uiso   1.00
C20    C     0.16655   0.16666   0.11594   0.00000  Uiso   1.00
C21    C     0.15694   0.12573   0.40724   0.00000  Uiso   1.00
C22    C     0.17639   0.20760   0.09276   0.00000  Uiso   1.00
C23    C     0.15663   0.12558   0.45340   0.00000  Uiso   1.00
C24    C     0.17670   0.20775   0.04660   0.00000  Uiso   1.00
C25    C     0.16675   0.16685   0.47673   0.00000  Uiso   1.00
C26    C     0.16658   0.16648   0.02327   0.00000  Uiso   1.00
C27    C     0.17700   0.20842   0.45350   0.00000  Uiso   1.00
C28    C     0.15633   0.12491   0.04650   0.00000  Uiso   1.00
C29    C     0.14619   0.08469   0.47640   0.00000  Uiso   1.00
C30    C     0.18714   0.24865   0.02360   0.00000  Uiso   1.00
Cu31   Cu    0.16667   0.21355   0.25000   0.00000  Uiso   1.00
Cu32   Cu    0.16667   0.11978   0.25000   0.00000  Uiso   1.00
H33    H     0.18438   0.23905   0.38854   0.00000  Uiso   1.00
H34    H     0.14896   0.09429   0.11146   0.00000  Uiso   1.00
H35    H     0.14911   0.09401   0.38935   0.00000  Uiso   1.00
H36    H     0.18422   0.23932   0.11065   0.00000  Uiso   1.00
H37    H     0.13808   0.05322   0.45822   0.00000  Uiso   1.00
H38    H     0.19525   0.28012   0.04178   0.00000  Uiso   1.00
H39    H     0.12237   0.04359   0.19832   0.00000  Uiso   1.00
H40    H     0.21096   0.28974   0.30168   0.00000  Uiso   1.00
H41    H     0.21099   0.04340   0.30166   0.00000  Uiso   1.00
H42    H     0.12234   0.28993   0.19834   0.00000  Uiso   1.00
N43    N     0.16667   0.28402   0.25000   0.00000  Uiso   1.00
N44    N     0.16667   0.04931   0.25000   0.00000  Uiso   1.00
O45    O     0.10655   0.20625   0.24999   0.00000  Uiso   1.00
O46    O     0.22679   0.12709   0.25000   0.00000  Uiso   1.00
O47    O     0.22679   0.20625   0.25000   0.00000  Uiso   1.00
O48    O     0.10655   0.12709   0.24999   0.00000  Uiso   1.00
O49    O     0.16666   0.20627   0.18513   0.00000  Uiso   1.00
O50    O     0.16668   0.12707   0.31487   0.00000  Uiso   1.00
O51    O     0.16668   0.20627   0.31487   0.00000  Uiso   1.00
O52    O     0.16666   0.12707   0.18513   0.00000  Uiso   1.00
C53    C     0.13461   0.04080   0.04461   0.00000  Uiso   1.00
N54    N     0.12545   0.00631   0.06222   0.00000  Uiso   1.00
C55    C     0.19872   0.29253   0.45538   0.00000  Uiso   1.00
N56    N     0.20789   0.32702   0.43778   0.00000  Uiso   1.00
C57    C     0.04364   0.12119   0.17969   0.00000  Uiso   1.00
N58    N     0.06133   0.10343   0.15099   0.00000  Uiso   1.00
C59    C     0.28969   0.21214   0.32031   0.00000  Uiso   1.00
N60    N     0.27200   0.22989   0.34901   0.00000  Uiso   1.00
C61    C     0.28905   0.12115   0.17986   0.00000  Uiso   1.00
N62    N     0.27103   0.10336   0.15128   0.00000  Uiso   1.00
C63    C     0.04428   0.21219   0.32014   0.00000  Uiso   1.00
N64    N     0.06230   0.22998   0.34872   0.00000  Uiso   1.00
C65    C     0.42087   0.16667   0.24991   0.00000  Uiso   1.00
C66    C     0.57913   0.16667   0.25009   0.00000  Uiso   1.00
C67    C     0.47929   0.08396   0.02265   0.00000  Uiso   1.00
C68    C     0.52071   0.24937   0.47735   0.00000  Uiso   1.00
C69    C     0.35475   0.14354   0.21569   0.00000  Uiso   1.00
C70    C     0.64525   0.18979   0.28431   0.00000  Uiso   1.00
C71    C     0.64496   0.14354   0.21575   0.00000  Uiso   1.00
C72    C     0.35504   0.18980   0.28425   0.00000  Uiso   1.00
C73    C     0.62379   0.16666   0.25006   0.00000  Uiso   1.00
C74    C     0.37621   0.16667   0.24994   0.00000  Uiso   1.00
C75    C     0.47540   0.02486   0.22131   0.00000  Uiso   1.00
C76    C     0.52460   0.30847   0.27869   0.00000  Uiso   1.00
C77    C     0.52460   0.02475   0.27869   0.00000  Uiso   1.00
C78    C     0.47540   0.30858   0.22131   0.00000  Uiso   1.00
C79    C     0.49995   0.16669   0.16431   0.00000  Uiso   1.00
C80    C     0.50005   0.16664   0.33569   0.00000  Uiso   1.00
C81    C     0.50998   0.20775   0.40707   0.00000  Uiso   1.00
C82    C     0.49002   0.12559   0.09293   0.00000  Uiso   1.00
C83    C     0.50012   0.16667   0.38406   0.00000  Uiso   1.00
C84    C     0.49988   0.16666   0.11594   0.00000  Uiso   1.00
C85    C     0.49028   0.12573   0.40724   0.00000  Uiso   1.00
C86    C     0.50972   0.20760   0.09276   0.00000  Uiso   1.00
C87    C     0.48997   0.12558   0.45340   0.00000  Uiso   1.00
C88    C     0.51003   0.20775   0.04660   0.00000  Uiso   1.00
C89    C     0.50008   0.16685   0.47673   0.00000  Uiso   1.00
C90    C     0.49992   0.16648   0.02327   0.00000  Uiso   1.00
C91    C     0.51034   0.20842   0.45350   0.00000  Uiso   1.00
C92    C     0.48966   0.12491   0.04650   0.00000  Uiso   1.00
C93    C     0.47953   0.08469   0.47640   0.00000  Uiso   1.00
C94    C     0.52047   0.24865   0.02360   0.00000  Uiso   1.00
Cu95   Cu    0.50000   0.21355   0.25000   0.00000  Uiso   1.00
Cu96   Cu    0.50000   0.11978   0.25000   0.00000  Uiso   1.00
H97    H     0.51771   0.23905   0.38854   0.00000  Uiso   1.00
H98    H     0.48229   0.09429   0.11146   0.00000  Uiso   1.00
H99    H     0.48244   0.09401   0.38935   0.00000  Uiso   1.00
H100   H     0.51756   0.23932   0.11065   0.00000  Uiso   1.00
H101   H     0.47141   0.05322   0.45822   0.00000  Uiso   1.00
H102   H     0.52858   0.28012   0.04178   0.00000  Uiso   1.00
H103   H     0.45571   0.04359   0.19832   0.00000  Uiso   1.00
H104   H     0.54430   0.28974   0.30168   0.00000  Uiso   1.00
H105   H     0.54432   0.04340   0.30166   0.00000  Uiso   1.00
H106   H     0.45568   0.28993   0.19834   0.00000  Uiso   1.00
N107   N     0.50000   0.28402   0.25000   0.00000  Uiso   1.00
N108   N     0.50000   0.04931   0.25000   0.00000  Uiso   1.00
O109   O     0.43988   0.20625   0.24999   0.00000  Uiso   1.00
O110   O     0.56012   0.12709   0.25000   0.00000  Uiso   1.00
O111   O     0.56012   0.20625   0.25000   0.00000  Uiso   1.00
O112   O     0.43988   0.12709   0.24999   0.00000  Uiso   1.00
O113   O     0.49999   0.20627   0.18513   0.00000  Uiso   1.00
O114   O     0.50001   0.12707   0.31487   0.00000  Uiso   1.00
O115   O     0.50001   0.20627   0.31487   0.00000  Uiso   1.00
O116   O     0.49999   0.12707   0.18513   0.00000  Uiso   1.00
C117   C     0.46794   0.04080   0.04461   0.00000  Uiso   1.00
N118   N     0.45878   0.00631   0.06222   0.00000  Uiso   1.00
C119   C     0.53206   0.29253   0.45538   0.00000  Uiso   1.00
N120   N     0.54122   0.32702   0.43778   0.00000  Uiso   1.00
C121   C     0.37698   0.12119   0.17969   0.00000  Uiso   1.00
N122   N     0.39466   0.10343   0.15099   0.00000  Uiso   1.00
C123   C     0.62302   0.21214   0.32031   0.00000  Uiso   1.00
N124   N     0.60534   0.22989   0.34901   0.00000  Uiso   1.00
C125   C     0.62239   0.12115   0.17986   0.00000  Uiso   1.00
N126   N     0.60437   0.10336   0.15128   0.00000  Uiso   1.00
C127   C     0.37761   0.21219   0.32014   0.00000  Uiso   1.00
N128   N     0.39563   0.22998   0.34872   0.00000  Uiso   1.00
C129   C     0.75420   0.16667   0.24991   0.00000  Uiso   1.00
C130   C     0.91247   0.16667   0.25009   0.00000  Uiso   1.00
C131   C     0.81263   0.08396   0.02265   0.00000  Uiso   1.00
C132   C     0.85404   0.24937   0.47735   0.00000  Uiso   1.00
C133   C     0.68809   0.14354   0.21569   0.00000  Uiso   1.00
C134   C     0.97858   0.18979   0.28431   0.00000  Uiso   1.00
C135   C     0.97829   0.14354   0.21575   0.00000  Uiso   1.00
C136   C     0.68838   0.18980   0.28425   0.00000  Uiso   1.00
C137   C     0.95713   0.16666   0.25006   0.00000  Uiso   1.00
C138   C     0.70954   0.16667   0.24994   0.00000  Uiso   1.00
C139   C     0.80874   0.02486   0.22131   0.00000  Uiso   1.00
C140   C     0.85793   0.30847   0.27869   0.00000  Uiso   1.00
C141   C     0.85794   0.02475   0.27869   0.00000  Uiso   1.00
C142   C     0.80873   0.30858   0.22131   0.00000  Uiso   1.00
C143   C     0.83328   0.16669   0.16431   0.00000  Uiso   1.00
C144   C     0.83338   0.16664   0.33569   0.00000  Uiso   1.00
C145   C     0.84332   0.20775   0.40707   0.00000  Uiso   1.00
C146   C     0.82335   0.12559   0.09293   0.00000  Uiso   1.00
C147   C     0.83345   0.16667   0.38406   0.00000  Uiso   1.00
C148   C     0.83321   0.16666   0.11594   0.00000  Uiso   1.00
C149   C     0.82361   0.12573   0.40724   0.00000  Uiso   1.00
C150   C     0.84306   0.20760   0.09276   0.00000  Uiso   1.00
C151   C     0.82330   0.12558   0.45340   0.00000  Uiso   1.00
C152   C     0.84337   0.20775   0.04660   0.00000  Uiso   1.00
C153   C     0.83341   0.16685   0.47673   0.00000  Uiso   1.00
C154   C     0.83325   0.16648   0.02327   0.00000  Uiso   1.00
C155   C     0.84367   0.20842   0.45350   0.00000  Uiso   1.00
C156   C     0.82300   0.12491   0.04650   0.00000  Uiso   1.00
C157   C     0.81286   0.08469   0.47640   0.00000  Uiso   1.00
C158   C     0.85380   0.24865   0.02360   0.00000  Uiso   1.00
Cu159  Cu    0.83333   0.21355   0.25000   0.00000  Uiso   1.00
Cu160  Cu    0.83333   0.11978   0.25000   0.00000  Uiso   1.00
H161   H     0.85104   0.23905   0.38854   0.00000  Uiso   1.00
H162   H     0.81562   0.09429   0.11146   0.00000  Uiso   1.00
H163   H     0.81577   0.09401   0.38935   0.00000  Uiso   1.00
H164   H     0.85089   0.23932   0.11065   0.00000  Uiso   1.00
H165   H     0.80475   0.05322   0.45822   0.00000  Uiso   1.00
H166   H     0.86192   0.28012   0.04178   0.00000  Uiso   1.00
H167   H     0.78904   0.04359   0.19832   0.00000  Uiso   1.00
H168   H     0.87763   0.28974   0.30168   0.00000  Uiso   1.00
H169   H     0.87766   0.04340   0.30166   0.00000  Uiso   1.00
H170   H     0.78901   0.28993   0.19834   0.00000  Uiso   1.00
N171   N     0.83333   0.28402   0.25000   0.00000  Uiso   1.00
N172   N     0.83333   0.04931   0.25000   0.00000  Uiso   1.00
O173   O     0.77321   0.20625   0.24999   0.00000  Uiso   1.00
O174   O     0.89345   0.12709   0.25000   0.00000  Uiso   1.00
O175   O     0.89345   0.20625   0.25000   0.00000  Uiso   1.00
O176   O     0.77321   0.12709   0.24999   0.00000  Uiso   1.00
O177   O     0.83332   0.20627   0.18513   0.00000  Uiso   1.00
O178   O     0.83334   0.12707   0.31487   0.00000  Uiso   1.00
O179   O     0.83334   0.20627   0.31487   0.00000  Uiso   1.00
O180   O     0.83332   0.12707   0.18513   0.00000  Uiso   1.00
C181   C     0.80127   0.04080   0.04461   0.00000  Uiso   1.00
N182   N     0.79211   0.00631   0.06222   0.00000  Uiso   1.00
C183   C     0.86539   0.29253   0.45538   0.00000  Uiso   1.00
N184   N     0.87455   0.32702   0.43778   0.00000  Uiso   1.00
C185   C     0.71031   0.12119   0.17969   0.00000  Uiso   1.00
N186   N     0.72800   0.10343   0.15099   0.00000  Uiso   1.00
C187   C     0.95636   0.21214   0.32031   0.00000  Uiso   1.00
N188   N     0.93867   0.22989   0.34901   0.00000  Uiso   1.00
C189   C     0.95572   0.12115   0.17986   0.00000  Uiso   1.00
N190   N     0.93770   0.10336   0.15128   0.00000  Uiso   1.00
C191   C     0.71095   0.21219   0.32014   0.00000  Uiso   1.00
N192   N     0.72897   0.22998   0.34872   0.00000  Uiso   1.00
C193   C     0.08753   0.50000   0.24991   0.00000  Uiso   1.00
C194   C     0.24580   0.50000   0.25009   0.00000  Uiso   1.00
C195   C     0.14596   0.41729   0.02265   0.00000  Uiso   1.00
C196   C     0.18737   0.58271   0.47735   0.00000  Uiso   1.00
C197   C     0.02142   0.47687   0.21569   0.00000  Uiso   1.00
C198   C     0.31191   0.52313   0.28431   0.00000  Uiso   1.00
C199   C     0.31162   0.47687   0.21575   0.00000  Uiso   1.00
C200   C     0.02171   0.52313   0.28425   0.00000  Uiso   1.00
C201   C     0.29046   0.50000   0.25006   0.00000  Uiso   1.00
C202   C     0.04287   0.50000   0.24994   0.00000  Uiso   1.00
C203   C     0.14207   0.35819   0.22131   0.00000  Uiso   1.00
C204   C     0.19126   0.64181   0.27869   0.00000  Uiso   1.00
C205   C     0.19127   0.35808   0.27869   0.00000  Uiso   1.00
C206   C     0.14206   0.64192   0.22131   0.00000  Uiso   1.00
C207   C     0.16662   0.50002   0.16431   0.00000  Uiso   1.00
C208   C     0.16672   0.49998   0.33569   0.00000  Uiso   1.00
C209   C     0.17665   0.54108   0.40707   0.00000  Uiso   1.00
C210   C     0.15668   0.45892   0.09293   0.00000  Uiso   1.00
C211   C     0.16679   0.50000   0.38406   0.00000  Uiso   1.00
C212   C     0.16655   0.50000   0.11594   0.00000  Uiso   1.00
C213   C     0.15694   0.45906   0.40724   0.00000  Uiso   1.00
C214   C     0.17639   0.54094   0.09276   0.00000  Uiso   1.00
C215   C     0.15663   0.45891   0.45340   0.00000  Uiso   1.00
C216   C     0.17670   0.54109   0.04660   0.00000  Uiso   1.00
C217   C     0.16675   0.50019   0.47673   0.00000  Uiso   1.00
C218   C     0.16658   0.49981   0.02327   0.00000  Uiso   1.00
C219   C     0.17700   0.54175   0.45350   0.00000  Uiso   1.00
C220   C     0.15633   0.45825   0.04650   0.00000  Uiso   1.00
C221   C     0.14619   0.41802   0.47640   0.00000  Uiso   1.00
C222   C     0.18714   0.58198   0.02360   0.00000  Uiso   1.00
Cu223  Cu    0.16667   0.54689   0.25000   0.00000  Uiso   1.00
Cu224  Cu    0.16667   0.45311   0.25000   0.00000  Uiso   1.00
H225   H     0.18438   0.57238   0.38854   0.00000  Uiso   1.00
H226   H     0.14896   0.42762   0.11146   0.00000  Uiso   1.00
H227   H     0.14911   0.42735   0.38935   0.00000  Uiso   1.00
H228   H     0.18422   0.57265   0.11065   0.00000  Uiso   1.00
H229   H     0.13808   0.38655   0.45822   0.00000  Uiso   1.00
H230   H     0.19525   0.61345   0.04178   0.00000  Uiso   1.00
H231   H     0.12237   0.37692   0.19832   0.00000  Uiso   1.00
H232   H     0.21096   0.62308   0.30168   0.00000  Uiso   1.00
H233   H     0.21099   0.37674   0.30166   0.00000  Uiso   1.00
H234   H     0.12234   0.62326   0.19834   0.00000  Uiso   1.00
N235   N     0.16667   0.61736   0.25000   0.00000  Uiso   1.00
N236   N     0.16667   0.38264   0.25000   0.00000  Uiso   1.00
O237   O     0.10655   0.53958   0.24999   0.00000  Uiso   1.00
O238   O     0.22679   0.46042   0.25000   0.00000  Uiso   1.00
O239   O     0.22679   0.53958   0.25000   0.00000  Uiso   1.00
O240   O     0.10655   0.46042   0.24999   0.00000  Uiso   1.00
O241   O     0.16666   0.53960   0.18513   0.00000  Uiso   1.00
O242   O     0.16668   0.46040   0.31487   0.00000  Uiso   1.00
O243   O     0.16668   0.53960   0.31487   0.00000  Uiso   1.00
O244   O     0.16666   0.46040   0.18513   0.00000  Uiso   1.00
C245   C     0.13461   0.37414   0.04461   0.00000  Uiso   1.00
N246   N     0.12545   0.33965   0.06222   0.00000  Uiso   1.00
C247   C     0.19872   0.62586   0.45538   0.00000  Uiso   1.00
N248   N     0.20789   0.66036   0.43778   0.00000  Uiso   1.00
C249   C     0.04364   0.45453   0.17969   0.00000  Uiso   1.00
N250   N     0.06133   0.43677   0.15099   0.00000  Uiso   1.00
C251   C     0.28969   0.54547   0.32031   0.00000  Uiso   1.00
N252   N     0.27200   0.56323   0.34901   0.00000  Uiso   1.00
C253   C     0.28905   0.45448   0.17986   0.00000  Uiso   1.00
N254   N     0.27103   0.43669   0.15128   0.00000  Uiso   1.00
C255   C     0.04428   0.54552   0.32014   0.00000  Uiso   1.00
N256   N     0.06230   0.56331   0.34872   0.00000  Uiso   1.00
C257   C     0.42087   0.50000   0.24991   0.00000  Uiso   1.00
C258   C     0.57913   0.50000   0.25009   0.00000  Uiso   1.00
C259   C     0.47929   0.41729   0.02265   0.00000  Uiso   1.00
C260   C     0.52071   0.58271   0.47735   0.00000  Uiso   1.00
C261   C     0.35475   0.47687   0.21569   0.00000  Uiso   1.00
C262   C     0.64525   0.52313   0.28431   0.00000  Uiso   1.00
C263   C     0.64496   0.47687   0.21575   0.00000  Uiso   1.00
C264   C     0.35504   0.52313   0.28425   0.00000  Uiso   1.00
C265   C     0.62379   0.50000   0.25006   0.00000  Uiso   1.00
C266   C     0.37621   0.50000   0.24994   0.00000  Uiso   1.00
C267   C     0.47540   0.35819   0.22131   0.00000  Uiso   1.00
C268   C     0.52460   0.64181   0.27869   0.00000  Uiso   1.00
C269   C     0.52460   0.35808   0.27869   0.00000  Uiso   1.00
C270   C     0.47540   0.64192   0.22131   0.00000  Uiso   1.00
C271   C     0.49995   0.50002   0.16431   0.00000  Uiso   1.00
C272   C     0.50005   0.49998   0.33569   0.00000  Uiso   1.00
C273   C     0.50998   0.54108   0.40707   0.00000  Uiso   1.00
C274   C     0.49002   0.45892   0.09293   0.00000  Uiso   1.00
C275   C     0.50012   0.50000   0.38406   0.00000  Uiso   1.00
C276   C     0.49988   0.50000   0.11594   0.00000  Uiso   1.00
C277   C     0.49028   0.45906   0.40724   0.00000  Uiso   1.00
C278   C     0.50972   0.54094   0.09276   0.00000  Uiso   1.00
C279   C     0.48997   0.45891   0.45340   0.00000  Uiso   1.00
C280   C     0.51003   0.54109   0.04660   0.00000  Uiso   1.00
C281   C     0.50008   0.50019   0.47673   0.00000  Uiso   1.00
C282   C     0.49992   0.49981   0.02327   0.00000  Uiso   1.00
C283   C     0.51034   0.54175   0.45350   0.00000  Uiso   1.00
C284   C     0.48966   0.45825   0.04650   0.00000  Uiso   1.00
C285   C     0.47953   0.41802   0.47640   0.00000  Uiso   1.00
C286   C     0.52047   0.58198   0.02360   0.00000  Uiso   1.00
Cu287  Cu    0.50000   0.54689   0.25000   0.00000  Uiso   1.00
Cu288  Cu    0.50000   0.45311   0.25000   0.00000  Uiso   1.00
H289   H     0.51771   0.57238   0.38854   0.00000  Uiso   1.00
H290   H     0.48229   0.42762   0.11146   0.00000  Uiso   1.00
H291   H     0.48244   0.42735   0.38935   0.00000  Uiso   1.00
H292   H     0.51756   0.57265   0.11065   0.00000  Uiso   1.00
H293   H     0.47141   0.38655   0.45822   0.00000  Uiso   1.00
H294   H     0.52858   0.61345   0.04178   0.00000  Uiso   1.00
H295   H     0.45571   0.37692   0.19832   0.00000  Uiso   1.00
H296   H     0.54430   0.62308   0.30168   0.00000  Uiso   1.00
H297   H     0.54432   0.37674   0.30166   0.00000  Uiso   1.00
H298   H     0.45568   0.62326   0.19834   0.00000  Uiso   1.00
N299   N     0.50000   0.61736   0.25000   0.00000  Uiso   1.00
N300   N     0.50000   0.38264   0.25000   0.00000  Uiso   1.00
O301   O     0.43988   0.53958   0.24999   0.00000  Uiso   1.00
O302   O     0.56012   0.46042   0.25000   0.00000  Uiso   1.00
O303   O     0.56012   0.53958   0.25000   0.00000  Uiso   1.00
O304   O     0.43988   0.46042   0.24999   0.00000  Uiso   1.00
O305   O     0.49999   0.53960   0.18513   0.00000  Uiso   1.00
O306   O     0.50001   0.46040   0.31487   0.00000  Uiso   1.00
O307   O     0.50001   0.53960   0.31487   0.00000  Uiso   1.00
O308   O     0.49999   0.46040   0.18513   0.00000  Uiso   1.00
C309   C     0.46794   0.37414   0.04461   0.00000  Uiso   1.00
N310   N     0.45878   0.33965   0.06222   0.00000  Uiso   1.00
C311   C     0.53206   0.62586   0.45538   0.00000  Uiso   1.00
N312   N     0.54122   0.66036   0.43778   0.00000  Uiso   1.00
C313   C     0.37698   0.45453   0.17969   0.00000  Uiso   1.00
N314   N     0.39466   0.43677   0.15099   0.00000  Uiso   1.00
C315   C     0.62302   0.54547   0.32031   0.00000  Uiso   1.00
N316   N     0.60534   0.56323   0.34901   0.00000  Uiso   1.00
C317   C     0.62239   0.45448   0.17986   0.00000  Uiso   1.00
N318   N     0.60437   0.43669   0.15128   0.00000  Uiso   1.00
C319   C     0.37761   0.54552   0.32014   0.00000  Uiso   1.00
N320   N     0.39563   0.56331   0.34872   0.00000  Uiso   1.00
C321   C     0.75420   0.50000   0.24991   0.00000  Uiso   1.00
C322   C     0.91247   0.50000   0.25009   0.00000  Uiso   1.00
C323   C     0.81263   0.41729   0.02265   0.00000  Uiso   1.00
C324   C     0.85404   0.58271   0.47735   0.00000  Uiso   1.00
C325   C     0.68809   0.47687   0.21569   0.00000  Uiso   1.00
C326   C     0.97858   0.52313   0.28431   0.00000  Uiso   1.00
C327   C     0.97829   0.47687   0.21575   0.00000  Uiso   1.00
C328   C     0.68838   0.52313   0.28425   0.00000  Uiso   1.00
C329   C     0.95713   0.50000   0.25006   0.00000  Uiso   1.00
C330   C     0.70954   0.50000   0.24994   0.00000  Uiso   1.00
C331   C     0.80874   0.35819   0.22131   0.00000  Uiso   1.00
C332   C     0.85793   0.64181   0.27869   0.00000  Uiso   1.00
C333   C     0.85794   0.35808   0.27869   0.00000  Uiso   1.00
C334   C     0.80873   0.64192   0.22131   0.00000  Uiso   1.00
C335   C     0.83328   0.50002   0.16431   0.00000  Uiso   1.00
C336   C     0.83338   0.49998   0.33569   0.00000  Uiso   1.00
C337   C     0.84332   0.54108   0.40707   0.00000  Uiso   1.00
C338   C     0.82335   0.45892   0.09293   0.00000  Uiso   1.00
C339   C     0.83345   0.50000   0.38406   0.00000  Uiso   1.00
C340   C     0.83321   0.50000   0.11594   0.00000  Uiso   1.00
C341   C     0.82361   0.45906   0.40724   0.00000  Uiso   1.00
C342   C     0.84306   0.54094   0.09276   0.00000  Uiso   1.00
C343   C     0.82330   0.45891   0.45340   0.00000  Uiso   1.00
C344   C     0.84337   0.54109   0.04660   0.00000  Uiso   1.00
C345   C     0.83341   0.50019   0.47673   0.00000  Uiso   1.00
C346   C     0.83325   0.49981   0.02327   0.00000  Uiso   1.00
C347   C     0.84367   0.54175   0.45350   0.00000  Uiso   1.00
C348   C     0.82300   0.45825   0.04650   0.00000  Uiso   1.00
C349   C     0.81286   0.41802   0.47640   0.00000  Uiso   1.00
C350   C     0.85380   0.58198   0.02360   0.00000  Uiso   1.00
Cu351  Cu    0.83333   0.54689   0.25000   0.00000  Uiso   1.00
Cu352  Cu    0.83333   0.45311   0.25000   0.00000  Uiso   1.00
H353   H     0.85104   0.57238   0.38854   0.00000  Uiso   1.00
H354   H     0.81562   0.42762   0.11146   0.00000  Uiso   1.00
H355   H     0.81577   0.42735   0.38935   0.00000  Uiso   1.00
H356   H     0.85089   0.57265   0.11065   0.00000  Uiso   1.00
H357   H     0.80475   0.38655   0.45822   0.00000  Uiso   1.00
H358   H     0.86192   0.61345   0.04178   0.00000  Uiso   1.00
H359   H     0.78904   0.37692   0.19832   0.00000  Uiso   1.00
H360   H     0.87763   0.62308   0.30168   0.00000  Uiso   1.00
H361   H     0.87766   0.37674   0.30166   0.00000  Uiso   1.00
H362   H     0.78901   0.62326   0.19834   0.00000  Uiso   1.00
N363   N     0.83333   0.61736   0.25000   0.00000  Uiso   1.00
N364   N     0.83333   0.38264   0.25000   0.00000  Uiso   1.00
O365   O     0.77321   0.53958   0.24999   0.00000  Uiso   1.00
O366   O     0.89345   0.46042   0.25000   0.00000  Uiso   1.00
O367   O     0.89345   0.53958   0.25000   0.00000  Uiso   1.00
O368   O     0.77321   0.46042   0.24999   0.00000  Uiso   1.00
O369   O     0.83332   0.53960   0.18513   0.00000  Uiso   1.00
O370   O     0.83334   0.46040   0.31487   0.00000  Uiso   1.00
O371   O     0.83334   0.53960   0.31487   0.00000  Uiso   1.00
O372   O     0.83332   0.46040   0.18513   0.00000  Uiso   1.00
C373   C     0.80127   0.37414   0.04461   0.00000  Uiso   1.00
N374   N     0.79211   0.33965   0.06222   0.00000  Uiso   1.00
C375   C     0.86539   0.62586   0.45538   0.00000  Uiso   1.00
N376   N     0.87455   0.66036   0.43778   0.00000  Uiso   1.00
C377   C     0.71031   0.45453   0.17969   0.00000  Uiso   1.00
N378   N     0.72800   0.43677   0.15099   0.00000  Uiso   1.00
C379   C     0.95636   0.54547   0.32031   0.00000  Uiso   1.00
N380   N     0.93867   0.56323   0.34901   0.00000  Uiso   1.00
C381   C     0.95572   0.45448   0.17986   0.00000  Uiso   1.00
N382   N     0.93770   0.43669   0.15128   0.00000  Uiso   1.00
C383   C     0.71095   0.54552   0.32014   0.00000  Uiso   1.00
N384   N     0.72897   0.56331   0.34872   0.00000  Uiso   1.00
C385   C     0.08753   0.83333   0.24991   0.00000  Uiso   1.00
C386   C     0.24580   0.83333   0.25009   0.00000  Uiso   1.00
C387   C     0.14596   0.75063   0.02265   0.00000  Uiso   1.00
C388   C     0.18737   0.91604   0.47735   0.00000  Uiso   1.00
C389   C     0.02142   0.81021   0.21569   0.00000  Uiso   1.00
C390   C     0.31191   0.85646   0.28431   0.00000  Uiso   1.00
C391   C     0.31162   0.81020   0.21575   0.00000  Uiso   1.00
C392   C     0.02171   0.85646   0.28425   0.00000  Uiso   1.00
C393   C     0.29046   0.83333   0.25006   0.00000  Uiso   1.00
C394   C     0.04287   0.83334   0.24994   0.00000  Uiso   1.00
C395   C     0.14207   0.69153   0.22131   0.00000  Uiso   1.00
C396   C     0.19126   0.97514   0.27869   0.00000  Uiso   1.00
C397   C     0.19127   0.69142   0.27869   0.00000  Uiso   1.00
C398   C     0.14206   0.97525   0.22131   0.00000  Uiso   1.00
C399   C     0.16662   0.83336   0.16431   0.00000  Uiso   1.00
C400   C     0.16672   0.83331   0.33569   0.00000  Uiso   1.00
C401   C     0.17665   0.87441   0.40707   0.00000  Uiso   1.00
C402   C     0.15668   0.79225   0.09293   0.00000  Uiso   1.00
C403   C     0.16679   0.83334   0.38406   0.00000  Uiso   1.00
C404   C     0.16655   0.83333   0.11594   0.00000  Uiso   1.00
C405   C     0.15694   0.79240   0.40724   0.00000  Uiso   1.00
C406   C     0.17639   0.87427   0.09276   0.00000  Uiso   1.00
C407   C     0.15663   0.79225   0.45340   0.00000  Uiso   1.00
C408   C     0.17670   0.87442   0.04660   0.00000  Uiso   1.00
C409   C     0.16675   0.83352   0.47673   0.00000  Uiso   1.00
C410   C     0.16658   0.83315   0.02327   0.00000  Uiso   1.00
C411   C     0.17700   0.87509   0.45350   0.00000  Uiso   1.00
C412   C     0.15633   0.79158   0.04650   0.00000  Uiso   1.00
C413   C     0.14619   0.75135   0.47640   0.00000  Uiso   1.00
C414   C     0.18714   0.91532   0.02360   0.00000  Uiso   1.00
Cu415  Cu    0.16667   0.88022   0.25000   0.00000  Uiso   1.00
Cu416  Cu    0.16667   0.78645   0.25000   0.00000  Uiso   1.00
H417   H     0.18438   0.90571   0.38854   0.00000  Uiso   1.00
H418   H     0.14896   0.76095   0.11146   0.00000  Uiso   1.00
H419   H     0.14911   0.76068   0.38935   0.00000  Uiso   1.00
H420   H     0.18422   0.90599   0.11065   0.00000  Uiso   1.00
H421   H     0.13808   0.71989   0.45822   0.00000  Uiso   1.00
H422   H     0.19525   0.94678   0.04178   0.00000  Uiso   1.00
H423   H     0.12237   0.71026   0.19832   0.00000  Uiso   1.00
H424   H     0.21096   0.95641   0.30168   0.00000  Uiso   1.00
H425   H     0.21099   0.71007   0.30166   0.00000  Uiso   1.00
H426   H     0.12234   0.95660   0.19834   0.00000  Uiso   1.00
N427   N     0.16667   0.95069   0.25000   0.00000  Uiso   1.00
N428   N     0.16667   0.71598   0.25000   0.00000  Uiso   1.00
O429   O     0.10655   0.87291   0.24999   0.00000  Uiso   1.00
O430   O     0.22679   0.79375   0.25000   0.00000  Uiso   1.00
O431   O     0.22679   0.87291   0.25000   0.00000  Uiso   1.00
O432   O     0.10655   0.79375   0.24999   0.00000  Uiso   1.00
O433   O     0.16666   0.87293   0.18513   0.00000  Uiso   1.00
O434   O     0.16668   0.79373   0.31487   0.00000  Uiso   1.00
O435   O     0.16668   0.87293   0.31487   0.00000  Uiso   1.00
O436   O     0.16666   0.79373   0.18513   0.00000  Uiso   1.00
C437   C     0.13461   0.70747   0.04461   0.00000  Uiso   1.00
N438   N     0.12545   0.67298   0.06222   0.00000  Uiso   1.00
C439   C     0.19872   0.95920   0.45538   0.00000  Uiso   1.00
N440   N     0.20789   0.99369   0.43778   0.00000  Uiso   1.00
C441   C     0.04364   0.78786   0.17969   0.00000  Uiso   1.00
N442   N     0.06133   0.77010   0.15099   0.00000  Uiso   1.00
C443   C     0.28969   0.87880   0.32031   0.00000  Uiso   1.00
N444   N     0.27200   0.89656   0.34901   0.00000  Uiso   1.00
C445   C     0.28905   0.78781   0.17986   0.00000  Uiso   1.00
N446   N     0.27103   0.77002   0.15128   0.00000  Uiso   1.00
C447   C     0.04428   0.87886   0.32014   0.00000  Uiso   1.00
N448   N     0.06230   0.89664   0.34872   0.00000  Uiso   1.00
C449   C     0.42087   0.83333   0.24991   0.00000  Uiso   1.00
C450   C     0.57913   0.83333   0.25009   0.00000  Uiso   1.00
C451   C     0.47929   0.75063   0.02265   0.00000  Uiso   1.00
C452   C     0.52071   0.91604   0.47735   0.00000  Uiso   1.00
C453   C     0.35475   0.81021   0.21569   0.00000  Uiso   1.00
C454   C     0.64525   0.85646   0.28431   0.00000  Uiso   1.00
C455   C     0.64496   0.81020   0.21575   0.00000  Uiso   1.00
C456   C     0.35504   0.85646   0.28425   0.00000  Uiso   1.00
C457   C     0.62379   0.83333   0.25006   0.00000  Uiso   1.00
C458   C     0.37621   0.83334   0.24994   0.00000  Uiso   1.00
C459   C     0.47540   0.69153   0.22131   0.00000  Uiso   1.00
C460   C     0.52460   0.97514   0.27869   0.00000  Uiso   1.00
C461   C     0.52460   0.69142   0.27869   0.00000  Uiso   1.00
C462   C     0.47540   0.97525   0.22131   0.00000  Uiso   1.00
C463   C     0.49995   0.83336   0.16431   0.00000  Uiso   1.00
C464   C     0.50005   0.83331   0.33569   0.00000  Uiso   1.00
C465   C     0.50998   0.87441   0.40707   0.00000  Uiso   1.00
C466   C     0.49002   0.79225   0.09293   0.00000  Uiso   1.00
C467   C     0.50012   0.83334   0.38406   0.00000  Uiso   1.00
C468   C     0.49988   0.83333   0.11594   0.00000  Uiso   1.00
C469   C     0.49028   0.79240   0.40724   0.00000  Uiso   1.00
C470   C     0.50972   0.87427   0.09276   0.00000  Uiso   1.00
C471   C     0.48997   0.79225   0.45340   0.00000  Uiso   1.00
C472   C     0.51003   0.87442   0.04660   0.00000  Uiso   1.00
C473   C     0.50008   0.83352   0.47673   0.00000  Uiso   1.00
C474   C     0.49992   0.83315   0.02327   0.00000  Uiso   1.00
C475   C     0.51034   0.87509   0.45350   0.00000  Uiso   1.00
C476   C     0.48966   0.79158   0.04650   0.00000  Uiso   1.00
C477   C     0.47953   0.75135   0.47640   0.00000  Uiso   1.00
C478   C     0.52047   0.91532   0.02360   0.00000  Uiso   1.00
Cu479  Cu    0.50000   0.88022   0.25000   0.00000  Uiso   1.00
Cu480  Cu    0.50000   0.78645   0.25000   0.00000  Uiso   1.00
H481   H     0.51771   0.90571   0.38854   0.00000  Uiso   1.00
H482   H     0.48229   0.76095   0.11146   0.00000  Uiso   1.00
H483   H     0.48244   0.76068   0.38935   0.00000  Uiso   1.00
H484   H     0.51756   0.90599   0.11065   0.00000  Uiso   1.00
H485   H     0.47141   0.71989   0.45822   0.00000  Uiso   1.00
H486   H     0.52858   0.94678   0.04178   0.00000  Uiso   1.00
H487   H     0.45571   0.71026   0.19832   0.00000  Uiso   1.00
H488   H     0.54430   0.95641   0.30168   0.00000  Uiso   1.00
H489   H     0.54432   0.71007   0.30166   0.00000  Uiso   1.00
H490   H     0.45568   0.95660   0.19834   0.00000  Uiso   1.00
N491   N     0.50000   0.95069   0.25000   0.00000  Uiso   1.00
N492   N     0.50000   0.71598   0.25000   0.00000  Uiso   1.00
O493   O     0.43988   0.87291   0.24999   0.00000  Uiso   1.00
O494   O     0.56012   0.79375   0.25000   0.00000  Uiso   1.00
O495   O     0.56012   0.87291   0.25000   0.00000  Uiso   1.00
O496   O     0.43988   0.79375   0.24999   0.00000  Uiso   1.00
O497   O     0.49999   0.87293   0.18513   0.00000  Uiso   1.00
O498   O     0.50001   0.79373   0.31487   0.00000  Uiso   1.00
O499   O     0.50001   0.87293   0.31487   0.00000  Uiso   1.00
O500   O     0.49999   0.79373   0.18513   0.00000  Uiso   1.00
C501   C     0.46794   0.70747   0.04461   0.00000  Uiso   1.00
N502   N     0.45878   0.67298   0.06222   0.00000  Uiso   1.00
C503   C     0.53206   0.95920   0.45538   0.00000  Uiso   1.00
N504   N     0.54122   0.99369   0.43778   0.00000  Uiso   1.00
C505   C     0.37698   0.78786   0.17969   0.00000  Uiso   1.00
N506   N     0.39466   0.77010   0.15099   0.00000  Uiso   1.00
C507   C     0.62302   0.87880   0.32031   0.00000  Uiso   1.00
N508   N     0.60534   0.89656   0.34901   0.00000  Uiso   1.00
C509   C     0.62239   0.78781   0.17986   0.00000  Uiso   1.00
N510   N     0.60437   0.77002   0.15128   0.00000  Uiso   1.00
C511   C     0.37761   0.87886   0.32014   0.00000  Uiso   1.00
N512   N     0.39563   0.89664   0.34872   0.00000  Uiso   1.00
C513   C     0.75420   0.83333   0.24991   0.00000  Uiso   1.00
C514   C     0.91247   0.83333   0.25009   0.00000  Uiso   1.00
C515   C     0.81263   0.75063   0.02265   0.00000  Uiso   1.00
C516   C     0.85404   0.91604   0.47735   0.00000  Uiso   1.00
C517   C     0.68809   0.81021   0.21569   0.00000  Uiso   1.00
C518   C     0.97858   0.85646   0.28431   0.00000  Uiso   1.00
C519   C     0.97829   0.81020   0.21575   0.00000  Uiso   1.00
C520   C     0.68838   0.85646   0.28425   0.00000  Uiso   1.00
C521   C     0.95713   0.83333   0.25006   0.00000  Uiso   1.00
C522   C     0.70954   0.83334   0.24994   0.00000  Uiso   1.00
C523   C     0.80874   0.69153   0.22131   0.00000  Uiso   1.00
C524   C     0.85793   0.97514   0.27869   0.00000  Uiso   1.00
C525   C     0.85794   0.69142   0.27869   0.00000  Uiso   1.00
C526   C     0.80873   0.97525   0.22131   0.00000  Uiso   1.00
C527   C     0.83328   0.83336   0.16431   0.00000  Uiso   1.00
C528   C     0.83338   0.83331   0.33569   0.00000  Uiso   1.00
C529   C     0.84332   0.87441   0.40707   0.00000  Uiso   1.00
C530   C     0.82335   0.79225   0.09293   0.00000  Uiso   1.00
C531   C     0.83345   0.83334   0.38406   0.00000  Uiso   1.00
C532   C     0.83321   0.83333   0.11594   0.00000  Uiso   1.00
C533   C     0.82361   0.79240   0.40724   0.00000  Uiso   1.00
C534   C     0.84306   0.87427   0.09276   0.00000  Uiso   1.00
C535   C     0.82330   0.79225   0.45340   0.00000  Uiso   1.00
C536   C     0.84337   0.87442   0.04660   0.00000  Uiso   1.00
C537   C     0.83341   0.83352   0.47673   0.00000  Uiso   1.00
C538   C     0.83325   0.83315   0.02327   0.00000  Uiso   1.00
C539   C     0.84367   0.87509   0.45350   0.00000  Uiso   1.00
C540   C     0.82300   0.79158   0.04650   0.00000  Uiso   1.00
C541   C     0.81286   0.75135   0.47640   0.00000  Uiso   1.00
C542   C     0.85380   0.91532   0.02360   0.00000  Uiso   1.00
Cu543  Cu    0.83333   0.88022   0.25000   0.00000  Uiso   1.00
Cu544  Cu    0.83333   0.78645   0.25000   0.00000  Uiso   1.00
H545   H     0.85104   0.90571   0.38854   0.00000  Uiso   1.00
H546   H     0.81562   0.76095   0.11146   0.00000  Uiso   1.00
H547   H     0.81577   0.76068   0.38935   0.00000  Uiso   1.00
H548   H     0.85089   0.90599   0.11065   0.00000  Uiso   1.00
H549   H     0.80475   0.71989   0.45822   0.00000  Uiso   1.00
H550   H     0.86192   0.94678   0.04178   0.00000  Uiso   1.00
H551   H     0.78904   0.71026   0.19832   0.00000  Uiso   1.00
H552   H     0.87763   0.95641   0.30168   0.00000  Uiso   1.00
H553   H     0.87766   0.71007   0.30166   0.00000  Uiso   1.00
H554   H     0.78901   0.95660   0.19834   0.00000  Uiso   1.00
N555   N     0.83333   0.95069   0.25000   0.00000  Uiso   1.00
N556   N     0.83333   0.71598   0.25000   0.00000  Uiso   1.00
O557   O     0.77321   0.87291   0.24999   0.00000  Uiso   1.00
O558   O     0.89345   0.79375   0.25000   0.00000  Uiso   1.00
O559   O     0.89345   0.87291   0.25000   0.00000  Uiso   1.00
O560   O     0.77321   0.79375   0.24999   0.00000  Uiso   1.00
O561   O     0.83332   0.87293   0.18513   0.00000  Uiso   1.00
O562   O     0.83334   0.79373   0.31487   0.00000  Uiso   1.00
O563   O     0.83334   0.87293   0.31487   0.00000  Uiso   1.00
O564   O     0.83332   0.79373   0.18513   0.00000  Uiso   1.00
C565   C     0.80127   0.70747   0.04461   0.00000  Uiso   1.00
N566   N     0.79211   0.67298   0.06222   0.00000  Uiso   1.00
C567   C     0.86539   0.95920   0.45538   0.00000  Uiso   1.00
N568   N     0.87455   0.99369   0.43778   0.00000  Uiso   1.00
C569   C     0.71031   0.78786   0.17969   0.00000  Uiso   1.00
N570   N     0.72800   0.77010   0.15099   0.00000  Uiso   1.00
C571   C     0.95636   0.87880   0.32031   0.00000  Uiso   1.00
N572   N     0.93867   0.89656   0.34901   0.00000  Uiso   1.00
C573   C     0.95572   0.78781   0.17986   0.00000  Uiso   1.00
N574   N     0.93770   0.77002   0.15128   0.00000  Uiso   1.00
C575   C     0.71095   0.87886   0.32014   0.00000  Uiso   1.00
N576   N     0.72897   0.89664   0.34872   0.00000  Uiso   1.00
C577   C     0.08753   0.16667   0.74991   0.00000  Uiso   1.00
C578   C     0.24580   0.16667   0.75009   0.00000  Uiso   1.00
C579   C     0.14596   0.08396   0.52265   0.00000  Uiso   1.00
C580   C     0.18737   0.24937   0.97735   0.00000  Uiso   1.00
C581   C     0.02142   0.14354   0.71569   0.00000  Uiso   1.00
C582   C     0.31191   0.18979   0.78431   0.00000  Uiso   1.00
C583   C     0.31162   0.14354   0.71575   0.00000  Uiso   1.00
C584   C     0.02171   0.18980   0.78425   0.00000  Uiso   1.00
C585   C     0.29046   0.16666   0.75006   0.00000  Uiso   1.00
C586   C     0.04287   0.16667   0.74994   0.00000  Uiso   1.00
C587   C     0.14207   0.02486   0.72131   0.00000  Uiso   1.00
C588   C     0.19126   0.30847   0.77869   0.00000  Uiso   1.00
C589   C     0.19127   0.02475   0.77869   0.00000  Uiso   1.00
C590   C     0.14206   0.30858   0.72131   0.00000  Uiso   1.00
C591   C     0.16662   0.16669   0.66431   0.00000  Uiso   1.00
C592   C     0.16672   0.16664   0.83569   0.00000  Uiso   1.00
C593   C     0.17665   0.20775   0.90707   0.00000  Uiso   1.00
C594   C     0.15668   0.12559   0.59293   0.00000  Uiso   1.00
C595   C     0.16679   0.16667   0.88406   0.00000  Uiso   1.00
C596   C     0.16655   0.16666   0.61594   0.00000  Uiso   1.00
C597   C     0.15694   0.12573   0.90724   0.00000  Uiso   1.00
C598   C     0.17639   0.20760   0.59276   0.00000  Uiso   1.00
C599   C     0.15663   0.12558   0.95340   0.00000  Uiso   1.00
C600   C     0.17670   0.20775   0.54660   0.00000  Uiso   1.00
C601   C     0.16675   0.16685   0.97673   0.00000  Uiso   1.00
C602   C     0.16658   0.16648   0.52327   0.00000  Uiso   1.00
C603   C     0.17700   0.20842   0.95350   0.00000  Uiso   1.00
C604   C     0.15633   0.12491   0.54650   0.00000  Uiso   1.00
C605   C     0.14619   0.08469   0.97640   0.00000  Uiso   1.00
C606   C     0.18714   0.24865   0.52360   0.00000  Uiso   1.00
Cu607  Cu    0.16667   0.21355   0.75000   0.00000  Uiso   1.00
Cu608  Cu    0.16667   0.11978   0.75000   0.00000  Uiso   1.00
H609   H     0.18438   0.23905   0.88854   0.00000  Uiso   1.00
H610   H     0.14896   0.09429   0.61146   0.00000  Uiso   1.00
H611   H     0.14911   0.09401   0.88935   0.00000  Uiso   1.00
H612   H     0.18422   0.23932   0.61065   0.00000  Uiso   1.00
H613   H     0.13808   0.05322   0.95822   0.00000  Uiso   1.00
H614   H     0.19525   0.28012   0.54178   0.00000  Uiso   1.00
H615   H     0.12237   0.04359   0.69832   0.00000  Uiso   1.00
H616   H     0.21096   0.28974   0.80168   0.00000  Uiso   1.00
H617   H     0.21099   0.04340   0.80166   0.00000  Uiso   1.00
H618   H     0.12234   0.28993   0.69834   0.00000  Uiso   1.00
N619   N     0.16667   0.28402   0.75000   0.00000  Uiso   1.00
N620   N     0.16667   0.04931   0.75000   0.00000  Uiso   1.00
O621   O     0.10655   0.20625   0.74999   0.00000  Uiso   1.00
O622   O     0.22679   0.12709   0.75000   0.00000  Uiso   1.00
O623   O     0.22679   0.20625   0.75000   0.00000  Uiso   1.00
O624   O     0.10655   0.12709   0.74999   0.00000  Uiso   1.00
O625   O     0.16666   0.20627   0.68513   0.00000  Uiso   1.00
O626   O     0.16668   0.12707   0.81487   0.00000  Uiso   1.00
O627   O     0.16668   0.20627   0.81487   0.00000  Uiso   1.00
O628   O     0.16666   0.12707   0.68513   0.00000  Uiso   1.00
C629   C     0.13461   0.04080   0.54461   0.00000  Uiso   1.00
N630   N     0.12545   0.00631   0.56222   0.00000  Uiso   1.00
C631   C     0.19872   0.29253   0.95538   0.00000  Uiso   1.00
N632   N     0.20789   0.32702   0.93778   0.00000  Uiso   1.00
C633   C     0.04364   0.12119   0.67969   0.00000  Uiso   1.00
N634   N     0.06133   0.10343   0.65099   0.00000  Uiso   1.00
C635   C     0.28969   0.21214   0.82031   0.00000  Uiso   1.00
N636   N     0.27200   0.22989   0.84901   0.00000  Uiso   1.00
C637   C     0.28905   0.12115   0.67986   0.00000  Uiso   1.00
N638   N     0.27103   0.10336   0.65128   0.00000  Uiso   1.00
C639   C     0.04428   0.21219   0.82014   0.00000  Uiso   1.00
N640   N     0.06230   0.22998   0.84872   0.00000  Uiso   1.00
C641   C     0.42087   0.16667   0.74991   0.00000  Uiso   1.00
C642   C     0.57913   0.16667   0.75009   0.00000  Uiso   1.00
C643   C     0.47929   0.08396   0.52265   0.00000  Uiso   1.00
C644   C     0.52071   0.24937   0.97735   0.00000  Uiso   1.00
C645   C     0.35475   0.14354   0.71569   0.00000  Uiso   1.00
C646   C     0.64525   0.18979   0.78431   0.00000  Uiso   1.00
C647   C     0.64496   0.14354   0.71575   0.00000  Uiso   1.00
C648   C     0.35504   0.18980   0.78425   0.00000  Uiso   1.00
C649   C     0.62379   0.16666   0.75006   0.00000  Uiso   1.00
C650   C     0.37621   0.16667   0.74994   0.00000  Uiso   1.00
C651   C     0.47540   0.02486   0.72131   0.00000  Uiso   1.00
C652   C     0.52460   0.30847   0.77869   0.00000  Uiso   1.00
C653   C     0.52460   0.02475   0.77869   0.00000  Uiso   1.00
C654   C     0.47540   0.30858   0.72131   0.00000  Uiso   1.00
C655   C     0.49995   0.16669   0.66431   0.00000  Uiso   1.00
C656   C     0.50005   0.16664   0.83569   0.00000  Uiso   1.00
C657   C     0.50998   0.20775   0.90707   0.00000  Uiso   1.00
C658   C     0.49002   0.12559   0.59293   0.00000  Uiso   1.00
C659   C     0.50012   0.16667   0.88406   0.00000  Uiso   1.00
C660   C     0.49988   0.16666   0.61594   0.00000  Uiso   1.00
C661   C     0.49028   0.12573   0.90724   0.00000  Uiso   1.00
C662   C     0.50972   0.20760   0.59276   0.00000  Uiso   1.00
C663   C     0.48997   0.12558   0.95340   0.00000  Uiso   1.00
C664   C     0.51003   0.20775   0.54660   0.00000  Uiso   1.00
C665   C     0.50008   0.16685   0.97673   0.00000  Uiso   1.00
C666   C     0.49992   0.16648   0.52327   0.00000  Uiso   1.00
C667   C     0.51034   0.20842   0.95350   0.00000  Uiso   1.00
C668   C     0.48966   0.12491   0.54650   0.00000  Uiso   1.00
C669   C     0.47953   0.08469   0.97640   0.00000  Uiso   1.00
C670   C     0.52047   0.24865   0.52360   0.00000  Uiso   1.00
Cu671  Cu    0.50000   0.21355   0.75000   0.00000  Uiso   1.00
Cu672  Cu    0.50000   0.11978   0.75000   0.00000  Uiso   1.00
H673   H     0.51771   0.23905   0.88854   0.00000  Uiso   1.00
H674   H     0.48229   0.09429   0.61146   0.00000  Uiso   1.00
H675   H     0.48244   0.09401   0.88935   0.00000  Uiso   1.00
H676   H     0.51756   0.23932   0.61065   0.00000  Uiso   1.00
H677   H     0.47141   0.05322   0.95822   0.00000  Uiso   1.00
H678   H     0.52858   0.28012   0.54178   0.00000  Uiso   1.00
H679   H     0.45571   0.04359   0.69832   0.00000  Uiso   1.00
H680   H     0.54430   0.28974   0.80168   0.00000  Uiso   1.00
H681   H     0.54432   0.04340   0.80166   0.00000  Uiso   1.00
H682   H     0.45568   0.28993   0.69834   0.00000  Uiso   1.00
N683   N     0.50000   0.28402   0.75000   0.00000  Uiso   1.00
N684   N     0.50000   0.04931   0.75000   0.00000  Uiso   1.00
O685   O     0.43988   0.20625   0.74999   0.00000  Uiso   1.00
O686   O     0.56012   0.12709   0.75000   0.00000  Uiso   1.00
O687   O     0.56012   0.20625   0.75000   0.00000  Uiso   1.00
O688   O     0.43988   0.12709   0.74999   0.00000  Uiso   1.00
O689   O     0.49999   0.20627   0.68513   0.00000  Uiso   1.00
O690   O     0.50001   0.12707   0.81487   0.00000  Uiso   1.00
O691   O     0.50001   0.20627   0.81487   0.00000  Uiso   1.00
O692   O     0.49999   0.12707   0.68513   0.00000  Uiso   1.00
C693   C     0.46794   0.04080   0.54461   0.00000  Uiso   1.00
N694   N     0.45878   0.00631   0.56222   0.00000  Uiso   1.00
C695   C     0.53206   0.29253   0.95538   0.00000  Uiso   1.00
N696   N     0.54122   0.32702   0.93778   0.00000  Uiso   1.00
C697   C     0.37698   0.12119   0.67969   0.00000  Uiso   1.00
N698   N     0.39466   0.10343   0.65099   0.00000  Uiso   1.00
C699   C     0.62302   0.21214   0.82031   0.00000  Uiso   1.00
N700   N     0.60534   0.22989   0.84901   0.00000  Uiso   1.00
C701   C     0.62239   0.12115   0.67986   0.00000  Uiso   1.00
N702   N     0.60437   0.10336   0.65128   0.00000  Uiso   1.00
C703   C     0.37761   0.21219   0.82014   0.00000  Uiso   1.00
N704   N     0.39563   0.22998   0.84872   0.00000  Uiso   1.00
C705   C     0.75420   0.16667   0.74991   0.00000  Uiso   1.00
C706   C     0.91247   0.16667   0.75009   0.00000  Uiso   1.00
C707   C     0.81263   0.08396   0.52265   0.00000  Uiso   1.00
C708   C     0.85404   0.24937   0.97735   0.00000  Uiso   1.00
C709   C     0.68809   0.14354   0.71569   0.00000  Uiso   1.00
C710   C     0.97858   0.18979   0.78431   0.00000  Uiso   1.00
C711   C     0.97829   0.14354   0.71575   0.00000  Uiso   1.00
C712   C     0.68838   0.18980   0.78425   0.00000  Uiso   1.00
C713   C     0.95713   0.16666   0.75006   0.00000  Uiso   1.00
C714   C     0.70954   0.16667   0.74994   0.00000  Uiso   1.00
C715   C     0.80874   0.02486   0.72131   0.00000  Uiso   1.00
C716   C     0.85793   0.30847   0.77869   0.00000  Uiso   1.00
C717   C     0.85794   0.02475   0.77869   0.00000  Uiso   1.00
C718   C     0.80873   0.30858   0.72131   0.00000  Uiso   1.00
C719   C     0.83328   0.16669   0.66431   0.00000  Uiso   1.00
C720   C     0.83338   0.16664   0.83569   0.00000  Uiso   1.00
C721   C     0.84332   0.20775   0.90707   0.00000  Uiso   1.00
C722   C     0.82335   0.12559   0.59293   0.00000  Uiso   1.00
C723   C     0.83345   0.16667   0.88406   0.00000  Uiso   1.00
C724   C     0.83321   0.16666   0.61594   0.00000  Uiso   1.00
C725   C     0.82361   0.12573   0.90724   0.00000  Uiso   1.00
C726   C     0.84306   0.20760   0.59276   0.00000  Uiso   1.00
C727   C     0.82330   0.12558   0.95340   0.00000  Uiso   1.00
C728   C     0.84337   0.20775   0.54660   0.00000  Uiso   1.00
C729   C     0.83341   0.16685   0.97673   0.00000  Uiso   1.00
C730   C     0.83325   0.16648   0.52327   0.00000  Uiso   1.00
C731   C     0.84367   0.20842   0.95350   0.00000  Uiso   1.00
C732   C     0.82300   0.12491   0.54650   0.00000  Uiso   1.00
C733   C     0.81286   0.08469   0.97640   0.00000  Uiso   1.00
C734   C     0.85380   0.24865   0.52360   0.00000  Uiso   1.00
Cu735  Cu    0.83333   0.21355   0.75000   0.00000  Uiso   1.00
Cu736  Cu    0.83333   0.11978   0.75000   0.00000  Uiso   1.00
H737   H     0.85104   0.23905   0.88854   0.00000  Uiso   1.00
H738   H     0.81562   0.09429   0.61146   0.00000  Uiso   1.00
H739   H     0.81577   0.09401   0.88935   0.00000  Uiso   1.00
H740   H     0.85089   0.23932   0.61065   0.00000  Uiso   1.00
H741   H     0.80475   0.05322   0.95822   0.00000  Uiso   1.00
H742   H     0.86192   0.28012   0.54178   0.00000  Uiso   1.00
H743   H     0.78904   0.04359   0.69832   0.00000  Uiso   1.00
H744   H     0.87763   0.28974   0.80168   0.00000  Uiso   1.00
H745   H     0.87766   0.04340   0.80166   0.00000  Uiso   1.00
H746   H     0.78901   0.28993   0.69834   0.00000  Uiso   1.00
N747   N     0.83333   0.28402   0.75000   0.00000  Uiso   1.00
N748   N     0.83333   0.04931   0.75000   0.00000  Uiso   1.00
O749   O     0.77321   0.20625   0.74999   0.00000  Uiso   1.00
O750   O     0.89345   0.12709   0.75000   0.00000  Uiso   1.00
O751   O     0.89345   0.20625   0.75000   0.00000  Uiso   1.00
O752   O     0.77321   0.12709   0.74999   0.00000  Uiso   1.00
O753   O     0.83332   0.20627   0.68513   0.00000  Uiso   1.00
O754   O     0.83334   0.12707   0.81487   0.00000  Uiso   1.00
O755   O     0.83334   0.20627   0.81487   0.00000  Uiso   1.00
O756   O     0.83332   0.12707   0.68513   0.00000  Uiso   1.00
C757   C     0.80127   0.04080   0.54461   0.00000  Uiso   1.00
N758   N     0.79211   0.00631   0.56222   0.00000  Uiso   1.00
C759   C     0.86539   0.29253   0.95538   0.00000  Uiso   1.00
N760   N     0.87455   0.32702   0.93778   0.00000  Uiso   1.00
C761   C     0.71031   0.12119   0.67969   0.00000  Uiso   1.00
N762   N     0.72800   0.10343   0.65099   0.00000  Uiso   1.00
C763   C     0.95636   0.21214   0.82031   0.00000  Uiso   1.00
N764   N     0.93867   0.22989   0.84901   0.00000  Uiso   1.00
C765   C     0.95572   0.12115   0.67986   0.00000  Uiso   1.00
N766   N     0.93770   0.10336   0.65128   0.00000  Uiso   1.00
C767   C     0.71095   0.21219   0.82014   0.00000  Uiso   1.00
N768   N     0.72897   0.22998   0.84872   0.00000  Uiso   1.00
C769   C     0.08753   0.50000   0.74991   0.00000  Uiso   1.00
C770   C     0.24580   0.50000   0.75009   0.00000  Uiso   1.00
C771   C     0.14596   0.41729   0.52265   0.00000  Uiso   1.00
C772   C     0.18737   0.58271   0.97735   0.00000  Uiso   1.00
C773   C     0.02142   0.47687   0.71569   0.00000  Uiso   1.00
C774   C     0.31191   0.52313   0.78431   0.00000  Uiso   1.00
C775   C     0.31162   0.47687   0.71575   0.00000  Uiso   1.00
C776   C     0.02171   0.52313   0.78425   0.00000  Uiso   1.00
C777   C     0.29046   0.50000   0.75006   0.00000  Uiso   1.00
C778   C     0.04287   0.50000   0.74994   0.00000  Uiso   1.00
C779   C     0.14207   0.35819   0.72131   0.00000  Uiso   1.00
C780   C     0.19126   0.64181   0.77869   0.00000  Uiso   1.00
C781   C     0.19127   0.35808   0.77869   0.00000  Uiso   1.00
C782   C     0.14206   0.64192   0.72131   0.00000  Uiso   1.00
C783   C     0.16662   0.50002   0.66431   0.00000  Uiso   1.00
C784   C     0.16672   0.49998   0.83569   0.00000  Uiso   1.00
C785   C     0.17665   0.54108   0.90707   0.00000  Uiso   1.00
C786   C     0.15668   0.45892   0.59293   0.00000  Uiso   1.00
C787   C     0.16679   0.50000   0.88406   0.00000  Uiso   1.00
C788   C     0.16655   0.50000   0.61594   0.00000  Uiso   1.00
C789   C     0.15694   0.45906   0.90724   0.00000  Uiso   1.00
C790   C     0.17639   0.54094   0.59276   0.00000  Uiso   1.00
C791   C     0.15663   0.45891   0.95340   0.00000  Uiso   1.00
C792   C     0.17670   0.54109   0.54660   0.00000  Uiso   1.00
C793   C     0.16675   0.50019   0.97673   0.00000  Uiso   1.00
C794   C     0.16658   0.49981   0.52327   0.00000  Uiso   1.00
C795   C     0.17700   0.54175   0.95350   0.00000  Uiso   1.00
C796   C     0.15633   0.45825   0.54650   0.00000  Uiso   1.00
C797   C     0.14619   0.41802   0.97640   0.00000  Uiso   1.00
C798   C     0.18714   0.58198   0.52360   0.00000  Uiso   1.00
Cu799  Cu    0.16667   0.54689   0.75000   0.00000  Uiso   1.00
Cu800  Cu    0.16667   0.45311   0.75000   0.00000  Uiso   1.00
H801   H     0.18438   0.57238   0.88854   0.00000  Uiso   1.00
H802   H     0.14896   0.42762   0.61146   0.00000  Uiso   1.00
H803   H     0.14911   0.42735   0.88935   0.00000  Uiso   1.00
H804   H     0.18422   0.57265   0.61065   0.00000  Uiso   1.00
H805   H     0.13808   0.38655   0.95822   0.00000  Uiso   1.00
H806   H     0.19525   0.61345   0.54178   0.00000  Uiso   1.00
H807   H     0.12237   0.37692   0.69832   0.00000  Uiso   1.00
H808   H     0.21096   0.62308   0.80168   0.00000  Uiso   1.00
H809   H     0.21099   0.37674   0.80166   0.00000  Uiso   1.00
H810   H     0.12234   0.62326   0.69834   0.00000  Uiso   1.00
N811   N     0.16667   0.61736   0.75000   0.00000  Uiso   1.00
N812   N     0.16667   0.38264   0.75000   0.00000  Uiso   1.00
O813   O     0.10655   0.53958   0.74999   0.00000  Uiso   1.00
O814   O     0.22679   0.46042   0.75000   0.00000  Uiso   1.00
O815   O     0.22679   0.53958   0.75000   0.00000  Uiso   1.00
O816   O     0.10655   0.46042   0.74999   0.00000  Uiso   1.00
O817   O     0.16666   0.53960   0.68513   0.00000  Uiso   1.00
O818   O     0.16668   0.46040   0.81487   0.00000  Uiso   1.00
O819   O     0.16668   0.53960   0.81487   0.00000  Uiso   1.00
O820   O     0.16666   0.46040   0.68513   0.00000  Uiso   1.00
C821   C     0.13461   0.37414   0.54461   0.00000  Uiso   1.00
N822   N     0.12545   0.33965   0.56222   0.00000  Uiso   1.00
C823   C     0.19872   0.62586   0.95538   0.00000  Uiso   1.00
N824   N     0.20789   0.66036   0.93778   0.00000  Uiso   1.00
C825   C     0.04364   0.45453   0.67969   0.00000  Uiso   1.00
N826   N     0.06133   0.43677   0.65099   0.00000  Uiso   1.00
C827   C     0.28969   0.54547   0.82031   0.00000  Uiso   1.00
N828   N     0.27200   0.56323   0.84901   0.00000  Uiso   1.00
C829   C     0.28905   0.45448   0.67986   0.00000  Uiso   1.00
N830   N     0.27103   0.43669   0.65128   0.00000  Uiso   1.00
C831   C     0.04428   0.54552   0.82014   0.00000  Uiso   1.00
N832   N     0.06230   0.56331   0.84872   0.00000  Uiso   1.00
C833   C     0.42087   0.50000   0.74991   0.00000  Uiso   1.00
C834   C     0.57913   0.50000   0.75009   0.00000  Uiso   1.00
C835   C     0.47929   0.41729   0.52265   0.00000  Uiso   1.00
C836   C     0.52071   0.58271   0.97735   0.00000  Uiso   1.00
C837   C     0.35475   0.47687   0.71569   0.00000  Uiso   1.00
C838   C     0.64525   0.52313   0.78431   0.00000  Uiso   1.00
C839   C     0.64496   0.47687   0.71575   0.00000  Uiso   1.00
C840   C     0.35504   0.52313   0.78425   0.00000  Uiso   1.00
C841   C     0.62379   0.50000   0.75006   0.00000  Uiso   1.00
C842   C     0.37621   0.50000   0.74994   0.00000  Uiso   1.00
C843   C     0.47540   0.35819   0.72131   0.00000  Uiso   1.00
C844   C     0.52460   0.64181   0.77869   0.00000  Uiso   1.00
C845   C     0.52460   0.35808   0.77869   0.00000  Uiso   1.00
C846   C     0.47540   0.64192   0.72131   0.00000  Uiso   1.00
C847   C     0.49995   0.50002   0.66431   0.00000  Uiso   1.00
C848   C     0.50005   0.49998   0.83569   0.00000  Uiso   1.00
C849   C     0.50998   0.54108   0.90707   0.00000  Uiso   1.00
C850   C     0.49002   0.45892   0.59293   0.00000  Uiso   1.00
C851   C     0.50012   0.50000   0.88406   0.00000  Uiso   1.00
C852   C     0.49988   0.50000   0.61594   0.00000  Uiso   1.00
C853   C     0.49028   0.45906   0.90724   0.00000  Uiso   1.00
C854   C     0.50972   0.54094   0.59276   0.00000  Uiso   1.00
C855   C     0.48997   0.45891   0.95340   0.00000  Uiso   1.00
C856   C     0.51003   0.54109   0.54660   0.00000  Uiso   1.00
C857   C     0.50008   0.50019   0.97673   0.00000  Uiso   1.00
C858   C     0.49992   0.49981   0.52327   0.00000  Uiso   1.00
C859   C     0.51034   0.54175   0.95350   0.00000  Uiso   1.00
C860   C     0.48966   0.45825   0.54650   0.00000  Uiso   1.00
C861   C     0.47953   0.41802   0.97640   0.00000  Uiso   1.00
C862   C     0.52047   0.58198   0.52360   0.00000  Uiso   1.00
Cu863  Cu    0.50000   0.54689   0.75000   0.00000  Uiso   1.00
Cu864  Cu    0.50000   0.45311   0.75000   0.00000  Uiso   1.00
H865   H     0.51771   0.57238   0.88854   0.00000  Uiso   1.00
H866   H     0.48229   0.42762   0.61146   0.00000  Uiso   1.00
H867   H     0.48244   0.42735   0.88935   0.00000  Uiso   1.00
H868   H     0.51756   0.57265   0.61065   0.00000  Uiso   1.00
H869   H     0.47141   0.38655   0.95822   0.00000  Uiso   1.00
H870   H     0.52858   0.61345   0.54178   0.00000  Uiso   1.00
H871   H     0.45571   0.37692   0.69832   0.00000  Uiso   1.00
H872   H     0.54430   0.62308   0.80168   0.00000  Uiso   1.00
H873   H     0.54432   0.37674   0.80166   0.00000  Uiso   1.00
H874   H     0.45568   0.62326   0.69834   0.00000  Uiso   1.00
N875   N     0.50000   0.61736   0.75000   0.00000  Uiso   1.00
N876   N     0.50000   0.38264   0.75000   0.00000  Uiso   1.00
O877   O     0.43988   0.53958   0.74999   0.00000  Uiso   1.00
O878   O     0.56012   0.46042   0.75000   0.00000  Uiso   1.00
O879   O     0.56012   0.53958   0.75000   0.00000  Uiso   1.00
O880   O     0.43988   0.46042   0.74999   0.00000  Uiso   1.00
O881   O     0.49999   0.53960   0.68513   0.00000  Uiso   1.00
O882   O     0.50001   0.46040   0.81487   0.00000  Uiso   1.00
O883   O     0.50001   0.53960   0.81487   0.00000  Uiso   1.00
O884   O     0.49999   0.46040   0.68513   0.00000  Uiso   1.00
C885   C     0.46794   0.37414   0.54461   0.00000  Uiso   1.00
N886   N     0.45878   0.33965   0.56222   0.00000  Uiso   1.00
C887   C     0.53206   0.62586   0.95538   0.00000  Uiso   1.00
N888   N     0.54122   0.66036   0.93778   0.00000  Uiso   1.00
C889   C     0.37698   0.45453   0.67969   0.00000  Uiso   1.00
N890   N     0.39466   0.43677   0.65099   0.00000  Uiso   1.00
C891   C     0.62302   0.54547   0.82031   0.00000  Uiso   1.00
N892   N     0.60534   0.56323   0.84901   0.00000  Uiso   1.00
C893   C     0.62239   0.45448   0.67986   0.00000  Uiso   1.00
N894   N     0.60437   0.43669   0.65128   0.00000  Uiso   1.00
C895   C     0.37761   0.54552   0.82014   0.00000  Uiso   1.00
N896   N     0.39563   0.56331   0.84872   0.00000  Uiso   1.00
C897   C     0.75420   0.50000   0.74991   0.00000  Uiso   1.00
C898   C     0.91247   0.50000   0.75009   0.00000  Uiso   1.00
C899   C     0.81263   0.41729   0.52265   0.00000  Uiso   1.00
C900   C     0.85404   0.58271   0.97735   0.00000  Uiso   1.00
C901   C     0.68809   0.47687   0.71569   0.00000  Uiso   1.00
C902   C     0.97858   0.52313   0.78431   0.00000  Uiso   1.00
C903   C     0.97829   0.47687   0.71575   0.00000  Uiso   1.00
C904   C     0.68838   0.52313   0.78425   0.00000  Uiso   1.00
C905   C     0.95713   0.50000   0.75006   0.00000  Uiso   1.00
C906   C     0.70954   0.50000   0.74994   0.00000  Uiso   1.00
C907   C     0.80874   0.35819   0.72131   0.00000  Uiso   1.00
C908   C     0.85793   0.64181   0.77869   0.00000  Uiso   1.00
C909   C     0.85794   0.35808   0.77869   0.00000  Uiso   1.00
C910   C     0.80873   0.64192   0.72131   0.00000  Uiso   1.00
C911   C     0.83328   0.50002   0.66431   0.00000  Uiso   1.00
C912   C     0.83338   0.49998   0.83569   0.00000  Uiso   1.00
C913   C     0.84332   0.54108   0.90707   0.00000  Uiso   1.00
C914   C     0.82335   0.45892   0.59293   0.00000  Uiso   1.00
C915   C     0.83345   0.50000   0.88406   0.00000  Uiso   1.00
C916   C     0.83321   0.50000   0.61594   0.00000  Uiso   1.00
C917   C     0.82361   0.45906   0.90724   0.00000  Uiso   1.00
C918   C     0.84306   0.54094   0.59276   0.00000  Uiso   1.00
C919   C     0.82330   0.45891   0.95340   0.00000  Uiso   1.00
C920   C     0.84337   0.54109   0.54660   0.00000  Uiso   1.00
C921   C     0.83341   0.50019   0.97673   0.00000  Uiso   1.00
C922   C     0.83325   0.49981   0.52327   0.00000  Uiso   1.00
C923   C     0.84367   0.54175   0.95350   0.00000  Uiso   1.00
C924   C     0.82300   0.45825   0.54650   0.00000  Uiso   1.00
C925   C     0.81286   0.41802   0.97640   0.00000  Uiso   1.00
C926   C     0.85380   0.58198   0.52360   0.00000  Uiso   1.00
Cu927  Cu    0.83333   0.54689   0.75000   0.00000  Uiso   1.00
Cu928  Cu    0.83333   0.45311   0.75000   0.00000  Uiso   1.00
H929   H     0.85104   0.57238   0.88854   0.00000  Uiso   1.00
H930   H     0.81562   0.42762   0.61146   0.00000  Uiso   1.00
H931   H     0.81577   0.42735   0.88935   0.00000  Uiso   1.00
H932   H     0.85089   0.57265   0.61065   0.00000  Uiso   1.00
H933   H     0.80475   0.38655   0.95822   0.00000  Uiso   1.00
H934   H     0.86192   0.61345   0.54178   0.00000  Uiso   1.00
H935   H     0.78904   0.37692   0.69832   0.00000  Uiso   1.00
H936   H     0.87763   0.62308   0.80168   0.00000  Uiso   1.00
H937   H     0.87766   0.37674   0.80166   0.00000  Uiso   1.00
H938   H     0.78901   0.62326   0.69834   0.00000  Uiso   1.00
N939   N     0.83333   0.61736   0.75000   0.00000  Uiso   1.00
N940   N     0.83333   0.38264   0.75000   0.00000  Uiso   1.00
O941   O     0.77321   0.53958   0.74999   0.00000  Uiso   1.00
O942   O     0.89345   0.46042   0.75000   0.00000  Uiso   1.00
O943   O     0.89345   0.53958   0.75000   0.00000  Uiso   1.00
O944   O     0.77321   0.46042   0.74999   0.00000  Uiso   1.00
O945   O     0.83332   0.53960   0.68513   0.00000  Uiso   1.00
O946   O     0.83334   0.46040   0.81487   0.00000  Uiso   1.00
O947   O     0.83334   0.53960   0.81487   0.00000  Uiso   1.00
O948   O     0.83332   0.46040   0.68513   0.00000  Uiso   1.00
C949   C     0.80127   0.37414   0.54461   0.00000  Uiso   1.00
N950   N     0.79211   0.33965   0.56222   0.00000  Uiso   1.00
C951   C     0.86539   0.62586   0.95538   0.00000  Uiso   1.00
N952   N     0.87455   0.66036   0.93778   0.00000  Uiso   1.00
C953   C     0.71031   0.45453   0.67969   0.00000  Uiso   1.00
N954   N     0.72800   0.43677   0.65099   0.00000  Uiso   1.00
C955   C     0.95636   0.54547   0.82031   0.00000  Uiso   1.00
N956   N     0.93867   0.56323   0.84901   0.00000  Uiso   1.00
C957   C     0.95572   0.45448   0.67986   0.00000  Uiso   1.00
N958   N     0.93770   0.43669   0.65128   0.00000  Uiso   1.00
C959   C     0.71095   0.54552   0.82014   0.00000  Uiso   1.00
N960   N     0.72897   0.56331   0.84872   0.00000  Uiso   1.00
C961   C     0.08753   0.83333   0.74991   0.00000  Uiso   1.00
C962   C     0.24580   0.83333   0.75009   0.00000  Uiso   1.00
C963   C     0.14596   0.75063   0.52265   0.00000  Uiso   1.00
C964   C     0.18737   0.91604   0.97735   0.00000  Uiso   1.00
C965   C     0.02142   0.81021   0.71569   0.00000  Uiso   1.00
C966   C     0.31191   0.85646   0.78431   0.00000  Uiso   1.00
C967   C     0.31162   0.81020   0.71575   0.00000  Uiso   1.00
C968   C     0.02171   0.85646   0.78425   0.00000  Uiso   1.00
C969   C     0.29046   0.83333   0.75006   0.00000  Uiso   1.00
C970   C     0.04287   0.83334   0.74994   0.00000  Uiso   1.00
C971   C     0.14207   0.69153   0.72131   0.00000  Uiso   1.00
C972   C     0.19126   0.97514   0.77869   0.00000  Uiso   1.00
C973   C     0.19127   0.69142   0.77869   0.00000  Uiso   1.00
C974   C     0.14206   0.97525   0.72131   0.00000  Uiso   1.00
C975   C     0.16662   0.83336   0.66431   0.00000  Uiso   1.00
C976   C     0.16672   0.83331   0.83569   0.00000  Uiso   1.00
C977   C     0.17665   0.87441   0.90707   0.00000  Uiso   1.00
C978   C     0.15668   0.79225   0.59293   0.00000  Uiso   1.00
C979   C     0.16679   0.83334   0.88406   0.00000  Uiso   1.00
C980   C     0.16655   0.83333   0.61594   0.00000  Uiso   1.00
C981   C     0.15694   0.79240   0.90724   0.00000  Uiso   1.00
C982   C     0.17639   0.87427   0.59276   0.00000  Uiso   1.00
C983   C     0.15663   0.79225   0.95340   0.00000  Uiso   1.00
C984   C     0.17670   0.87442   0.54660   0.00000  Uiso   1.00
C985   C     0.16675   0.83352   0.97673   0.00000  Uiso   1.00
C986   C     0.16658   0.83315   0.52327   0.00000  Uiso   1.00
C987   C     0.17700   0.87509   0.95350   0.00000  Uiso   1.00
C988   C     0.15633   0.79158   0.54650   0.00000  Uiso   1.00
C989   C     0.14619   0.75135   0.97640   0.00000  Uiso   1.00
C990   C     0.18714   0.91532   0.52360   0.00000  Uiso   1.00
Cu991  Cu    0.16667   0.88022   0.75000   0.00000  Uiso   1.00
Cu992  Cu    0.16667   0.78645   0.75000   0.00000  Uiso   1.00
H993   H     0.18438   0.90571   0.88854   0.00000  Uiso   1.00
H994   H     0.14896   0.76095   0.61146   0.00000  Uiso   1.00
H995   H     0.14911   0.76068   0.88935   0.00000  Uiso   1.00
H996   H     0.18422   0.90599   0.61065   0.00000  Uiso   1.00
H997   H     0.13808   0.71989   0.95822   0.00000  Uiso   1.00
H998   H     0.19525   0.94678   0.54178   0.00000  Uiso   1.00
H999   H     0.12237   0.71026   0.69832   0.00000  Uiso   1.00
H1000  H     0.21096   0.95641   0.80168   0.00000  Uiso   1.00
H1001  H     0.21099   0.71007   0.80166   0.00000  Uiso   1.00
H1002  H     0.12234   0.95660   0.69834   0.00000  Uiso   1.00
N1003  N     0.16667   0.95069   0.75000   0.00000  Uiso   1.00
N1004  N     0.16667   0.71598   0.75000   0.00000  Uiso   1.00
O1005  O     0.10655   0.87291   0.74999   0.00000  Uiso   1.00
O1006  O     0.22679   0.79375   0.75000   0.00000  Uiso   1.00
O1007  O     0.22679   0.87291   0.75000   0.00000  Uiso   1.00
O1008  O     0.10655   0.79375   0.74999   0.00000  Uiso   1.00
O1009  O     0.16666   0.87293   0.68513   0.00000  Uiso   1.00
O1010  O     0.16668   0.79373   0.81487   0.00000  Uiso   1.00
O1011  O     0.16668   0.87293   0.81487   0.00000  Uiso   1.00
O1012  O     0.16666   0.79373   0.68513   0.00000  Uiso   1.00
C1013  C     0.13461   0.70747   0.54461   0.00000  Uiso   1.00
N1014  N     0.12545   0.67298   0.56222   0.00000  Uiso   1.00
C1015  C     0.19872   0.95920   0.95538   0.00000  Uiso   1.00
N1016  N     0.20789   0.99369   0.93778   0.00000  Uiso   1.00
C1017  C     0.04364   0.78786   0.67969   0.00000  Uiso   1.00
N1018  N     0.06133   0.77010   0.65099   0.00000  Uiso   1.00
C1019  C     0.28969   0.87880   0.82031   0.00000  Uiso   1.00
N1020  N     0.27200   0.89656   0.84901   0.00000  Uiso   1.00
C1021  C     0.28905   0.78781   0.67986   0.00000  Uiso   1.00
N1022  N     0.27103   0.77002   0.65128   0.00000  Uiso   1.00
C1023  C     0.04428   0.87886   0.82014   0.00000  Uiso   1.00
N1024  N     0.06230   0.89664   0.84872   0.00000  Uiso   1.00
C1025  C     0.42087   0.83333   0.74991   0.00000  Uiso   1.00
C1026  C     0.57913   0.83333   0.75009   0.00000  Uiso   1.00
C1027  C     0.47929   0.75063   0.52265   0.00000  Uiso   1.00
C1028  C     0.52071   0.91604   0.97735   0.00000  Uiso   1.00
C1029  C     0.35475   0.81021   0.71569   0.00000  Uiso   1.00
C1030  C     0.64525   0.85646   0.78431   0.00000  Uiso   1.00
C1031  C     0.64496   0.81020   0.71575   0.00000  Uiso   1.00
C1032  C     0.35504   0.85646   0.78425   0.00000  Uiso   1.00
C1033  C     0.62379   0.83333   0.75006   0.00000  Uiso   1.00
C1034  C     0.37621   0.83334   0.74994   0.00000  Uiso   1.00
C1035  C     0.47540   0.69153   0.72131   0.00000  Uiso   1.00
C1036  C     0.52460   0.97514   0.77869   0.00000  Uiso   1.00
C1037  C     0.52460   0.69142   0.77869   0.00000  Uiso   1.00
C1038  C     0.47540   0.97525   0.72131   0.00000  Uiso   1.00
C1039  C     0.49995   0.83336   0.66431   0.00000  Uiso   1.00
C1040  C     0.50005   0.83331   0.83569   0.00000  Uiso   1.00
C1041  C     0.50998   0.87441   0.90707   0.00000  Uiso   1.00
C1042  C     0.49002   0.79225   0.59293   0.00000  Uiso   1.00
C1043  C     0.50012   0.83334   0.88406   0.00000  Uiso   1.00
C1044  C     0.49988   0.83333   0.61594   0.00000  Uiso   1.00
C1045  C     0.49028   0.79240   0.90724   0.00000  Uiso   1.00
C1046  C     0.50972   0.87427   0.59276   0.00000  Uiso   1.00
C1047  C     0.48997   0.79225   0.95340   0.00000  Uiso   1.00
C1048  C     0.51003   0.87442   0.54660   0.00000  Uiso   1.00
C1049  C     0.50008   0.83352   0.97673   0.00000  Uiso   1.00
C1050  C     0.49992   0.83315   0.52327   0.00000  Uiso   1.00
C1051  C     0.51034   0.87509   0.95350   0.00000  Uiso   1.00
C1052  C     0.48966   0.79158   0.54650   0.00000  Uiso   1.00
C1053  C     0.47953   0.75135   0.97640   0.00000  Uiso   1.00
C1054  C     0.52047   0.91532   0.52360   0.00000  Uiso   1.00
Cu1055 Cu    0.50000   0.88022   0.75000   0.00000  Uiso   1.00
Cu1056 Cu    0.50000   0.78645   0.75000   0.00000  Uiso   1.00
H1057  H     0.51771   0.90571   0.88854   0.00000  Uiso   1.00
H1058  H     0.48229   0.76095   0.61146   0.00000  Uiso   1.00
H1059  H     0.48244   0.76068   0.88935   0.00000  Uiso   1.00
H1060  H     0.51756   0.90599   0.61065   0.00000  Uiso   1.00
H1061  H     0.47141   0.71989   0.95822   0.00000  Uiso   1.00
H1062  H     0.52858   0.94678   0.54178   0.00000  Uiso   1.00
H1063  H     0.45571   0.71026   0.69832   0.00000  Uiso   1.00
H1064  H     0.54430   0.95641   0.80168   0.00000  Uiso   1.00
H1065  H     0.54432   0.71007   0.80166   0.00000  Uiso   1.00
H1066  H     0.45568   0.95660   0.69834   0.00000  Uiso   1.00
N1067  N     0.50000   0.95069   0.75000   0.00000  Uiso   1.00
N1068  N     0.50000   0.71598   0.75000   0.00000  Uiso   1.00
O1069  O     0.43988   0.87291   0.74999   0.00000  Uiso   1.00
O1070  O     0.56012   0.79375   0.75000   0.00000  Uiso   1.00
O1071  O     0.56012   0.87291   0.75000   0.00000  Uiso   1.00
O1072  O     0.43988   0.79375   0.74999   0.00000  Uiso   1.00
O1073  O     0.49999   0.87293   0.68513   0.00000  Uiso   1.00
O1074  O     0.50001   0.79373   0.81487   0.00000  Uiso   1.00
O1075  O     0.50001   0.87293   0.81487   0.00000  Uiso   1.00
O1076  O     0.49999   0.79373   0.68513   0.00000  Uiso   1.00
C1077  C     0.46794   0.70747   0.54461   0.00000  Uiso   1.00
N1078  N     0.45878   0.67298   0.56222   0.00000  Uiso   1.00
C1079  C     0.53206   0.95920   0.95538   0.00000  Uiso   1.00
N1080  N     0.54122   0.99369   0.93778   0.00000  Uiso   1.00
C1081  C     0.37698   0.78786   0.67969   0.00000  Uiso   1.00
N1082  N     0.39466   0.77010   0.65099   0.00000  Uiso   1.00
C1083  C     0.62302   0.87880   0.82031   0.00000  Uiso   1.00
N1084  N     0.60534   0.89656   0.84901   0.00000  Uiso   1.00
C1085  C     0.62239   0.78781   0.67986   0.00000  Uiso   1.00
N1086  N     0.60437   0.77002   0.65128   0.00000  Uiso   1.00
C1087  C     0.37761   0.87886   0.82014   0.00000  Uiso   1.00
N1088  N     0.39563   0.89664   0.84872   0.00000  Uiso   1.00
C1089  C     0.75420   0.83333   0.74991   0.00000  Uiso   1.00
C1090  C     0.91247   0.83333   0.75009   0.00000  Uiso   1.00
C1091  C     0.81263   0.75063   0.52265   0.00000  Uiso   1.00
C1092  C     0.85404   0.91604   0.97735   0.00000  Uiso   1.00
C1093  C     0.68809   0.81021   0.71569   0.00000  Uiso   1.00
C1094  C     0.97858   0.85646   0.78431   0.00000  Uiso   1.00
C1095  C     0.97829   0.81020   0.71575   0.00000  Uiso   1.00
C1096  C     0.68838   0.85646   0.78425   0.00000  Uiso   1.00
C1097  C     0.95713   0.83333   0.75006   0.00000  Uiso   1.00
C1098  C     0.70954   0.83334   0.74994   0.00000  Uiso   1.00
C1099  C     0.80874   0.69153   0.72131   0.00000  Uiso   1.00
C1100  C     0.85793   0.97514   0.77869   0.00000  Uiso   1.00
C1101  C     0.85794   0.69142   0.77869   0.00000  Uiso   1.00
C1102  C     0.80873   0.97525   0.72131   0.00000  Uiso   1.00
C1103  C     0.83328   0.83336   0.66431   0.00000  Uiso   1.00
C1104  C     0.83338   0.83331   0.83569   0.00000  Uiso   1.00
C1105  C     0.84332   0.87441   0.90707   0.00000  Uiso   1.00
C1106  C     0.82335   0.79225   0.59293   0.00000  Uiso   1.00
C1107  C     0.83345   0.83334   0.88406   0.00000  Uiso   1.00
C1108  C     0.83321   0.83333   0.61594   0.00000  Uiso   1.00
C1109  C     0.82361   0.79240   0.90724   0.00000  Uiso   1.00
C1110  C     0.84306   0.87427   0.59276   0.00000  Uiso   1.00
C1111  C     0.82330   0.79225   0.95340   0.00000  Uiso   1.00
C1112  C     0.84337   0.87442   0.54660   0.00000  Uiso   1.00
C1113  C     0.83341   0.83352   0.97673   0.00000  Uiso   1.00
C1114  C     0.83325   0.83315   0.52327   0.00000  Uiso   1.00
C1115  C     0.84367   0.87509   0.95350   0.00000  Uiso   1.00
C1116  C     0.82300   0.79158   0.54650   0.00000  Uiso   1.00
C1117  C     0.81286   0.75135   0.97640   0.00000  Uiso   1.00
C1118  C     0.85380   0.91532   0.52360   0.00000  Uiso   1.00
Cu1119 Cu    0.83333   0.88022   0.75000   0.00000  Uiso   1.00
Cu1120 Cu    0.83333   0.78645   0.75000   0.00000  Uiso   1.00
H1121  H     0.85104   0.90571   0.88854   0.00000  Uiso   1.00
H1122  H     0.81562   0.76095   0.61146   0.00000  Uiso   1.00
H1123  H     0.81577   0.76068   0.88935   0.00000  Uiso   1.00
H1124  H     0.85089   0.90599   0.61065   0.00000  Uiso   1.00
H1125  H     0.80475   0.71989   0.95822   0.00000  Uiso   1.00
H1126  H     0.86192   0.94678   0.54178   0.00000  Uiso   1.00
H1127  H     0.78904   0.71026   0.69832   0.00000  Uiso   1.00
H1128  H     0.87763   0.95641   0.80168   0.00000  Uiso   1.00
H1129  H     0.87766   0.71007   0.80166   0.00000  Uiso   1.00
H1130  H     0.78901   0.95660   0.69834   0.00000  Uiso   1.00
N1131  N     0.83333   0.95069   0.75000   0.00000  Uiso   1.00
N1132  N     0.83333   0.71598   0.75000   0.00000  Uiso   1.00
O1133  O     0.77321   0.87291   0.74999   0.00000  Uiso   1.00
O1134  O     0.89345   0.79375   0.75000   0.00000  Uiso   1.00
O1135  O     0.89345   0.87291   0.75000   0.00000  Uiso   1.00
O1136  O     0.77321   0.79375   0.74999   0.00000  Uiso   1.00
O1137  O     0.83332   0.87293   0.68513   0.00000  Uiso   1.00
O1138  O     0.83334   0.79373   0.81487   0.00000  Uiso   1.00
O1139  O     0.83334   0.87293   0.81487   0.00000  Uiso   1.00
O1140  O     0.83332   0.79373   0.68513   0.00000  Uiso   1.00
C1141  C     0.80127   0.70747   0.54461   0.00000  Uiso   1.00
N1142  N     0.79211   0.67298   0.56222   0.00000  Uiso   1.00
C1143  C     0.86539   0.95920   0.95538   0.00000  Uiso   1.00
N1144  N     0.87455   0.99369   0.93778   0.00000  Uiso   1.00
C1145  C     0.71031   0.78786   0.67969   0.00000  Uiso   1.00
N1146  N     0.72800   0.77010   0.65099   0.00000  Uiso   1.00
C1147  C     0.95636   0.87880   0.82031   0.00000  Uiso   1.00
N1148  N     0.93867   0.89656   0.84901   0.00000  Uiso   1.00
C1149  C     0.95572   0.78781   0.67986   0.00000  Uiso   1.00
N1150  N     0.93770   0.77002   0.65128   0.00000  Uiso   1.00
C1151  C     0.71095   0.87886   0.82014   0.00000  Uiso   1.00
N1152  N     0.72897   0.89664   0.84872   0.00000  Uiso   1.00
loop_
_geom_bond_atom_site_label_1
_geom_bond_atom_site_label_2
_geom_bond_distance
_geom_bond_site_symmetry_2
_ccdc_geom_bond_type
C1     O48     1.287   .     A
C1     O45     1.287   .     A
C1     C10     1.447   .     S
C2     O47     1.287   .     A
C2     O46     1.287   .     A
C2     C9      1.447   .     S
C3     C53     1.446   .     S
C3     C28     1.414   .     A
C3     C605    1.395   1_554 S
C4     C55     1.446   .     S
C4     C27     1.414   .     A
C4     C606    1.395   .     S
C5     C57     1.453   .     S
C5     C10     1.409   .     A
C5     C135    1.397   1_455 S
C6     C9      1.409   .     A
C6     C59     1.453   .     S
C6     C72     1.397   .     S
C7     C9      1.409   .     A
C7     C61     1.453   .     S
C7     C69     1.397   .     S
C8     C63     1.453   .     S
C8     C10     1.409   .     A
C8     C134    1.397   1_455 S
C11    N44     1.367   .     A
C11    H39     1.081   .     S
C11    C398    1.417   1_545 S
C12    H40     1.081   .     S
C12    N43     1.367   .     A
C12    C205    1.417   .     S
C13    H41     1.082   .     S
C13    N44     1.367   .     A
C13    C396    1.417   1_545 S
C14    H42     1.082   .     S
C14    N43     1.367   .     A
C14    C203    1.417   .     S
C15    O52     1.293   .     A
C15    O49     1.294   .     A
C15    C20     1.459   .     S
C16    O51     1.293   .     A
C16    C19     1.459   .     S
C16    O50     1.294   .     A
C17    H33     1.083   .     S
C17    C19     1.400   .     A
C17    C27     1.401   .     A
C18    C28     1.401   .     A
C18    H34     1.083   .     S
C18    C20     1.400   .     A
C19    C21     1.398   .     A
C20    C22     1.398   .     A
C21    H35     1.085   .     S
C21    C23     1.392   .     A
C22    C24     1.392   .     A
C22    H36     1.085   .     S
C23    C29     1.399   .     A
C23    C25     1.412   .     A
C24    C26     1.412   .     A
C24    C30     1.399   .     A
C25    C27     1.417   .     A
C25    C602    1.404   .     S
C26    C28     1.417   .     A
C26    C601    1.404   1_554 S
C29    H37     1.085   .     S
C29    C579    1.395   .     S
C30    H38     1.085   .     S
C30    C580    1.395   1_554 S
Cu31   Cu32    2.678   .     S
Cu31   O47     1.959   .     S
Cu31   N43     2.012   .     S
Cu31   O49     1.968   .     S
Cu31   O45     1.959   .     S
Cu31   O51     1.967   .     S
Cu32   O48     1.959   .     S
Cu32   O50     1.968   .     S
Cu32   N44     2.012   .     S
Cu32   O52     1.967   .     S
Cu32   O46     1.959   .     S
C53    N54     1.157   .     T
C55    N56     1.157   .     T
C57    N58     1.157   .     T
C59    N60     1.157   .     T
C61    N62     1.157   .     T
C63    N64     1.157   .     T
C65    O112    1.287   .     A
C65    O109    1.287   .     A
C65    C74     1.447   .     S
C66    O111    1.287   .     A
C66    O110    1.287   .     A
C66    C73     1.447   .     S
C67    C117    1.446   .     S
C67    C92     1.414   .     A
C67    C669    1.395   1_554 S
C68    C119    1.446   .     S
C68    C91     1.414   .     A
C68    C670    1.395   .     S
C69    C121    1.453   .     S
C69    C74     1.409   .     A
C70    C73     1.409   .     A
C70    C123    1.453   .     S
C70    C136    1.397   .     S
C71    C73     1.409   .     A
C71    C125    1.453   .     S
C71    C133    1.397   .     S
C72    C127    1.453   .     S
C72    C74     1.409   .     A
C75    N108    1.367   .     A
C75    H103    1.081   .     S
C75    C462    1.417   1_545 S
C76    H104    1.081   .     S
C76    N107    1.367   .     A
C76    C269    1.417   .     S
C77    H105    1.082   .     S
C77    N108    1.367   .     A
C77    C460    1.417   1_545 S
C78    H106    1.082   .     S
C78    N107    1.367   .     A
C78    C267    1.417   .     S
C79    O116    1.293   .     A
C79    O113    1.294   .     A
C79    C84     1.459   .     S
C80    O115    1.293   .     A
C80    C83     1.459   .     S
C80    O114    1.294   .     A
C81    H97     1.083   .     S
C81    C83     1.400   .     A
C81    C91     1.401   .     A
C82    C92     1.401   .     A
C82    H98     1.083   .     S
C82    C84     1.400   .     A
C83    C85     1.398   .     A
C84    C86     1.398   .     A
C85    H99     1.085   .     S
C85    C87     1.392   .     A
C86    C88     1.392   .     A
C86    H100    1.085   .     S
C87    C93     1.399   .     A
C87    C89     1.412   .     A
C88    C90     1.412   .     A
C88    C94     1.399   .     A
C89    C91     1.417   .     A
C89    C666    1.404   .     S
C90    C92     1.417   .     A
C90    C665    1.404   1_554 S
C93    H101    1.085   .     S
C93    C643    1.395   .     S
C94    H102    1.085   .     S
C94    C644    1.395   1_554 S
Cu95   Cu96    2.678   .     S
Cu95   O111    1.959   .     S
Cu95   N107    2.012   .     S
Cu95   O113    1.968   .     S
Cu95   O109    1.959   .     S
Cu95   O115    1.967   .     S
Cu96   O112    1.959   .     S
Cu96   O114    1.968   .     S
Cu96   N108    2.012   .     S
Cu96   O116    1.967   .     S
Cu96   O110    1.959   .     S
C117   N118    1.157   .     T
C119   N120    1.157   .     T
C121   N122    1.157   .     T
C123   N124    1.157   .     T
C125   N126    1.157   .     T
C127   N128    1.157   .     T
C129   O176    1.287   .     A
C129   O173    1.287   .     A
C129   C138    1.447   .     S
C130   O175    1.287   .     A
C130   O174    1.287   .     A
C130   C137    1.447   .     S
C131   C181    1.446   .     S
C131   C156    1.414   .     A
C131   C733    1.395   1_554 S
C132   C183    1.446   .     S
C132   C155    1.414   .     A
C132   C734    1.395   .     S
C133   C185    1.453   .     S
C133   C138    1.409   .     A
C134   C137    1.409   .     A
C134   C187    1.453   .     S
C134   C8      1.397   1_655 S
C135   C137    1.409   .     A
C135   C189    1.453   .     S
C135   C5      1.397   1_655 S
C136   C191    1.453   .     S
C136   C138    1.409   .     A
C139   N172    1.367   .     A
C139   H167    1.081   .     S
C139   C526    1.417   1_545 S
C140   H168    1.081   .     S
C140   N171    1.367   .     A
C140   C333    1.417   .     S
C141   H169    1.082   .     S
C141   N172    1.367   .     A
C141   C524    1.417   1_545 S
C142   H170    1.082   .     S
C142   N171    1.367   .     A
C142   C331    1.417   .     S
C143   O180    1.293   .     A
C143   O177    1.294   .     A
C143   C148    1.459   .     S
C144   O179    1.293   .     A
C144   C147    1.459   .     S
C144   O178    1.294   .     A
C145   H161    1.083   .     S
C145   C147    1.400   .     A
C145   C155    1.401   .     A
C146   C156    1.401   .     A
C146   H162    1.083   .     S
C146   C148    1.400   .     A
C147   C149    1.398   .     A
C148   C150    1.398   .     A
C149   H163    1.085   .     S
C149   C151    1.392   .     A
C150   C152    1.392   .     A
C150   H164    1.085   .     S
C151   C157    1.399   .     A
C151   C153    1.412   .     A
C152   C154    1.412   .     A
C152   C158    1.399   .     A
C153   C155    1.417   .     A
C153   C730    1.404   .     S
C154   C156    1.417   .     A
C154   C729    1.404   1_554 S
C157   H165    1.085   .     S
C157   C707    1.395   .     S
C158   H166    1.085   .     S
C158   C708    1.395   1_554 S
Cu159  Cu160   2.678   .     S
Cu159  O175    1.959   .     S
Cu159  N171    2.012   .     S
Cu159  O177    1.968   .     S
Cu159  O173    1.959   .     S
Cu159  O179    1.967   .     S
Cu160  O176    1.959   .     S
Cu160  O178    1.968   .     S
Cu160  N172    2.012   .     S
Cu160  O180    1.967   .     S
Cu160  O174    1.959   .     S
C181   N182    1.157   .     T
C183   N184    1.157   .     T
C185   N186    1.157   .     T
C187   N188    1.157   .     T
C189   N190    1.157   .     T
C191   N192    1.157   .     T
C193   O240    1.287   .     A
C193   O237    1.287   .     A
C193   C202    1.447   .     S
C194   O239    1.287   .     A
C194   O238    1.287   .     A
C194   C201    1.447   .     S
C195   C245    1.446   .     S
C195   C220    1.414   .     A
C195   C797    1.395   1_554 S
C196   C247    1.446   .     S
C196   C219    1.414   .     A
C196   C798    1.395   .     S
C197   C249    1.453   .     S
C197   C202    1.409   .     A
C197   C327    1.397   1_455 S
C198   C201    1.409   .     A
C198   C251    1.453   .     S
C198   C264    1.397   .     S
C199   C201    1.409   .     A
C199   C253    1.453   .     S
C199   C261    1.397   .     S
C200   C255    1.453   .     S
C200   C202    1.409   .     A
C200   C326    1.397   1_455 S
C203   N236    1.367   .     A
C203   H231    1.081   .     S
C204   H232    1.081   .     S
C204   N235    1.367   .     A
C204   C397    1.417   .     S
C205   H233    1.082   .     S
C205   N236    1.367   .     A
C206   H234    1.082   .     S
C206   N235    1.367   .     A
C206   C395    1.417   .     S
C207   O244    1.293   .     A
C207   O241    1.294   .     A
C207   C212    1.459   .     S
C208   O243    1.293   .     A
C208   C211    1.459   .     S
C208   O242    1.294   .     A
C209   H225    1.083   .     S
C209   C211    1.400   .     A
C209   C219    1.401   .     A
C210   C220    1.401   .     A
C210   H226    1.083   .     S
C210   C212    1.400   .     A
C211   C213    1.398   .     A
C212   C214    1.398   .     A
C213   H227    1.085   .     S
C213   C215    1.392   .     A
C214   C216    1.392   .     A
C214   H228    1.085   .     S
C215   C221    1.399   .     A
C215   C217    1.412   .     A
C216   C218    1.412   .     A
C216   C222    1.399   .     A
C217   C219    1.417   .     A
C217   C794    1.404   .     S
C218   C220    1.417   .     A
C218   C793    1.404   1_554 S
C221   H229    1.085   .     S
C221   C771    1.395   .     S
C222   H230    1.085   .     S
C222   C772    1.395   1_554 S
Cu223  Cu224   2.678   .     S
Cu223  O239    1.959   .     S
Cu223  N235    2.012   .     S
Cu223  O241    1.968   .     S
Cu223  O237    1.959   .     S
Cu223  O243    1.967   .     S
Cu224  O240    1.959   .     S
Cu224  O242    1.968   .     S
Cu224  N236    2.012   .     S
Cu224  O244    1.967   .     S
Cu224  O238    1.959   .     S
C245   N246    1.157   .     T
C247   N248    1.157   .     T
C249   N250    1.157   .     T
C251   N252    1.157   .     T
C253   N254    1.157   .     T
C255   N256    1.157   .     T
C257   O304    1.287   .     A
C257   O301    1.287   .     A
C257   C266    1.447   .     S
C258   O303    1.287   .     A
C258   O302    1.287   .     A
C258   C265    1.447   .     S
C259   C309    1.446   .     S
C259   C284    1.414   .     A
C259   C861    1.395   1_554 S
C260   C311    1.446   .     S
C260   C283    1.414   .     A
C260   C862    1.395   .     S
C261   C313    1.453   .     S
C261   C266    1.409   .     A
C262   C265    1.409   .     A
C262   C315    1.453   .     S
C262   C328    1.397   .     S
C263   C265    1.409   .     A
C263   C317    1.453   .     S
C263   C325    1.397   .     S
C264   C319    1.453   .     S
C264   C266    1.409   .     A
C267   N300    1.367   .     A
C267   H295    1.081   .     S
C268   H296    1.081   .     S
C268   N299    1.367   .     A
C268   C461    1.417   .     S
C269   H297    1.082   .     S
C269   N300    1.367   .     A
C270   H298    1.082   .     S
C270   N299    1.367   .     A
C270   C459    1.417   .     S
C271   O308    1.293   .     A
C271   O305    1.294   .     A
C271   C276    1.459   .     S
C272   O307    1.293   .     A
C272   C275    1.459   .     S
C272   O306    1.294   .     A
C273   H289    1.083   .     S
C273   C275    1.400   .     A
C273   C283    1.401   .     A
C274   C284    1.401   .     A
C274   H290    1.083   .     S
C274   C276    1.400   .     A
C275   C277    1.398   .     A
C276   C278    1.398   .     A
C277   H291    1.085   .     S
C277   C279    1.392   .     A
C278   C280    1.392   .     A
C278   H292    1.085   .     S
C279   C285    1.399   .     A
C279   C281    1.412   .     A
C280   C282    1.412   .     A
C280   C286    1.399   .     A
C281   C283    1.417   .     A
C281   C858    1.404   .     S
C282   C284    1.417   .     A
C282   C857    1.404   1_554 S
C285   H293    1.085   .     S
C285   C835    1.395   .     S
C286   H294    1.085   .     S
C286   C836    1.395   1_554 S
Cu287  Cu288   2.678   .     S
Cu287  O303    1.959   .     S
Cu287  N299    2.012   .     S
Cu287  O305    1.968   .     S
Cu287  O301    1.959   .     S
Cu287  O307    1.967   .     S
Cu288  O304    1.959   .     S
Cu288  O306    1.968   .     S
Cu288  N300    2.012   .     S
Cu288  O308    1.967   .     S
Cu288  O302    1.959   .     S
C309   N310    1.157   .     T
C311   N312    1.157   .     T
C313   N314    1.157   .     T
C315   N316    1.157   .     T
C317   N318    1.157   .     T
C319   N320    1.157   .     T
C321   O368    1.287   .     A
C321   O365    1.287   .     A
C321   C330    1.447   .     S
C322   O367    1.287   .     A
C322   O366    1.287   .     A
C322   C329    1.447   .     S
C323   C373    1.446   .     S
C323   C348    1.414   .     A
C323   C925    1.395   1_554 S
C324   C375    1.446   .     S
C324   C347    1.414   .     A
C324   C926    1.395   .     S
C325   C377    1.453   .     S
C325   C330    1.409   .     A
C326   C329    1.409   .     A
C326   C379    1.453   .     S
C326   C200    1.397   1_655 S
C327   C329    1.409   .     A
C327   C381    1.453   .     S
C327   C197    1.397   1_655 S
C328   C383    1.453   .     S
C328   C330    1.409   .     A
C331   N364    1.367   .     A
C331   H359    1.081   .     S
C332   H360    1.081   .     S
C332   N363    1.367   .     A
C332   C525    1.417   .     S
C333   H361    1.082   .     S
C333   N364    1.367   .     A
C334   H362    1.082   .     S
C334   N363    1.367   .     A
C334   C523    1.417   .     S
C335   O372    1.293   .     A
C335   O369    1.294   .     A
C335   C340    1.459   .     S
C336   O371    1.293   .     A
C336   C339    1.459   .     S
C336   O370    1.294   .     A
C337   H353    1.083   .     S
C337   C339    1.400   .     A
C337   C347    1.401   .     A
C338   C348    1.401   .     A
C338   H354    1.083   .     S
C338   C340    1.400   .     A
C339   C341    1.398   .     A
C340   C342    1.398   .     A
C341   H355    1.085   .     S
C341   C343    1.392   .     A
C342   C344    1.392   .     A
C342   H356    1.085   .     S
C343   C349    1.399   .     A
C343   C345    1.412   .     A
C344   C346    1.412   .     A
C344   C350    1.399   .     A
C345   C347    1.417   .     A
C345   C922    1.404   .     S
C346   C348    1.417   .     A
C346   C921    1.404   1_554 S
C349   H357    1.085   .     S
C349   C899    1.395   .     S
C350   H358    1.085   .     S
C350   C900    1.395   1_554 S
Cu351  Cu352   2.678   .     S
Cu351  O367    1.959   .     S
Cu351  N363    2.012   .     S
Cu351  O369    1.968   .     S
Cu351  O365    1.959   .     S
Cu351  O371    1.967   .     S
Cu352  O368    1.959   .     S
Cu352  O370    1.968   .     S
Cu352  N364    2.012   .     S
Cu352  O372    1.967   .     S
Cu352  O366    1.959   .     S
C373   N374    1.157   .     T
C375   N376    1.157   .     T
C377   N378    1.157   .     T
C379   N380    1.157   .     T
C381   N382    1.157   .     T
C383   N384    1.157   .     T
C385   O432    1.287   .     A
C385   O429    1.287   .     A
C385   C394    1.447   .     S
C386   O431    1.287   .     A
C386   O430    1.287   .     A
C386   C393    1.447   .     S
C387   C437    1.446   .     S
C387   C412    1.414   .     A
C387   C989    1.395   1_554 S
C388   C439    1.446   .     S
C388   C411    1.414   .     A
C388   C990    1.395   .     S
C389   C441    1.453   .     S
C389   C394    1.409   .     A
C389   C519    1.397   1_455 S
C390   C393    1.409   .     A
C390   C443    1.453   .     S
C390   C456    1.397   .     S
C391   C393    1.409   .     A
C391   C445    1.453   .     S
C391   C453    1.397   .     S
C392   C447    1.453   .     S
C392   C394    1.409   .     A
C392   C518    1.397   1_455 S
C395   N428    1.367   .     A
C395   H423    1.081   .     S
C396   H424    1.081   .     S
C396   N427    1.367   .     A
C396   C13     1.417   1_565 S
C397   H425    1.082   .     S
C397   N428    1.367   .     A
C398   H426    1.082   .     S
C398   N427    1.367   .     A
C398   C11     1.417   1_565 S
C399   O436    1.293   .     A
C399   O433    1.294   .     A
C399   C404    1.459   .     S
C400   O435    1.293   .     A
C400   C403    1.459   .     S
C400   O434    1.294   .     A
C401   H417    1.083   .     S
C401   C403    1.400   .     A
C401   C411    1.401   .     A
C402   C412    1.401   .     A
C402   H418    1.083   .     S
C402   C404    1.400   .     A
C403   C405    1.398   .     A
C404   C406    1.398   .     A
C405   H419    1.085   .     S
C405   C407    1.392   .     A
C406   C408    1.392   .     A
C406   H420    1.085   .     S
C407   C413    1.399   .     A
C407   C409    1.412   .     A
C408   C410    1.412   .     A
C408   C414    1.399   .     A
C409   C411    1.417   .     A
C409   C986    1.404   .     S
C410   C412    1.417   .     A
C410   C985    1.404   1_554 S
C413   H421    1.085   .     S
C413   C963    1.395   .     S
C414   H422    1.085   .     S
C414   C964    1.395   1_554 S
Cu415  Cu416   2.678   .     S
Cu415  O431    1.959   .     S
Cu415  N427    2.012   .     S
Cu415  O433    1.968   .     S
Cu415  O429    1.959   .     S
Cu415  O435    1.967   .     S
Cu416  O432    1.959   .     S
Cu416  O434    1.968   .     S
Cu416  N428    2.012   .     S
Cu416  O436    1.967   .     S
Cu416  O430    1.959   .     S
C437   N438    1.157   .     T
C439   N440    1.157   .     T
C441   N442    1.157   .     T
C443   N444    1.157   .     T
C445   N446    1.157   .     T
C447   N448    1.157   .     T
C449   O496    1.287   .     A
C449   O493    1.287   .     A
C449   C458    1.447   .     S
C450   O495    1.287   .     A
C450   O494    1.287   .     A
C450   C457    1.447   .     S
C451   C501    1.446   .     S
C451   C476    1.414   .     A
C451   C1053   1.395   1_554 S
C452   C503    1.446   .     S
C452   C475    1.414   .     A
C452   C1054   1.395   .     S
C453   C505    1.453   .     S
C453   C458    1.409   .     A
C454   C457    1.409   .     A
C454   C507    1.453   .     S
C454   C520    1.397   .     S
C455   C457    1.409   .     A
C455   C509    1.453   .     S
C455   C517    1.397   .     S
C456   C511    1.453   .     S
C456   C458    1.409   .     A
C459   N492    1.367   .     A
C459   H487    1.081   .     S
C460   H488    1.081   .     S
C460   N491    1.367   .     A
C460   C77     1.417   1_565 S
C461   H489    1.082   .     S
C461   N492    1.367   .     A
C462   H490    1.082   .     S
C462   N491    1.367   .     A
C462   C75     1.417   1_565 S
C463   O500    1.293   .     A
C463   O497    1.294   .     A
C463   C468    1.459   .     S
C464   O499    1.293   .     A
C464   C467    1.459   .     S
C464   O498    1.294   .     A
C465   H481    1.083   .     S
C465   C467    1.400   .     A
C465   C475    1.401   .     A
C466   C476    1.401   .     A
C466   H482    1.083   .     S
C466   C468    1.400   .     A
C467   C469    1.398   .     A
C468   C470    1.398   .     A
C469   H483    1.085   .     S
C469   C471    1.392   .     A
C470   C472    1.392   .     A
C470   H484    1.085   .     S
C471   C477    1.399   .     A
C471   C473    1.412   .     A
C472   C474    1.412   .     A
C472   C478    1.399   .     A
C473   C475    1.417   .     A
C473   C1050   1.404   .     S
C474   C476    1.417   .     A
C474   C1049   1.404   1_554 S
C477   H485    1.085   .     S
C477   C1027   1.395   .     S
C478   H486    1.085   .     S
C478   C1028   1.395   1_554 S
Cu479  Cu480   2.678   .     S
Cu479  O495    1.959   .     S
Cu479  N491    2.012   .     S
Cu479  O497    1.968   .     S
Cu479  O493    1.959   .     S
Cu479  O499    1.967   .     S
Cu480  O496    1.959   .     S
Cu480  O498    1.968   .     S
Cu480  N492    2.012   .     S
Cu480  O500    1.967   .     S
Cu480  O494    1.959   .     S
C501   N502    1.157   .     T
C503   N504    1.157   .     T
C505   N506    1.157   .     T
C507   N508    1.157   .     T
C509   N510    1.157   .     T
C511   N512    1.157   .     T
C513   O560    1.287   .     A
C513   O557    1.287   .     A
C513   C522    1.447   .     S
C514   O559    1.287   .     A
C514   O558    1.287   .     A
C514   C521    1.447   .     S
C515   C565    1.446   .     S
C515   C540    1.414   .     A
C515   C1117   1.395   1_554 S
C516   C567    1.446   .     S
C516   C539    1.414   .     A
C516   C1118   1.395   .     S
C517   C569    1.453   .     S
C517   C522    1.409   .     A
C518   C521    1.409   .     A
C518   C571    1.453   .     S
C518   C392    1.397   1_655 S
C519   C521    1.409   .     A
C519   C573    1.453   .     S
C519   C389    1.397   1_655 S
C520   C575    1.453   .     S
C520   C522    1.409   .     A
C523   N556    1.367   .     A
C523   H551    1.081   .     S
C524   H552    1.081   .     S
C524   N555    1.367   .     A
C524   C141    1.417   1_565 S
C525   H553    1.082   .     S
C525   N556    1.367   .     A
C526   H554    1.082   .     S
C526   N555    1.367   .     A
C526   C139    1.417   1_565 S
C527   O564    1.293   .     A
C527   O561    1.294   .     A
C527   C532    1.459   .     S
C528   O563    1.293   .     A
C528   C531    1.459   .     S
C528   O562    1.294   .     A
C529   H545    1.083   .     S
C529   C531    1.400   .     A
C529   C539    1.401   .     A
C530   C540    1.401   .     A
C530   H546    1.083   .     S
C530   C532    1.400   .     A
C531   C533    1.398   .     A
C532   C534    1.398   .     A
C533   H547    1.085   .     S
C533   C535    1.392   .     A
C534   C536    1.392   .     A
C534   H548    1.085   .     S
C535   C541    1.399   .     A
C535   C537    1.412   .     A
C536   C538    1.412   .     A
C536   C542    1.399   .     A
C537   C539    1.417   .     A
C537   C1114   1.404   .     S
C538   C540    1.417   .     A
C538   C1113   1.404   1_554 S
C541   H549    1.085   .     S
C541   C1091   1.395   .     S
C542   H550    1.085   .     S
C542   C1092   1.395   1_554 S
Cu543  Cu544   2.678   .     S
Cu543  O559    1.959   .     S
Cu543  N555    2.012   .     S
Cu543  O561    1.968   .     S
Cu543  O557    1.959   .     S
Cu543  O563    1.967   .     S
Cu544  O560    1.959   .     S
Cu544  O562    1.968   .     S
Cu544  N556    2.012   .     S
Cu544  O564    1.967   .     S
Cu544  O558    1.959   .     S
C565   N566    1.157   .     T
C567   N568    1.157   .     T
C569   N570    1.157   .     T
C571   N572    1.157   .     T
C573   N574    1.157   .     T
C575   N576    1.157   .     T
C577   O624    1.287   .     A
C577   O621    1.287   .     A
C577   C586    1.447   .     S
C578   O623    1.287   .     A
C578   O622    1.287   .     A
C578   C585    1.447   .     S
C579   C629    1.446   .     S
C579   C604    1.414   .     A
C580   C631    1.446   .     S
C580   C603    1.414   .     A
C580   C30     1.395   1_556 S
C581   C633    1.453   .     S
C581   C586    1.409   .     A
C581   C711    1.397   1_455 S
C582   C585    1.409   .     A
C582   C635    1.453   .     S
C582   C648    1.397   .     S
C583   C585    1.409   .     A
C583   C637    1.453   .     S
C583   C645    1.397   .     S
C584   C639    1.453   .     S
C584   C586    1.409   .     A
C584   C710    1.397   1_455 S
C587   N620    1.367   .     A
C587   H615    1.081   .     S
C587   C974    1.417   1_545 S
C588   H616    1.081   .     S
C588   N619    1.367   .     A
C588   C781    1.417   .     S
C589   H617    1.082   .     S
C589   N620    1.367   .     A
C589   C972    1.417   1_545 S
C590   H618    1.082   .     S
C590   N619    1.367   .     A
C590   C779    1.417   .     S
C591   O628    1.293   .     A
C591   O625    1.294   .     A
C591   C596    1.459   .     S
C592   O627    1.293   .     A
C592   C595    1.459   .     S
C592   O626    1.294   .     A
C593   H609    1.083   .     S
C593   C595    1.400   .     A
C593   C603    1.401   .     A
C594   C604    1.401   .     A
C594   H610    1.083   .     S
C594   C596    1.400   .     A
C595   C597    1.398   .     A
C596   C598    1.398   .     A
C597   H611    1.085   .     S
C597   C599    1.392   .     A
C598   C600    1.392   .     A
C598   H612    1.085   .     S
C599   C605    1.399   .     A
C599   C601    1.412   .     A
C600   C602    1.412   .     A
C600   C606    1.399   .     A
C601   C603    1.417   .     A
C601   C26     1.404   1_556 S
C602   C604    1.417   .     A
C605   H613    1.085   .     S
C605   C3      1.395   1_556 S
C606   H614    1.085   .     S
Cu607  Cu608   2.678   .     S
Cu607  O623    1.959   .     S
Cu607  N619    2.012   .     S
Cu607  O625    1.968   .     S
Cu607  O621    1.959   .     S
Cu607  O627    1.967   .     S
Cu608  O624    1.959   .     S
Cu608  O626    1.968   .     S
Cu608  N620    2.012   .     S
Cu608  O628    1.967   .     S
Cu608  O622    1.959   .     S
C629   N630    1.157   .     T
C631   N632    1.157   .     T
C633   N634    1.157   .     T
C635   N636    1.157   .     T
C637   N638    1.157   .     T
C639   N640    1.157   .     T
C641   O688    1.287   .     A
C641   O685    1.287   .     A
C641   C650    1.447   .     S
C642   O687    1.287   .     A
C642   O686    1.287   .     A
C642   C649    1.447   .     S
C643   C693    1.446   .     S
C643   C668    1.414   .     A
C644   C695    1.446   .     S
C644   C667    1.414   .     A
C644   C94     1.395   1_556 S
C645   C697    1.453   .     S
C645   C650    1.409   .     A
C646   C649    1.409   .     A
C646   C699    1.453   .     S
C646   C712    1.397   .     S
C647   C649    1.409   .     A
C647   C701    1.453   .     S
C647   C709    1.397   .     S
C648   C703    1.453   .     S
C648   C650    1.409   .     A
C651   N684    1.367   .     A
C651   H679    1.081   .     S
C651   C1038   1.417   1_545 S
C652   H680    1.081   .     S
C652   N683    1.367   .     A
C652   C845    1.417   .     S
C653   H681    1.082   .     S
C653   N684    1.367   .     A
C653   C1036   1.417   1_545 S
C654   H682    1.082   .     S
C654   N683    1.367   .     A
C654   C843    1.417   .     S
C655   O692    1.293   .     A
C655   O689    1.294   .     A
C655   C660    1.459   .     S
C656   O691    1.293   .     A
C656   C659    1.459   .     S
C656   O690    1.294   .     A
C657   H673    1.083   .     S
C657   C659    1.400   .     A
C657   C667    1.401   .     A
C658   C668    1.401   .     A
C658   H674    1.083   .     S
C658   C660    1.400   .     A
C659   C661    1.398   .     A
C660   C662    1.398   .     A
C661   H675    1.085   .     S
C661   C663    1.392   .     A
C662   C664    1.392   .     A
C662   H676    1.085   .     S
C663   C669    1.399   .     A
C663   C665    1.412   .     A
C664   C666    1.412   .     A
C664   C670    1.399   .     A
C665   C667    1.417   .     A
C665   C90     1.404   1_556 S
C666   C668    1.417   .     A
C669   H677    1.085   .     S
C669   C67     1.395   1_556 S
C670   H678    1.085   .     S
Cu671  Cu672   2.678   .     S
Cu671  O687    1.959   .     S
Cu671  N683    2.012   .     S
Cu671  O689    1.968   .     S
Cu671  O685    1.959   .     S
Cu671  O691    1.967   .     S
Cu672  O688    1.959   .     S
Cu672  O690    1.968   .     S
Cu672  N684    2.012   .     S
Cu672  O692    1.967   .     S
Cu672  O686    1.959   .     S
C693   N694    1.157   .     T
C695   N696    1.157   .     T
C697   N698    1.157   .     T
C699   N700    1.157   .     T
C701   N702    1.157   .     T
C703   N704    1.157   .     T
C705   O752    1.287   .     A
C705   O749    1.287   .     A
C705   C714    1.447   .     S
C706   O751    1.287   .     A
C706   O750    1.287   .     A
C706   C713    1.447   .     S
C707   C757    1.446   .     S
C707   C732    1.414   .     A
C708   C759    1.446   .     S
C708   C731    1.414   .     A
C708   C158    1.395   1_556 S
C709   C761    1.453   .     S
C709   C714    1.409   .     A
C710   C713    1.409   .     A
C710   C763    1.453   .     S
C710   C584    1.397   1_655 S
C711   C713    1.409   .     A
C711   C765    1.453   .     S
C711   C581    1.397   1_655 S
C712   C767    1.453   .     S
C712   C714    1.409   .     A
C715   N748    1.367   .     A
C715   H743    1.081   .     S
C715   C1102   1.417   1_545 S
C716   H744    1.081   .     S
C716   N747    1.367   .     A
C716   C909    1.417   .     S
C717   H745    1.082   .     S
C717   N748    1.367   .     A
C717   C1100   1.417   1_545 S
C718   H746    1.082   .     S
C718   N747    1.367   .     A
C718   C907    1.417   .     S
C719   O756    1.293   .     A
C719   O753    1.294   .     A
C719   C724    1.459   .     S
C720   O755    1.293   .     A
C720   C723    1.459   .     S
C720   O754    1.294   .     A
C721   H737    1.083   .     S
C721   C723    1.400   .     A
C721   C731    1.401   .     A
C722   C732    1.401   .     A
C722   H738    1.083   .     S
C722   C724    1.400   .     A
C723   C725    1.398   .     A
C724   C726    1.398   .     A
C725   H739    1.085   .     S
C725   C727    1.392   .     A
C726   C728    1.392   .     A
C726   H740    1.085   .     S
C727   C733    1.399   .     A
C727   C729    1.412   .     A
C728   C730    1.412   .     A
C728   C734    1.399   .     A
C729   C731    1.417   .     A
C729   C154    1.404   1_556 S
C730   C732    1.417   .     A
C733   H741    1.085   .     S
C733   C131    1.395   1_556 S
C734   H742    1.085   .     S
Cu735  Cu736   2.678   .     S
Cu735  O751    1.959   .     S
Cu735  N747    2.012   .     S
Cu735  O753    1.968   .     S
Cu735  O749    1.959   .     S
Cu735  O755    1.967   .     S
Cu736  O752    1.959   .     S
Cu736  O754    1.968   .     S
Cu736  N748    2.012   .     S
Cu736  O756    1.967   .     S
Cu736  O750    1.959   .     S
C757   N758    1.157   .     T
C759   N760    1.157   .     T
C761   N762    1.157   .     T
C763   N764    1.157   .     T
C765   N766    1.157   .     T
C767   N768    1.157   .     T
C769   O816    1.287   .     A
C769   O813    1.287   .     A
C769   C778    1.447   .     S
C770   O815    1.287   .     A
C770   O814    1.287   .     A
C770   C777    1.447   .     S
C771   C821    1.446   .     S
C771   C796    1.414   .     A
C772   C823    1.446   .     S
C772   C795    1.414   .     A
C772   C222    1.395   1_556 S
C773   C825    1.453   .     S
C773   C778    1.409   .     A
C773   C903    1.397   1_455 S
C774   C777    1.409   .     A
C774   C827    1.453   .     S
C774   C840    1.397   .     S
C775   C777    1.409   .     A
C775   C829    1.453   .     S
C775   C837    1.397   .     S
C776   C831    1.453   .     S
C776   C778    1.409   .     A
C776   C902    1.397   1_455 S
C779   N812    1.367   .     A
C779   H807    1.081   .     S
C780   H808    1.081   .     S
C780   N811    1.367   .     A
C780   C973    1.417   .     S
C781   H809    1.082   .     S
C781   N812    1.367   .     A
C782   H810    1.082   .     S
C782   N811    1.367   .     A
C782   C971    1.417   .     S
C783   O820    1.293   .     A
C783   O817    1.294   .     A
C783   C788    1.459   .     S
C784   O819    1.293   .     A
C784   C787    1.459   .     S
C784   O818    1.294   .     A
C785   H801    1.083   .     S
C785   C787    1.400   .     A
C785   C795    1.401   .     A
C786   C796    1.401   .     A
C786   H802    1.083   .     S
C786   C788    1.400   .     A
C787   C789    1.398   .     A
C788   C790    1.398   .     A
C789   H803    1.085   .     S
C789   C791    1.392   .     A
C790   C792    1.392   .     A
C790   H804    1.085   .     S
C791   C797    1.399   .     A
C791   C793    1.412   .     A
C792   C794    1.412   .     A
C792   C798    1.399   .     A
C793   C795    1.417   .     A
C793   C218    1.404   1_556 S
C794   C796    1.417   .     A
C797   H805    1.085   .     S
C797   C195    1.395   1_556 S
C798   H806    1.085   .     S
Cu799  Cu800   2.678   .     S
Cu799  O815    1.959   .     S
Cu799  N811    2.012   .     S
Cu799  O817    1.968   .     S
Cu799  O813    1.959   .     S
Cu799  O819    1.967   .     S
Cu800  O816    1.959   .     S
Cu800  O818    1.968   .     S
Cu800  N812    2.012   .     S
Cu800  O820    1.967   .     S
Cu800  O814    1.959   .     S
C821   N822    1.157   .     T
C823   N824    1.157   .     T
C825   N826    1.157   .     T
C827   N828    1.157   .     T
C829   N830    1.157   .     T
C831   N832    1.157   .     T
C833   O880    1.287   .     A
C833   O877    1.287   .     A
C833   C842    1.447   .     S
C834   O879    1.287   .     A
C834   O878    1.287   .     A
C834   C841    1.447   .     S
C835   C885    1.446   .     S
C835   C860    1.414   .     A
C836   C887    1.446   .     S
C836   C859    1.414   .     A
C836   C286    1.395   1_556 S
C837   C889    1.453   .     S
C837   C842    1.409   .     A
C838   C841    1.409   .     A
C838   C891    1.453   .     S
C838   C904    1.397   .     S
C839   C841    1.409   .     A
C839   C893    1.453   .     S
C839   C901    1.397   .     S
C840   C895    1.453   .     S
C840   C842    1.409   .     A
C843   N876    1.367   .     A
C843   H871    1.081   .     S
C844   H872    1.081   .     S
C844   N875    1.367   .     A
C844   C1037   1.417   .     S
C845   H873    1.082   .     S
C845   N876    1.367   .     A
C846   H874    1.082   .     S
C846   N875    1.367   .     A
C846   C1035   1.417   .     S
C847   O884    1.293   .     A
C847   O881    1.294   .     A
C847   C852    1.459   .     S
C848   O883    1.293   .     A
C848   C851    1.459   .     S
C848   O882    1.294   .     A
C849   H865    1.083   .     S
C849   C851    1.400   .     A
C849   C859    1.401   .     A
C850   C860    1.401   .     A
C850   H866    1.083   .     S
C850   C852    1.400   .     A
C851   C853    1.398   .     A
C852   C854    1.398   .     A
C853   H867    1.085   .     S
C853   C855    1.392   .     A
C854   C856    1.392   .     A
C854   H868    1.085   .     S
C855   C861    1.399   .     A
C855   C857    1.412   .     A
C856   C858    1.412   .     A
C856   C862    1.399   .     A
C857   C859    1.417   .     A
C857   C282    1.404   1_556 S
C858   C860    1.417   .     A
C861   H869    1.085   .     S
C861   C259    1.395   1_556 S
C862   H870    1.085   .     S
Cu863  Cu864   2.678   .     S
Cu863  O879    1.959   .     S
Cu863  N875    2.012   .     S
Cu863  O881    1.968   .     S
Cu863  O877    1.959   .     S
Cu863  O883    1.967   .     S
Cu864  O880    1.959   .     S
Cu864  O882    1.968   .     S
Cu864  N876    2.012   .     S
Cu864  O884    1.967   .     S
Cu864  O878    1.959   .     S
C885   N886    1.157   .     T
C887   N888    1.157   .     T
C889   N890    1.157   .     T
C891   N892    1.157   .     T
C893   N894    1.157   .     T
C895   N896    1.157   .     T
C897   O944    1.287   .     A
C897   O941    1.287   .     A
C897   C906    1.447   .     S
C898   O943    1.287   .     A
C898   O942    1.287   .     A
C898   C905    1.447   .     S
C899   C949    1.446   .     S
C899   C924    1.414   .     A
C900   C951    1.446   .     S
C900   C923    1.414   .     A
C900   C350    1.395   1_556 S
C901   C953    1.453   .     S
C901   C906    1.409   .     A
C902   C905    1.409   .     A
C902   C955    1.453   .     S
C902   C776    1.397   1_655 S
C903   C905    1.409   .     A
C903   C957    1.453   .     S
C903   C773    1.397   1_655 S
C904   C959    1.453   .     S
C904   C906    1.409   .     A
C907   N940    1.367   .     A
C907   H935    1.081   .     S
C908   H936    1.081   .     S
C908   N939    1.367   .     A
C908   C1101   1.417   .     S
C909   H937    1.082   .     S
C909   N940    1.367   .     A
C910   H938    1.082   .     S
C910   N939    1.367   .     A
C910   C1099   1.417   .     S
C911   O948    1.293   .     A
C911   O945    1.294   .     A
C911   C916    1.459   .     S
C912   O947    1.293   .     A
C912   C915    1.459   .     S
C912   O946    1.294   .     A
C913   H929    1.083   .     S
C913   C915    1.400   .     A
C913   C923    1.401   .     A
C914   C924    1.401   .     A
C914   H930    1.083   .     S
C914   C916    1.400   .     A
C915   C917    1.398   .     A
C916   C918    1.398   .     A
C917   H931    1.085   .     S
C917   C919    1.392   .     A
C918   C920    1.392   .     A
C918   H932    1.085   .     S
C919   C925    1.399   .     A
C919   C921    1.412   .     A
C920   C922    1.412   .     A
C920   C926    1.399   .     A
C921   C923    1.417   .     A
C921   C346    1.404   1_556 S
C922   C924    1.417   .     A
C925   H933    1.085   .     S
C925   C323    1.395   1_556 S
C926   H934    1.085   .     S
Cu927  Cu928   2.678   .     S
Cu927  O943    1.959   .     S
Cu927  N939    2.012   .     S
Cu927  O945    1.968   .     S
Cu927  O941    1.959   .     S
Cu927  O947    1.967   .     S
Cu928  O944    1.959   .     S
Cu928  O946    1.968   .     S
Cu928  N940    2.012   .     S
Cu928  O948    1.967   .     S
Cu928  O942    1.959   .     S
C949   N950    1.157   .     T
C951   N952    1.157   .     T
C953   N954    1.157   .     T
C955   N956    1.157   .     T
C957   N958    1.157   .     T
C959   N960    1.157   .     T
C961   O1008   1.287   .     A
C961   O1005   1.287   .     A
C961   C970    1.447   .     S
C962   O1007   1.287   .     A
C962   O1006   1.287   .     A
C962   C969    1.447   .     S
C963   C1013   1.446   .     S
C963   C988    1.414   .     A
C964   C1015   1.446   .     S
C964   C987    1.414   .     A
C964   C414    1.395   1_556 S
C965   C1017   1.453   .     S
C965   C970    1.409   .     A
C965   C1095   1.397   1_455 S
C966   C969    1.409   .     A
C966   C1019   1.453   .     S
C966   C1032   1.397   .     S
C967   C969    1.409   .     A
C967   C1021   1.453   .     S
C967   C1029   1.397   .     S
C968   C1023   1.453   .     S
C968   C970    1.409   .     A
C968   C1094   1.397   1_455 S
C971   N1004   1.367   .     A
C971   H999    1.081   .     S
C972   H1000   1.081   .     S
C972   N1003   1.367   .     A
C972   C589    1.417   1_565 S
C973   H1001   1.082   .     S
C973   N1004   1.367   .     A
C974   H1002   1.082   .     S
C974   N1003   1.367   .     A
C974   C587    1.417   1_565 S
C975   O1012   1.293   .     A
C975   O1009   1.294   .     A
C975   C980    1.459   .     S
C976   O1011   1.293   .     A
C976   C979    1.459   .     S
C976   O1010   1.294   .     A
C977   H993    1.083   .     S
C977   C979    1.400   .     A
C977   C987    1.401   .     A
C978   C988    1.401   .     A
C978   H994    1.083   .     S
C978   C980    1.400   .     A
C979   C981    1.398   .     A
C980   C982    1.398   .     A
C981   H995    1.085   .     S
C981   C983    1.392   .     A
C982   C984    1.392   .     A
C982   H996    1.085   .     S
C983   C989    1.399   .     A
C983   C985    1.412   .     A
C984   C986    1.412   .     A
C984   C990    1.399   .     A
C985   C987    1.417   .     A
C985   C410    1.404   1_556 S
C986   C988    1.417   .     A
C989   H997    1.085   .     S
C989   C387    1.395   1_556 S
C990   H998    1.085   .     S
Cu991  Cu992   2.678   .     S
Cu991  O1007   1.959   .     S
Cu991  N1003   2.012   .     S
Cu991  O1009   1.968   .     S
Cu991  O1005   1.959   .     S
Cu991  O1011   1.967   .     S
Cu992  O1008   1.959   .     S
Cu992  O1010   1.968   .     S
Cu992  N1004   2.012   .     S
Cu992  O1012   1.967   .     S
Cu992  O1006   1.959   .     S
C1013  N1014   1.157   .     T
C1015  N1016   1.157   .     T
C1017  N1018   1.157   .     T
C1019  N1020   1.157   .     T
C1021  N1022   1.157   .     T
C1023  N1024   1.157   .     T
C1025  O1072   1.287   .     A
C1025  O1069   1.287   .     A
C1025  C1034   1.447   .     S
C1026  O1071   1.287   .     A
C1026  O1070   1.287   .     A
C1026  C1033   1.447   .     S
C1027  C1077   1.446   .     S
C1027  C1052   1.414   .     A
C1028  C1079   1.446   .     S
C1028  C1051   1.414   .     A
C1028  C478    1.395   1_556 S
C1029  C1081   1.453   .     S
C1029  C1034   1.409   .     A
C1030  C1033   1.409   .     A
C1030  C1083   1.453   .     S
C1030  C1096   1.397   .     S
C1031  C1033   1.409   .     A
C1031  C1085   1.453   .     S
C1031  C1093   1.397   .     S
C1032  C1087   1.453   .     S
C1032  C1034   1.409   .     A
C1035  N1068   1.367   .     A
C1035  H1063   1.081   .     S
C1036  H1064   1.081   .     S
C1036  N1067   1.367   .     A
C1036  C653    1.417   1_565 S
C1037  H1065   1.082   .     S
C1037  N1068   1.367   .     A
C1038  H1066   1.082   .     S
C1038  N1067   1.367   .     A
C1038  C651    1.417   1_565 S
C1039  O1076   1.293   .     A
C1039  O1073   1.294   .     A
C1039  C1044   1.459   .     S
C1040  O1075   1.293   .     A
C1040  C1043   1.459   .     S
C1040  O1074   1.294   .     A
C1041  H1057   1.083   .     S
C1041  C1043   1.400   .     A
C1041  C1051   1.401   .     A
C1042  C1052   1.401   .     A
C1042  H1058   1.083   .     S
C1042  C1044   1.400   .     A
C1043  C1045   1.398   .     A
C1044  C1046   1.398   .     A
C1045  H1059   1.085   .     S
C1045  C1047   1.392   .     A
C1046  C1048   1.392   .     A
C1046  H1060   1.085   .     S
C1047  C1053   1.399   .     A
C1047  C1049   1.412   .     A
C1048  C1050   1.412   .     A
C1048  C1054   1.399   .     A
C1049  C1051   1.417   .     A
C1049  C474    1.404   1_556 S
C1050  C1052   1.417   .     A
C1053  H1061   1.085   .     S
C1053  C451    1.395   1_556 S
C1054  H1062   1.085   .     S
Cu1055 Cu1056  2.678   .     S
Cu1055 O1071   1.959   .     S
Cu1055 N1067   2.012   .     S
Cu1055 O1073   1.968   .     S
Cu1055 O1069   1.959   .     S
Cu1055 O1075   1.967   .     S
Cu1056 O1072   1.959   .     S
Cu1056 O1074   1.968   .     S
Cu1056 N1068   2.012   .     S
Cu1056 O1076   1.967   .     S
Cu1056 O1070   1.959   .     S
C1077  N1078   1.157   .     T
C1079  N1080   1.157   .     T
C1081  N1082   1.157   .     T
C1083  N1084   1.157   .     T
C1085  N1086   1.157   .     T
C1087  N1088   1.157   .     T
C1089  O1136   1.287   .     A
C1089  O1133   1.287   .     A
C1089  C1098   1.447   .     S
C1090  O1135   1.287   .     A
C1090  O1134   1.287   .     A
C1090  C1097   1.447   .     S
C1091  C1141   1.446   .     S
C1091  C1116   1.414   .     A
C1092  C1143   1.446   .     S
C1092  C1115   1.414   .     A
C1092  C542    1.395   1_556 S
C1093  C1145   1.453   .     S
C1093  C1098   1.409   .     A
C1094  C1097   1.409   .     A
C1094  C1147   1.453   .     S
C1094  C968    1.397   1_655 S
C1095  C1097   1.409   .     A
C1095  C1149   1.453   .     S
C1095  C965    1.397   1_655 S
C1096  C1151   1.453   .     S
C1096  C1098   1.409   .     A
C1099  N1132   1.367   .     A
C1099  H1127   1.081   .     S
C1100  H1128   1.081   .     S
C1100  N1131   1.367   .     A
C1100  C717    1.417   1_565 S
C1101  H1129   1.082   .     S
C1101  N1132   1.367   .     A
C1102  H1130   1.082   .     S
C1102  N1131   1.367   .     A
C1102  C715    1.417   1_565 S
C1103  O1140   1.293   .     A
C1103  O1137   1.294   .     A
C1103  C1108   1.459   .     S
C1104  O1139   1.293   .     A
C1104  C1107   1.459   .     S
C1104  O1138   1.294   .     A
C1105  H1121   1.083   .     S
C1105  C1107   1.400   .     A
C1105  C1115   1.401   .     A
C1106  C1116   1.401   .     A
C1106  H1122   1.083   .     S
C1106  C1108   1.400   .     A
C1107  C1109   1.398   .     A
C1108  C1110   1.398   .     A
C1109  H1123   1.085   .     S
C1109  C1111   1.392   .     A
C1110  C1112   1.392   .     A
C1110  H1124   1.085   .     S
C1111  C1117   1.399   .     A
C1111  C1113   1.412   .     A
C1112  C1114   1.412   .     A
C1112  C1118   1.399   .     A
C1113  C1115   1.417   .     A
C1113  C538    1.404   1_556 S
C1114  C1116   1.417   .     A
C1117  H1125   1.085   .     S
C1117  C515    1.395   1_556 S
C1118  H1126   1.085   .     S
Cu1119 Cu1120  2.678   .     S
Cu1119 O1135   1.959   .     S
Cu1119 N1131   2.012   .     S
Cu1119 O1137   1.968   .     S
Cu1119 O1133   1.959   .     S
Cu1119 O1139   1.967   .     S
Cu1120 O1136   1.959   .     S
Cu1120 O1138   1.968   .     S
Cu1120 N1132   2.012   .     S
Cu1120 O1140   1.967   .     S
Cu1120 O1134   1.959   .     S
C1141  N1142   1.157   .     T
C1143  N1144   1.157   .     T
C1145  N1146   1.157   .     T
C1147  N1148   1.157   .     T
C1149  N1150   1.157   .     T
C1151  N1152   1.157   .     T
