data_str_m2_o1_o2_pcu_sym.78
_audit_creation_date              2020-01-03
_audit_creation_method            'Materials Studio'
_symmetry_space_group_name_H-M    'P1'
_symmetry_Int_Tables_number       1
_symmetry_cell_setting            triclinic
loop_
_symmetry_equiv_pos_as_xyz
  x,y,z
_cell_length_a                    32.7582
_cell_length_b                    29.1033
_cell_length_c                    30.2851
_cell_angle_alpha                 89.6814
_cell_angle_beta                  95.7009
_cell_angle_gamma                 88.3237
loop_
_atom_site_label
_atom_site_type_symbol
_atom_site_fract_x
_atom_site_fract_y
_atom_site_fract_z
_atom_site_U_iso_or_equiv
_atom_site_adp_type
_atom_site_occupancy
C1     C     0.08756   0.16741   0.25208   0.00000  Uiso   1.00
C2     C     0.30906   0.20596   0.23173   0.00000  Uiso   1.00
C3     C     0.31371   0.12428   0.25008   0.00000  Uiso   1.00
C4     C     0.01836   0.20901   0.24076   0.00000  Uiso   1.00
C5     C     0.17337   0.20682   0.04754   0.00000  Uiso   1.00
C6     C     0.14732   0.13297   0.45022   0.00000  Uiso   1.00
C7     C     0.19340   0.19690   0.45405   0.00000  Uiso   1.00
C8     C     0.16912   0.12386   0.04818   0.00000  Uiso   1.00
C9     C     0.17314   0.20722   0.09340   0.00000  Uiso   1.00
C10    C     0.14658   0.13312   0.40421   0.00000  Uiso   1.00
C11    C     0.19172   0.19778   0.40801   0.00000  Uiso   1.00
C12    C     0.24537   0.16602   0.24634   0.00000  Uiso   1.00
C13    C     0.16783   0.12443   0.09394   0.00000  Uiso   1.00
C14    C     0.16926   0.16622   0.11691   0.00000  Uiso   1.00
C15    C     0.16831   0.16595   0.38295   0.00000  Uiso   1.00
C16    C     0.17122   0.16514   0.02440   0.00000  Uiso   1.00
C17    C     0.17080   0.16485   0.47564   0.00000  Uiso   1.00
C18    C     0.28982   0.16487   0.24091   0.00000  Uiso   1.00
C19    C     0.04243   0.16879   0.25372   0.00000  Uiso   1.00
C20    C     0.11197   0.05077   0.18473   0.00000  Uiso   1.00
C21    C     0.22173   0.28291   0.31511   0.00000  Uiso   1.00
C22    C     0.21773   0.04742   0.31796   0.00000  Uiso   1.00
C23    C     0.16729   0.16667   0.16514   0.00000  Uiso   1.00
C24    C     0.11928   0.28565   0.17974   0.00000  Uiso   1.00
C25    C     0.04549   0.08863   0.28614   0.00000  Uiso   1.00
C26    C     0.28438   0.24521   0.21073   0.00000  Uiso   1.00
C27    C     0.29568   0.07915   0.23920   0.00000  Uiso   1.00
C28    C     0.03594   0.25534   0.23953   0.00000  Uiso   1.00
C29    C     0.16713   0.16650   0.33476   0.00000  Uiso   1.00
C30    C     0.14147   0.02567   0.21914   0.00000  Uiso   1.00
C31    C     0.19187   0.30775   0.28085   0.00000  Uiso   1.00
C32    C     0.19163   0.02383   0.28102   0.00000  Uiso   1.00
C33    C     0.14221   0.30956   0.21855   0.00000  Uiso   1.00
C34    C     0.02268   0.12729   0.26173   0.00000  Uiso   1.00
Cu35   Cu    0.16667   0.21355   0.25000   0.00000  Uiso   1.00
Cu36   Cu    0.16667   0.11978   0.25000   0.00000  Uiso   1.00
H37    H     0.17471   0.23932   0.03027   0.00000  Uiso   1.00
H38    H     0.12028   0.04270   0.15091   0.00000  Uiso   1.00
H39    H     0.08017   0.04037   0.18799   0.00000  Uiso   1.00
H40    H     0.22332   0.24575   0.31345   0.00000  Uiso   1.00
H41    H     0.25359   0.29256   0.31100   0.00000  Uiso   1.00
H42    H     0.21427   0.29210   0.34897   0.00000  Uiso   1.00
H43    H     0.22438   0.08292   0.31088   0.00000  Uiso   1.00
H44    H     0.20247   0.04593   0.34905   0.00000  Uiso   1.00
H45    H     0.24884   0.03160   0.32422   0.00000  Uiso   1.00
H46    H     0.10727   0.25263   0.18888   0.00000  Uiso   1.00
H47    H     0.09185   0.30454   0.16433   0.00000  Uiso   1.00
H48    H     0.12896   0.10838   0.46571   0.00000  Uiso   1.00
H49    H     0.13994   0.28147   0.15334   0.00000  Uiso   1.00
H50    H     0.06811   0.02376   0.28537   0.00000  Uiso   1.00
H51    H     0.25800   0.30687   0.21944   0.00000  Uiso   1.00
H52    H     0.26084   0.04304   0.19340   0.00000  Uiso   1.00
H53    H     0.03648   0.31567   0.20678   0.00000  Uiso   1.00
H54    H     0.21270   0.22107   0.47265   0.00000  Uiso   1.00
H55    H     0.16865   0.09104   0.03153   0.00000  Uiso   1.00
H56    H     0.17620   0.23967   0.11022   0.00000  Uiso   1.00
H57    H     0.12839   0.10825   0.38519   0.00000  Uiso   1.00
H58    H     0.20948   0.22259   0.39210   0.00000  Uiso   1.00
H59    H     0.16586   0.09206   0.11123   0.00000  Uiso   1.00
H60    H     0.10980   0.08785   0.18692   0.00000  Uiso   1.00
N61    N     0.16667   0.28402   0.25000   0.00000  Uiso   1.00
N62    N     0.16667   0.04931   0.25000   0.00000  Uiso   1.00
O63    O     0.10655   0.20625   0.25000   0.00000  Uiso   1.00
O64    O     0.05014   0.04617   0.26581   0.00000  Uiso   1.00
O65    O     0.26552   0.24068   0.17416   0.00000  Uiso   1.00
O66    O     0.28071   0.28604   0.23400   0.00000  Uiso   1.00
O67    O     0.29996   0.04709   0.26561   0.00000  Uiso   1.00
O68    O     0.27326   0.07421   0.19779   0.00000  Uiso   1.00
O69    O     0.05518   0.27040   0.27272   0.00000  Uiso   1.00
O70    O     0.02759   0.28299   0.20167   0.00000  Uiso   1.00
O71    O     0.22679   0.12709   0.25001   0.00000  Uiso   1.00
O72    O     0.22679   0.20625   0.25000   0.00000  Uiso   1.00
O73    O     0.10655   0.12709   0.25000   0.00000  Uiso   1.00
O74    O     0.16666   0.20626   0.18573   0.00000  Uiso   1.00
O75    O     0.16667   0.12707   0.31427   0.00000  Uiso   1.00
O76    O     0.16667   0.20626   0.31427   0.00000  Uiso   1.00
O77    O     0.16666   0.12707   0.18573   0.00000  Uiso   1.00
O78    O     0.06149   0.09478   0.32376   0.00000  Uiso   1.00
C79    C     0.42090   0.16741   0.25208   0.00000  Uiso   1.00
C80    C     0.64240   0.20596   0.23173   0.00000  Uiso   1.00
C81    C     0.64704   0.12428   0.25008   0.00000  Uiso   1.00
C82    C     0.35170   0.20901   0.24076   0.00000  Uiso   1.00
C83    C     0.50670   0.20682   0.04754   0.00000  Uiso   1.00
C84    C     0.48065   0.13297   0.45022   0.00000  Uiso   1.00
C85    C     0.52673   0.19690   0.45405   0.00000  Uiso   1.00
C86    C     0.50245   0.12386   0.04818   0.00000  Uiso   1.00
C87    C     0.50648   0.20722   0.09340   0.00000  Uiso   1.00
C88    C     0.47991   0.13312   0.40421   0.00000  Uiso   1.00
C89    C     0.52506   0.19778   0.40801   0.00000  Uiso   1.00
C90    C     0.57871   0.16602   0.24634   0.00000  Uiso   1.00
C91    C     0.50117   0.12443   0.09394   0.00000  Uiso   1.00
C92    C     0.50260   0.16622   0.11691   0.00000  Uiso   1.00
C93    C     0.50164   0.16595   0.38295   0.00000  Uiso   1.00
C94    C     0.50455   0.16514   0.02440   0.00000  Uiso   1.00
C95    C     0.50414   0.16485   0.47564   0.00000  Uiso   1.00
C96    C     0.62315   0.16487   0.24091   0.00000  Uiso   1.00
C97    C     0.37576   0.16879   0.25372   0.00000  Uiso   1.00
C98    C     0.44531   0.05077   0.18473   0.00000  Uiso   1.00
C99    C     0.55506   0.28291   0.31511   0.00000  Uiso   1.00
C100   C     0.55107   0.04742   0.31796   0.00000  Uiso   1.00
C101   C     0.50063   0.16667   0.16514   0.00000  Uiso   1.00
C102   C     0.45261   0.28565   0.17974   0.00000  Uiso   1.00
C103   C     0.37882   0.08863   0.28614   0.00000  Uiso   1.00
C104   C     0.61771   0.24521   0.21073   0.00000  Uiso   1.00
C105   C     0.62901   0.07915   0.23920   0.00000  Uiso   1.00
C106   C     0.36927   0.25534   0.23953   0.00000  Uiso   1.00
C107   C     0.50047   0.16650   0.33476   0.00000  Uiso   1.00
C108   C     0.47480   0.02567   0.21914   0.00000  Uiso   1.00
C109   C     0.52521   0.30775   0.28085   0.00000  Uiso   1.00
C110   C     0.52497   0.02383   0.28102   0.00000  Uiso   1.00
C111   C     0.47554   0.30956   0.21855   0.00000  Uiso   1.00
C112   C     0.35601   0.12729   0.26173   0.00000  Uiso   1.00
Cu113  Cu    0.50000   0.21355   0.25000   0.00000  Uiso   1.00
Cu114  Cu    0.50000   0.11978   0.25000   0.00000  Uiso   1.00
H115   H     0.50805   0.23932   0.03027   0.00000  Uiso   1.00
H116   H     0.45361   0.04270   0.15091   0.00000  Uiso   1.00
H117   H     0.41351   0.04037   0.18799   0.00000  Uiso   1.00
H118   H     0.55665   0.24575   0.31345   0.00000  Uiso   1.00
H119   H     0.58692   0.29256   0.31100   0.00000  Uiso   1.00
H120   H     0.54761   0.29210   0.34897   0.00000  Uiso   1.00
H121   H     0.55771   0.08292   0.31088   0.00000  Uiso   1.00
H122   H     0.53581   0.04593   0.34905   0.00000  Uiso   1.00
H123   H     0.58217   0.03160   0.32422   0.00000  Uiso   1.00
H124   H     0.44060   0.25263   0.18888   0.00000  Uiso   1.00
H125   H     0.42518   0.30454   0.16433   0.00000  Uiso   1.00
H126   H     0.46230   0.10838   0.46571   0.00000  Uiso   1.00
H127   H     0.47328   0.28147   0.15334   0.00000  Uiso   1.00
H128   H     0.40144   0.02376   0.28537   0.00000  Uiso   1.00
H129   H     0.59133   0.30687   0.21944   0.00000  Uiso   1.00
H130   H     0.59417   0.04304   0.19340   0.00000  Uiso   1.00
H131   H     0.36982   0.31567   0.20678   0.00000  Uiso   1.00
H132   H     0.54603   0.22107   0.47265   0.00000  Uiso   1.00
H133   H     0.50198   0.09104   0.03153   0.00000  Uiso   1.00
H134   H     0.50953   0.23967   0.11022   0.00000  Uiso   1.00
H135   H     0.46173   0.10825   0.38519   0.00000  Uiso   1.00
H136   H     0.54281   0.22259   0.39210   0.00000  Uiso   1.00
H137   H     0.49919   0.09206   0.11123   0.00000  Uiso   1.00
H138   H     0.44313   0.08785   0.18692   0.00000  Uiso   1.00
N139   N     0.50000   0.28402   0.25000   0.00000  Uiso   1.00
N140   N     0.50000   0.04931   0.25000   0.00000  Uiso   1.00
O141   O     0.43988   0.20625   0.25000   0.00000  Uiso   1.00
O142   O     0.38348   0.04617   0.26581   0.00000  Uiso   1.00
O143   O     0.59885   0.24068   0.17416   0.00000  Uiso   1.00
O144   O     0.61404   0.28604   0.23400   0.00000  Uiso   1.00
O145   O     0.63330   0.04709   0.26561   0.00000  Uiso   1.00
O146   O     0.60659   0.07421   0.19779   0.00000  Uiso   1.00
O147   O     0.38851   0.27040   0.27272   0.00000  Uiso   1.00
O148   O     0.36092   0.28299   0.20167   0.00000  Uiso   1.00
O149   O     0.56012   0.12709   0.25001   0.00000  Uiso   1.00
O150   O     0.56012   0.20625   0.25000   0.00000  Uiso   1.00
O151   O     0.43988   0.12709   0.25000   0.00000  Uiso   1.00
O152   O     0.50000   0.20626   0.18573   0.00000  Uiso   1.00
O153   O     0.50000   0.12707   0.31427   0.00000  Uiso   1.00
O154   O     0.50000   0.20626   0.31427   0.00000  Uiso   1.00
O155   O     0.50000   0.12707   0.18573   0.00000  Uiso   1.00
O156   O     0.39483   0.09478   0.32376   0.00000  Uiso   1.00
C157   C     0.75423   0.16741   0.25208   0.00000  Uiso   1.00
C158   C     0.97573   0.20596   0.23173   0.00000  Uiso   1.00
C159   C     0.98037   0.12428   0.25008   0.00000  Uiso   1.00
C160   C     0.68503   0.20901   0.24076   0.00000  Uiso   1.00
C161   C     0.84003   0.20682   0.04754   0.00000  Uiso   1.00
C162   C     0.81398   0.13297   0.45022   0.00000  Uiso   1.00
C163   C     0.86007   0.19690   0.45405   0.00000  Uiso   1.00
C164   C     0.83578   0.12386   0.04818   0.00000  Uiso   1.00
C165   C     0.83981   0.20722   0.09340   0.00000  Uiso   1.00
C166   C     0.81325   0.13312   0.40421   0.00000  Uiso   1.00
C167   C     0.85839   0.19778   0.40801   0.00000  Uiso   1.00
C168   C     0.91204   0.16602   0.24634   0.00000  Uiso   1.00
C169   C     0.83450   0.12443   0.09394   0.00000  Uiso   1.00
C170   C     0.83593   0.16622   0.11691   0.00000  Uiso   1.00
C171   C     0.83498   0.16595   0.38295   0.00000  Uiso   1.00
C172   C     0.83788   0.16514   0.02440   0.00000  Uiso   1.00
C173   C     0.83747   0.16485   0.47564   0.00000  Uiso   1.00
C174   C     0.95648   0.16487   0.24091   0.00000  Uiso   1.00
C175   C     0.70910   0.16879   0.25372   0.00000  Uiso   1.00
C176   C     0.77864   0.05077   0.18473   0.00000  Uiso   1.00
C177   C     0.88839   0.28291   0.31511   0.00000  Uiso   1.00
C178   C     0.88440   0.04742   0.31796   0.00000  Uiso   1.00
C179   C     0.83396   0.16667   0.16514   0.00000  Uiso   1.00
C180   C     0.78595   0.28565   0.17974   0.00000  Uiso   1.00
C181   C     0.71215   0.08863   0.28614   0.00000  Uiso   1.00
C182   C     0.95105   0.24521   0.21073   0.00000  Uiso   1.00
C183   C     0.96234   0.07915   0.23920   0.00000  Uiso   1.00
C184   C     0.70261   0.25534   0.23953   0.00000  Uiso   1.00
C185   C     0.83380   0.16650   0.33476   0.00000  Uiso   1.00
C186   C     0.80813   0.02567   0.21914   0.00000  Uiso   1.00
C187   C     0.85854   0.30775   0.28085   0.00000  Uiso   1.00
C188   C     0.85830   0.02383   0.28102   0.00000  Uiso   1.00
C189   C     0.80888   0.30956   0.21855   0.00000  Uiso   1.00
C190   C     0.68934   0.12729   0.26173   0.00000  Uiso   1.00
Cu191  Cu    0.83333   0.21355   0.25000   0.00000  Uiso   1.00
Cu192  Cu    0.83333   0.11978   0.25000   0.00000  Uiso   1.00
H193   H     0.84138   0.23932   0.03027   0.00000  Uiso   1.00
H194   H     0.78694   0.04270   0.15091   0.00000  Uiso   1.00
H195   H     0.74684   0.04037   0.18799   0.00000  Uiso   1.00
H196   H     0.88999   0.24575   0.31345   0.00000  Uiso   1.00
H197   H     0.92026   0.29256   0.31100   0.00000  Uiso   1.00
H198   H     0.88094   0.29210   0.34897   0.00000  Uiso   1.00
H199   H     0.89105   0.08292   0.31088   0.00000  Uiso   1.00
H200   H     0.86914   0.04593   0.34905   0.00000  Uiso   1.00
H201   H     0.91550   0.03160   0.32422   0.00000  Uiso   1.00
H202   H     0.77393   0.25263   0.18888   0.00000  Uiso   1.00
H203   H     0.75851   0.30454   0.16433   0.00000  Uiso   1.00
H204   H     0.79563   0.10838   0.46571   0.00000  Uiso   1.00
H205   H     0.80661   0.28147   0.15334   0.00000  Uiso   1.00
H206   H     0.73477   0.02376   0.28537   0.00000  Uiso   1.00
H207   H     0.92466   0.30687   0.21944   0.00000  Uiso   1.00
H208   H     0.92750   0.04304   0.19340   0.00000  Uiso   1.00
H209   H     0.70315   0.31567   0.20678   0.00000  Uiso   1.00
H210   H     0.87937   0.22107   0.47265   0.00000  Uiso   1.00
H211   H     0.83532   0.09104   0.03153   0.00000  Uiso   1.00
H212   H     0.84286   0.23967   0.11022   0.00000  Uiso   1.00
H213   H     0.79506   0.10825   0.38519   0.00000  Uiso   1.00
H214   H     0.87615   0.22259   0.39210   0.00000  Uiso   1.00
H215   H     0.83253   0.09206   0.11123   0.00000  Uiso   1.00
H216   H     0.77646   0.08785   0.18692   0.00000  Uiso   1.00
N217   N     0.83333   0.28402   0.25000   0.00000  Uiso   1.00
N218   N     0.83333   0.04931   0.25000   0.00000  Uiso   1.00
O219   O     0.77321   0.20625   0.25000   0.00000  Uiso   1.00
O220   O     0.71681   0.04617   0.26581   0.00000  Uiso   1.00
O221   O     0.93218   0.24068   0.17416   0.00000  Uiso   1.00
O222   O     0.94737   0.28604   0.23400   0.00000  Uiso   1.00
O223   O     0.96663   0.04709   0.26561   0.00000  Uiso   1.00
O224   O     0.93993   0.07421   0.19779   0.00000  Uiso   1.00
O225   O     0.72185   0.27040   0.27272   0.00000  Uiso   1.00
O226   O     0.69425   0.28299   0.20167   0.00000  Uiso   1.00
O227   O     0.89345   0.12709   0.25001   0.00000  Uiso   1.00
O228   O     0.89345   0.20625   0.25000   0.00000  Uiso   1.00
O229   O     0.77321   0.12709   0.25000   0.00000  Uiso   1.00
O230   O     0.83333   0.20626   0.18573   0.00000  Uiso   1.00
O231   O     0.83334   0.12707   0.31427   0.00000  Uiso   1.00
O232   O     0.83334   0.20626   0.31427   0.00000  Uiso   1.00
O233   O     0.83333   0.12707   0.18573   0.00000  Uiso   1.00
O234   O     0.72816   0.09478   0.32376   0.00000  Uiso   1.00
C235   C     0.08756   0.50074   0.25208   0.00000  Uiso   1.00
C236   C     0.30906   0.53930   0.23173   0.00000  Uiso   1.00
C237   C     0.31371   0.45761   0.25008   0.00000  Uiso   1.00
C238   C     0.01836   0.54235   0.24076   0.00000  Uiso   1.00
C239   C     0.17337   0.54016   0.04754   0.00000  Uiso   1.00
C240   C     0.14732   0.46631   0.45022   0.00000  Uiso   1.00
C241   C     0.19340   0.53023   0.45405   0.00000  Uiso   1.00
C242   C     0.16912   0.45720   0.04818   0.00000  Uiso   1.00
C243   C     0.17314   0.54056   0.09340   0.00000  Uiso   1.00
C244   C     0.14658   0.46646   0.40421   0.00000  Uiso   1.00
C245   C     0.19172   0.53111   0.40801   0.00000  Uiso   1.00
C246   C     0.24537   0.49935   0.24634   0.00000  Uiso   1.00
C247   C     0.16783   0.45777   0.09394   0.00000  Uiso   1.00
C248   C     0.16926   0.49956   0.11691   0.00000  Uiso   1.00
C249   C     0.16831   0.49928   0.38295   0.00000  Uiso   1.00
C250   C     0.17122   0.49848   0.02440   0.00000  Uiso   1.00
C251   C     0.17080   0.49818   0.47564   0.00000  Uiso   1.00
C252   C     0.28982   0.49820   0.24091   0.00000  Uiso   1.00
C253   C     0.04243   0.50212   0.25372   0.00000  Uiso   1.00
C254   C     0.11197   0.38410   0.18473   0.00000  Uiso   1.00
C255   C     0.22173   0.61625   0.31511   0.00000  Uiso   1.00
C256   C     0.21773   0.38075   0.31796   0.00000  Uiso   1.00
C257   C     0.16729   0.50000   0.16514   0.00000  Uiso   1.00
C258   C     0.11928   0.61899   0.17974   0.00000  Uiso   1.00
C259   C     0.04549   0.42196   0.28614   0.00000  Uiso   1.00
C260   C     0.28438   0.57855   0.21073   0.00000  Uiso   1.00
C261   C     0.29568   0.41249   0.23920   0.00000  Uiso   1.00
C262   C     0.03594   0.58867   0.23953   0.00000  Uiso   1.00
C263   C     0.16713   0.49983   0.33476   0.00000  Uiso   1.00
C264   C     0.14147   0.35900   0.21914   0.00000  Uiso   1.00
C265   C     0.19187   0.64109   0.28085   0.00000  Uiso   1.00
C266   C     0.19163   0.35716   0.28102   0.00000  Uiso   1.00
C267   C     0.14221   0.64290   0.21855   0.00000  Uiso   1.00
C268   C     0.02268   0.46063   0.26173   0.00000  Uiso   1.00
Cu269  Cu    0.16667   0.54689   0.25000   0.00000  Uiso   1.00
Cu270  Cu    0.16667   0.45311   0.25000   0.00000  Uiso   1.00
H271   H     0.17471   0.57265   0.03027   0.00000  Uiso   1.00
H272   H     0.12028   0.37603   0.15091   0.00000  Uiso   1.00
H273   H     0.08017   0.37370   0.18799   0.00000  Uiso   1.00
H274   H     0.22332   0.57909   0.31345   0.00000  Uiso   1.00
H275   H     0.25359   0.62589   0.31100   0.00000  Uiso   1.00
H276   H     0.21427   0.62544   0.34897   0.00000  Uiso   1.00
H277   H     0.22438   0.41625   0.31088   0.00000  Uiso   1.00
H278   H     0.20247   0.37926   0.34905   0.00000  Uiso   1.00
H279   H     0.24884   0.36494   0.32422   0.00000  Uiso   1.00
H280   H     0.10727   0.58596   0.18888   0.00000  Uiso   1.00
H281   H     0.09185   0.63788   0.16433   0.00000  Uiso   1.00
H282   H     0.12896   0.44171   0.46571   0.00000  Uiso   1.00
H283   H     0.13994   0.61480   0.15334   0.00000  Uiso   1.00
H284   H     0.06811   0.35709   0.28537   0.00000  Uiso   1.00
H285   H     0.25800   0.64020   0.21944   0.00000  Uiso   1.00
H286   H     0.26084   0.37638   0.19340   0.00000  Uiso   1.00
H287   H     0.03648   0.64900   0.20678   0.00000  Uiso   1.00
H288   H     0.21270   0.55440   0.47265   0.00000  Uiso   1.00
H289   H     0.16865   0.42437   0.03153   0.00000  Uiso   1.00
H290   H     0.17620   0.57301   0.11022   0.00000  Uiso   1.00
H291   H     0.12839   0.44158   0.38519   0.00000  Uiso   1.00
H292   H     0.20948   0.55593   0.39210   0.00000  Uiso   1.00
H293   H     0.16586   0.42539   0.11123   0.00000  Uiso   1.00
H294   H     0.10980   0.42119   0.18692   0.00000  Uiso   1.00
N295   N     0.16667   0.61736   0.25000   0.00000  Uiso   1.00
N296   N     0.16667   0.38264   0.25000   0.00000  Uiso   1.00
O297   O     0.10655   0.53958   0.25000   0.00000  Uiso   1.00
O298   O     0.05014   0.37950   0.26581   0.00000  Uiso   1.00
O299   O     0.26552   0.57401   0.17416   0.00000  Uiso   1.00
O300   O     0.28071   0.61937   0.23400   0.00000  Uiso   1.00
O301   O     0.29996   0.38042   0.26561   0.00000  Uiso   1.00
O302   O     0.27326   0.40754   0.19779   0.00000  Uiso   1.00
O303   O     0.05518   0.60374   0.27272   0.00000  Uiso   1.00
O304   O     0.02759   0.61633   0.20167   0.00000  Uiso   1.00
O305   O     0.22679   0.46042   0.25001   0.00000  Uiso   1.00
O306   O     0.22679   0.53958   0.25000   0.00000  Uiso   1.00
O307   O     0.10655   0.46042   0.25000   0.00000  Uiso   1.00
O308   O     0.16666   0.53959   0.18573   0.00000  Uiso   1.00
O309   O     0.16667   0.46041   0.31427   0.00000  Uiso   1.00
O310   O     0.16667   0.53959   0.31427   0.00000  Uiso   1.00
O311   O     0.16666   0.46041   0.18573   0.00000  Uiso   1.00
O312   O     0.06149   0.42812   0.32376   0.00000  Uiso   1.00
C313   C     0.42090   0.50074   0.25208   0.00000  Uiso   1.00
C314   C     0.64240   0.53930   0.23173   0.00000  Uiso   1.00
C315   C     0.64704   0.45761   0.25008   0.00000  Uiso   1.00
C316   C     0.35170   0.54235   0.24076   0.00000  Uiso   1.00
C317   C     0.50670   0.54016   0.04754   0.00000  Uiso   1.00
C318   C     0.48065   0.46631   0.45022   0.00000  Uiso   1.00
C319   C     0.52673   0.53023   0.45405   0.00000  Uiso   1.00
C320   C     0.50245   0.45720   0.04818   0.00000  Uiso   1.00
C321   C     0.50648   0.54056   0.09340   0.00000  Uiso   1.00
C322   C     0.47991   0.46646   0.40421   0.00000  Uiso   1.00
C323   C     0.52506   0.53111   0.40801   0.00000  Uiso   1.00
C324   C     0.57871   0.49935   0.24634   0.00000  Uiso   1.00
C325   C     0.50117   0.45777   0.09394   0.00000  Uiso   1.00
C326   C     0.50260   0.49956   0.11691   0.00000  Uiso   1.00
C327   C     0.50164   0.49928   0.38295   0.00000  Uiso   1.00
C328   C     0.50455   0.49848   0.02440   0.00000  Uiso   1.00
C329   C     0.50414   0.49818   0.47564   0.00000  Uiso   1.00
C330   C     0.62315   0.49820   0.24091   0.00000  Uiso   1.00
C331   C     0.37576   0.50212   0.25372   0.00000  Uiso   1.00
C332   C     0.44531   0.38410   0.18473   0.00000  Uiso   1.00
C333   C     0.55506   0.61625   0.31511   0.00000  Uiso   1.00
C334   C     0.55107   0.38075   0.31796   0.00000  Uiso   1.00
C335   C     0.50063   0.50000   0.16514   0.00000  Uiso   1.00
C336   C     0.45261   0.61899   0.17974   0.00000  Uiso   1.00
C337   C     0.37882   0.42196   0.28614   0.00000  Uiso   1.00
C338   C     0.61771   0.57855   0.21073   0.00000  Uiso   1.00
C339   C     0.62901   0.41249   0.23920   0.00000  Uiso   1.00
C340   C     0.36927   0.58867   0.23953   0.00000  Uiso   1.00
C341   C     0.50047   0.49983   0.33476   0.00000  Uiso   1.00
C342   C     0.47480   0.35900   0.21914   0.00000  Uiso   1.00
C343   C     0.52521   0.64109   0.28085   0.00000  Uiso   1.00
C344   C     0.52497   0.35716   0.28102   0.00000  Uiso   1.00
C345   C     0.47554   0.64290   0.21855   0.00000  Uiso   1.00
C346   C     0.35601   0.46063   0.26173   0.00000  Uiso   1.00
Cu347  Cu    0.50000   0.54689   0.25000   0.00000  Uiso   1.00
Cu348  Cu    0.50000   0.45311   0.25000   0.00000  Uiso   1.00
H349   H     0.50805   0.57265   0.03027   0.00000  Uiso   1.00
H350   H     0.45361   0.37603   0.15091   0.00000  Uiso   1.00
H351   H     0.41351   0.37370   0.18799   0.00000  Uiso   1.00
H352   H     0.55665   0.57909   0.31345   0.00000  Uiso   1.00
H353   H     0.58692   0.62589   0.31100   0.00000  Uiso   1.00
H354   H     0.54761   0.62544   0.34897   0.00000  Uiso   1.00
H355   H     0.55771   0.41625   0.31088   0.00000  Uiso   1.00
H356   H     0.53581   0.37926   0.34905   0.00000  Uiso   1.00
H357   H     0.58217   0.36494   0.32422   0.00000  Uiso   1.00
H358   H     0.44060   0.58596   0.18888   0.00000  Uiso   1.00
H359   H     0.42518   0.63788   0.16433   0.00000  Uiso   1.00
H360   H     0.46230   0.44171   0.46571   0.00000  Uiso   1.00
H361   H     0.47328   0.61480   0.15334   0.00000  Uiso   1.00
H362   H     0.40144   0.35709   0.28537   0.00000  Uiso   1.00
H363   H     0.59133   0.64020   0.21944   0.00000  Uiso   1.00
H364   H     0.59417   0.37638   0.19340   0.00000  Uiso   1.00
H365   H     0.36982   0.64900   0.20678   0.00000  Uiso   1.00
H366   H     0.54603   0.55440   0.47265   0.00000  Uiso   1.00
H367   H     0.50198   0.42437   0.03153   0.00000  Uiso   1.00
H368   H     0.50953   0.57301   0.11022   0.00000  Uiso   1.00
H369   H     0.46173   0.44158   0.38519   0.00000  Uiso   1.00
H370   H     0.54281   0.55593   0.39210   0.00000  Uiso   1.00
H371   H     0.49919   0.42539   0.11123   0.00000  Uiso   1.00
H372   H     0.44313   0.42119   0.18692   0.00000  Uiso   1.00
N373   N     0.50000   0.61736   0.25000   0.00000  Uiso   1.00
N374   N     0.50000   0.38264   0.25000   0.00000  Uiso   1.00
O375   O     0.43988   0.53958   0.25000   0.00000  Uiso   1.00
O376   O     0.38348   0.37950   0.26581   0.00000  Uiso   1.00
O377   O     0.59885   0.57401   0.17416   0.00000  Uiso   1.00
O378   O     0.61404   0.61937   0.23400   0.00000  Uiso   1.00
O379   O     0.63330   0.38042   0.26561   0.00000  Uiso   1.00
O380   O     0.60659   0.40754   0.19779   0.00000  Uiso   1.00
O381   O     0.38851   0.60374   0.27272   0.00000  Uiso   1.00
O382   O     0.36092   0.61633   0.20167   0.00000  Uiso   1.00
O383   O     0.56012   0.46042   0.25001   0.00000  Uiso   1.00
O384   O     0.56012   0.53958   0.25000   0.00000  Uiso   1.00
O385   O     0.43988   0.46042   0.25000   0.00000  Uiso   1.00
O386   O     0.50000   0.53959   0.18573   0.00000  Uiso   1.00
O387   O     0.50000   0.46041   0.31427   0.00000  Uiso   1.00
O388   O     0.50000   0.53959   0.31427   0.00000  Uiso   1.00
O389   O     0.50000   0.46041   0.18573   0.00000  Uiso   1.00
O390   O     0.39483   0.42812   0.32376   0.00000  Uiso   1.00
C391   C     0.75423   0.50074   0.25208   0.00000  Uiso   1.00
C392   C     0.97573   0.53930   0.23173   0.00000  Uiso   1.00
C393   C     0.98037   0.45761   0.25008   0.00000  Uiso   1.00
C394   C     0.68503   0.54235   0.24076   0.00000  Uiso   1.00
C395   C     0.84003   0.54016   0.04754   0.00000  Uiso   1.00
C396   C     0.81398   0.46631   0.45022   0.00000  Uiso   1.00
C397   C     0.86007   0.53023   0.45405   0.00000  Uiso   1.00
C398   C     0.83578   0.45720   0.04818   0.00000  Uiso   1.00
C399   C     0.83981   0.54056   0.09340   0.00000  Uiso   1.00
C400   C     0.81325   0.46646   0.40421   0.00000  Uiso   1.00
C401   C     0.85839   0.53111   0.40801   0.00000  Uiso   1.00
C402   C     0.91204   0.49935   0.24634   0.00000  Uiso   1.00
C403   C     0.83450   0.45777   0.09394   0.00000  Uiso   1.00
C404   C     0.83593   0.49956   0.11691   0.00000  Uiso   1.00
C405   C     0.83498   0.49928   0.38295   0.00000  Uiso   1.00
C406   C     0.83788   0.49848   0.02440   0.00000  Uiso   1.00
C407   C     0.83747   0.49818   0.47564   0.00000  Uiso   1.00
C408   C     0.95648   0.49820   0.24091   0.00000  Uiso   1.00
C409   C     0.70910   0.50212   0.25372   0.00000  Uiso   1.00
C410   C     0.77864   0.38410   0.18473   0.00000  Uiso   1.00
C411   C     0.88839   0.61625   0.31511   0.00000  Uiso   1.00
C412   C     0.88440   0.38075   0.31796   0.00000  Uiso   1.00
C413   C     0.83396   0.50000   0.16514   0.00000  Uiso   1.00
C414   C     0.78595   0.61899   0.17974   0.00000  Uiso   1.00
C415   C     0.71215   0.42196   0.28614   0.00000  Uiso   1.00
C416   C     0.95105   0.57855   0.21073   0.00000  Uiso   1.00
C417   C     0.96234   0.41249   0.23920   0.00000  Uiso   1.00
C418   C     0.70261   0.58867   0.23953   0.00000  Uiso   1.00
C419   C     0.83380   0.49983   0.33476   0.00000  Uiso   1.00
C420   C     0.80813   0.35900   0.21914   0.00000  Uiso   1.00
C421   C     0.85854   0.64109   0.28085   0.00000  Uiso   1.00
C422   C     0.85830   0.35716   0.28102   0.00000  Uiso   1.00
C423   C     0.80888   0.64290   0.21855   0.00000  Uiso   1.00
C424   C     0.68934   0.46063   0.26173   0.00000  Uiso   1.00
Cu425  Cu    0.83333   0.54689   0.25000   0.00000  Uiso   1.00
Cu426  Cu    0.83333   0.45311   0.25000   0.00000  Uiso   1.00
H427   H     0.84138   0.57265   0.03027   0.00000  Uiso   1.00
H428   H     0.78694   0.37603   0.15091   0.00000  Uiso   1.00
H429   H     0.74684   0.37370   0.18799   0.00000  Uiso   1.00
H430   H     0.88999   0.57909   0.31345   0.00000  Uiso   1.00
H431   H     0.92026   0.62589   0.31100   0.00000  Uiso   1.00
H432   H     0.88094   0.62544   0.34897   0.00000  Uiso   1.00
H433   H     0.89105   0.41625   0.31088   0.00000  Uiso   1.00
H434   H     0.86914   0.37926   0.34905   0.00000  Uiso   1.00
H435   H     0.91550   0.36494   0.32422   0.00000  Uiso   1.00
H436   H     0.77393   0.58596   0.18888   0.00000  Uiso   1.00
H437   H     0.75851   0.63788   0.16433   0.00000  Uiso   1.00
H438   H     0.79563   0.44171   0.46571   0.00000  Uiso   1.00
H439   H     0.80661   0.61480   0.15334   0.00000  Uiso   1.00
H440   H     0.73477   0.35709   0.28537   0.00000  Uiso   1.00
H441   H     0.92466   0.64020   0.21944   0.00000  Uiso   1.00
H442   H     0.92750   0.37638   0.19340   0.00000  Uiso   1.00
H443   H     0.70315   0.64900   0.20678   0.00000  Uiso   1.00
H444   H     0.87937   0.55440   0.47265   0.00000  Uiso   1.00
H445   H     0.83532   0.42437   0.03153   0.00000  Uiso   1.00
H446   H     0.84286   0.57301   0.11022   0.00000  Uiso   1.00
H447   H     0.79506   0.44158   0.38519   0.00000  Uiso   1.00
H448   H     0.87615   0.55593   0.39210   0.00000  Uiso   1.00
H449   H     0.83253   0.42539   0.11123   0.00000  Uiso   1.00
H450   H     0.77646   0.42119   0.18692   0.00000  Uiso   1.00
N451   N     0.83333   0.61736   0.25000   0.00000  Uiso   1.00
N452   N     0.83333   0.38264   0.25000   0.00000  Uiso   1.00
O453   O     0.77321   0.53958   0.25000   0.00000  Uiso   1.00
O454   O     0.71681   0.37950   0.26581   0.00000  Uiso   1.00
O455   O     0.93218   0.57401   0.17416   0.00000  Uiso   1.00
O456   O     0.94737   0.61937   0.23400   0.00000  Uiso   1.00
O457   O     0.96663   0.38042   0.26561   0.00000  Uiso   1.00
O458   O     0.93993   0.40754   0.19779   0.00000  Uiso   1.00
O459   O     0.72185   0.60374   0.27272   0.00000  Uiso   1.00
O460   O     0.69425   0.61633   0.20167   0.00000  Uiso   1.00
O461   O     0.89345   0.46042   0.25001   0.00000  Uiso   1.00
O462   O     0.89345   0.53958   0.25000   0.00000  Uiso   1.00
O463   O     0.77321   0.46042   0.25000   0.00000  Uiso   1.00
O464   O     0.83333   0.53959   0.18573   0.00000  Uiso   1.00
O465   O     0.83334   0.46041   0.31427   0.00000  Uiso   1.00
O466   O     0.83334   0.53959   0.31427   0.00000  Uiso   1.00
O467   O     0.83333   0.46041   0.18573   0.00000  Uiso   1.00
O468   O     0.72816   0.42812   0.32376   0.00000  Uiso   1.00
C469   C     0.08756   0.83408   0.25208   0.00000  Uiso   1.00
C470   C     0.30906   0.87263   0.23173   0.00000  Uiso   1.00
C471   C     0.31371   0.79094   0.25008   0.00000  Uiso   1.00
C472   C     0.01836   0.87568   0.24076   0.00000  Uiso   1.00
C473   C     0.17337   0.87349   0.04754   0.00000  Uiso   1.00
C474   C     0.14732   0.79964   0.45022   0.00000  Uiso   1.00
C475   C     0.19340   0.86357   0.45405   0.00000  Uiso   1.00
C476   C     0.16912   0.79053   0.04818   0.00000  Uiso   1.00
C477   C     0.17314   0.87389   0.09340   0.00000  Uiso   1.00
C478   C     0.14658   0.79979   0.40421   0.00000  Uiso   1.00
C479   C     0.19172   0.86444   0.40801   0.00000  Uiso   1.00
C480   C     0.24537   0.83268   0.24634   0.00000  Uiso   1.00
C481   C     0.16783   0.79110   0.09394   0.00000  Uiso   1.00
C482   C     0.16926   0.83289   0.11691   0.00000  Uiso   1.00
C483   C     0.16831   0.83262   0.38295   0.00000  Uiso   1.00
C484   C     0.17122   0.83181   0.02440   0.00000  Uiso   1.00
C485   C     0.17080   0.83152   0.47564   0.00000  Uiso   1.00
C486   C     0.28982   0.83153   0.24091   0.00000  Uiso   1.00
C487   C     0.04243   0.83546   0.25372   0.00000  Uiso   1.00
C488   C     0.11197   0.71743   0.18473   0.00000  Uiso   1.00
C489   C     0.22173   0.94958   0.31511   0.00000  Uiso   1.00
C490   C     0.21773   0.71409   0.31796   0.00000  Uiso   1.00
C491   C     0.16729   0.83334   0.16514   0.00000  Uiso   1.00
C492   C     0.11928   0.95232   0.17974   0.00000  Uiso   1.00
C493   C     0.04549   0.75529   0.28614   0.00000  Uiso   1.00
C494   C     0.28438   0.91188   0.21073   0.00000  Uiso   1.00
C495   C     0.29568   0.74582   0.23920   0.00000  Uiso   1.00
C496   C     0.03594   0.92201   0.23953   0.00000  Uiso   1.00
C497   C     0.16713   0.83316   0.33476   0.00000  Uiso   1.00
C498   C     0.14147   0.69233   0.21914   0.00000  Uiso   1.00
C499   C     0.19187   0.97442   0.28085   0.00000  Uiso   1.00
C500   C     0.19163   0.69050   0.28102   0.00000  Uiso   1.00
C501   C     0.14221   0.97623   0.21855   0.00000  Uiso   1.00
C502   C     0.02268   0.79396   0.26173   0.00000  Uiso   1.00
Cu503  Cu    0.16667   0.88022   0.25000   0.00000  Uiso   1.00
Cu504  Cu    0.16667   0.78645   0.25000   0.00000  Uiso   1.00
H505   H     0.17471   0.90598   0.03027   0.00000  Uiso   1.00
H506   H     0.12028   0.70936   0.15091   0.00000  Uiso   1.00
H507   H     0.08017   0.70703   0.18799   0.00000  Uiso   1.00
H508   H     0.22332   0.91242   0.31345   0.00000  Uiso   1.00
H509   H     0.25359   0.95923   0.31100   0.00000  Uiso   1.00
H510   H     0.21427   0.95877   0.34897   0.00000  Uiso   1.00
H511   H     0.22438   0.74959   0.31088   0.00000  Uiso   1.00
H512   H     0.20247   0.71260   0.34905   0.00000  Uiso   1.00
H513   H     0.24884   0.69827   0.32422   0.00000  Uiso   1.00
H514   H     0.10727   0.91930   0.18888   0.00000  Uiso   1.00
H515   H     0.09185   0.97121   0.16433   0.00000  Uiso   1.00
H516   H     0.12896   0.77505   0.46571   0.00000  Uiso   1.00
H517   H     0.13994   0.94813   0.15334   0.00000  Uiso   1.00
H518   H     0.06811   0.69042   0.28537   0.00000  Uiso   1.00
H519   H     0.25800   0.97353   0.21944   0.00000  Uiso   1.00
H520   H     0.26084   0.70971   0.19340   0.00000  Uiso   1.00
H521   H     0.03648   0.98234   0.20678   0.00000  Uiso   1.00
H522   H     0.21270   0.88773   0.47265   0.00000  Uiso   1.00
H523   H     0.16865   0.75770   0.03153   0.00000  Uiso   1.00
H524   H     0.17620   0.90634   0.11022   0.00000  Uiso   1.00
H525   H     0.12839   0.77491   0.38519   0.00000  Uiso   1.00
H526   H     0.20948   0.88926   0.39210   0.00000  Uiso   1.00
H527   H     0.16586   0.75872   0.11123   0.00000  Uiso   1.00
H528   H     0.10980   0.75452   0.18692   0.00000  Uiso   1.00
N529   N     0.16667   0.95069   0.25000   0.00000  Uiso   1.00
N530   N     0.16667   0.71598   0.25000   0.00000  Uiso   1.00
O531   O     0.10655   0.87291   0.25000   0.00000  Uiso   1.00
O532   O     0.05014   0.71283   0.26581   0.00000  Uiso   1.00
O533   O     0.26552   0.90735   0.17416   0.00000  Uiso   1.00
O534   O     0.28071   0.95271   0.23400   0.00000  Uiso   1.00
O535   O     0.29996   0.71375   0.26561   0.00000  Uiso   1.00
O536   O     0.27326   0.74087   0.19779   0.00000  Uiso   1.00
O537   O     0.05518   0.93707   0.27272   0.00000  Uiso   1.00
O538   O     0.02759   0.94966   0.20167   0.00000  Uiso   1.00
O539   O     0.22679   0.79375   0.25001   0.00000  Uiso   1.00
O540   O     0.22679   0.87291   0.25000   0.00000  Uiso   1.00
O541   O     0.10655   0.79375   0.25000   0.00000  Uiso   1.00
O542   O     0.16666   0.87293   0.18573   0.00000  Uiso   1.00
O543   O     0.16667   0.79374   0.31427   0.00000  Uiso   1.00
O544   O     0.16667   0.87293   0.31427   0.00000  Uiso   1.00
O545   O     0.16666   0.79374   0.18573   0.00000  Uiso   1.00
O546   O     0.06149   0.76145   0.32376   0.00000  Uiso   1.00
C547   C     0.42090   0.83408   0.25208   0.00000  Uiso   1.00
C548   C     0.64240   0.87263   0.23173   0.00000  Uiso   1.00
C549   C     0.64704   0.79094   0.25008   0.00000  Uiso   1.00
C550   C     0.35170   0.87568   0.24076   0.00000  Uiso   1.00
C551   C     0.50670   0.87349   0.04754   0.00000  Uiso   1.00
C552   C     0.48065   0.79964   0.45022   0.00000  Uiso   1.00
C553   C     0.52673   0.86357   0.45405   0.00000  Uiso   1.00
C554   C     0.50245   0.79053   0.04818   0.00000  Uiso   1.00
C555   C     0.50648   0.87389   0.09340   0.00000  Uiso   1.00
C556   C     0.47991   0.79979   0.40421   0.00000  Uiso   1.00
C557   C     0.52506   0.86444   0.40801   0.00000  Uiso   1.00
C558   C     0.57871   0.83268   0.24634   0.00000  Uiso   1.00
C559   C     0.50117   0.79110   0.09394   0.00000  Uiso   1.00
C560   C     0.50260   0.83289   0.11691   0.00000  Uiso   1.00
C561   C     0.50164   0.83262   0.38295   0.00000  Uiso   1.00
C562   C     0.50455   0.83181   0.02440   0.00000  Uiso   1.00
C563   C     0.50414   0.83152   0.47564   0.00000  Uiso   1.00
C564   C     0.62315   0.83153   0.24091   0.00000  Uiso   1.00
C565   C     0.37576   0.83546   0.25372   0.00000  Uiso   1.00
C566   C     0.44531   0.71743   0.18473   0.00000  Uiso   1.00
C567   C     0.55506   0.94958   0.31511   0.00000  Uiso   1.00
C568   C     0.55107   0.71409   0.31796   0.00000  Uiso   1.00
C569   C     0.50063   0.83334   0.16514   0.00000  Uiso   1.00
C570   C     0.45261   0.95232   0.17974   0.00000  Uiso   1.00
C571   C     0.37882   0.75529   0.28614   0.00000  Uiso   1.00
C572   C     0.61771   0.91188   0.21073   0.00000  Uiso   1.00
C573   C     0.62901   0.74582   0.23920   0.00000  Uiso   1.00
C574   C     0.36927   0.92201   0.23953   0.00000  Uiso   1.00
C575   C     0.50047   0.83316   0.33476   0.00000  Uiso   1.00
C576   C     0.47480   0.69233   0.21914   0.00000  Uiso   1.00
C577   C     0.52521   0.97442   0.28085   0.00000  Uiso   1.00
C578   C     0.52497   0.69050   0.28102   0.00000  Uiso   1.00
C579   C     0.47554   0.97623   0.21855   0.00000  Uiso   1.00
C580   C     0.35601   0.79396   0.26173   0.00000  Uiso   1.00
Cu581  Cu    0.50000   0.88022   0.25000   0.00000  Uiso   1.00
Cu582  Cu    0.50000   0.78645   0.25000   0.00000  Uiso   1.00
H583   H     0.50805   0.90598   0.03027   0.00000  Uiso   1.00
H584   H     0.45361   0.70936   0.15091   0.00000  Uiso   1.00
H585   H     0.41351   0.70703   0.18799   0.00000  Uiso   1.00
H586   H     0.55665   0.91242   0.31345   0.00000  Uiso   1.00
H587   H     0.58692   0.95923   0.31100   0.00000  Uiso   1.00
H588   H     0.54761   0.95877   0.34897   0.00000  Uiso   1.00
H589   H     0.55771   0.74959   0.31088   0.00000  Uiso   1.00
H590   H     0.53581   0.71260   0.34905   0.00000  Uiso   1.00
H591   H     0.58217   0.69827   0.32422   0.00000  Uiso   1.00
H592   H     0.44060   0.91930   0.18888   0.00000  Uiso   1.00
H593   H     0.42518   0.97121   0.16433   0.00000  Uiso   1.00
H594   H     0.46230   0.77505   0.46571   0.00000  Uiso   1.00
H595   H     0.47328   0.94813   0.15334   0.00000  Uiso   1.00
H596   H     0.40144   0.69042   0.28537   0.00000  Uiso   1.00
H597   H     0.59133   0.97353   0.21944   0.00000  Uiso   1.00
H598   H     0.59417   0.70971   0.19340   0.00000  Uiso   1.00
H599   H     0.36982   0.98234   0.20678   0.00000  Uiso   1.00
H600   H     0.54603   0.88773   0.47265   0.00000  Uiso   1.00
H601   H     0.50198   0.75770   0.03153   0.00000  Uiso   1.00
H602   H     0.50953   0.90634   0.11022   0.00000  Uiso   1.00
H603   H     0.46173   0.77491   0.38519   0.00000  Uiso   1.00
H604   H     0.54281   0.88926   0.39210   0.00000  Uiso   1.00
H605   H     0.49919   0.75872   0.11123   0.00000  Uiso   1.00
H606   H     0.44313   0.75452   0.18692   0.00000  Uiso   1.00
N607   N     0.50000   0.95069   0.25000   0.00000  Uiso   1.00
N608   N     0.50000   0.71598   0.25000   0.00000  Uiso   1.00
O609   O     0.43988   0.87291   0.25000   0.00000  Uiso   1.00
O610   O     0.38348   0.71283   0.26581   0.00000  Uiso   1.00
O611   O     0.59885   0.90735   0.17416   0.00000  Uiso   1.00
O612   O     0.61404   0.95271   0.23400   0.00000  Uiso   1.00
O613   O     0.63330   0.71375   0.26561   0.00000  Uiso   1.00
O614   O     0.60659   0.74087   0.19779   0.00000  Uiso   1.00
O615   O     0.38851   0.93707   0.27272   0.00000  Uiso   1.00
O616   O     0.36092   0.94966   0.20167   0.00000  Uiso   1.00
O617   O     0.56012   0.79375   0.25001   0.00000  Uiso   1.00
O618   O     0.56012   0.87291   0.25000   0.00000  Uiso   1.00
O619   O     0.43988   0.79375   0.25000   0.00000  Uiso   1.00
O620   O     0.50000   0.87293   0.18573   0.00000  Uiso   1.00
O621   O     0.50000   0.79374   0.31427   0.00000  Uiso   1.00
O622   O     0.50000   0.87293   0.31427   0.00000  Uiso   1.00
O623   O     0.50000   0.79374   0.18573   0.00000  Uiso   1.00
O624   O     0.39483   0.76145   0.32376   0.00000  Uiso   1.00
C625   C     0.75423   0.83408   0.25208   0.00000  Uiso   1.00
C626   C     0.97573   0.87263   0.23173   0.00000  Uiso   1.00
C627   C     0.98037   0.79094   0.25008   0.00000  Uiso   1.00
C628   C     0.68503   0.87568   0.24076   0.00000  Uiso   1.00
C629   C     0.84003   0.87349   0.04754   0.00000  Uiso   1.00
C630   C     0.81398   0.79964   0.45022   0.00000  Uiso   1.00
C631   C     0.86007   0.86357   0.45405   0.00000  Uiso   1.00
C632   C     0.83578   0.79053   0.04818   0.00000  Uiso   1.00
C633   C     0.83981   0.87389   0.09340   0.00000  Uiso   1.00
C634   C     0.81325   0.79979   0.40421   0.00000  Uiso   1.00
C635   C     0.85839   0.86444   0.40801   0.00000  Uiso   1.00
C636   C     0.91204   0.83268   0.24634   0.00000  Uiso   1.00
C637   C     0.83450   0.79110   0.09394   0.00000  Uiso   1.00
C638   C     0.83593   0.83289   0.11691   0.00000  Uiso   1.00
C639   C     0.83498   0.83262   0.38295   0.00000  Uiso   1.00
C640   C     0.83788   0.83181   0.02440   0.00000  Uiso   1.00
C641   C     0.83747   0.83152   0.47564   0.00000  Uiso   1.00
C642   C     0.95648   0.83153   0.24091   0.00000  Uiso   1.00
C643   C     0.70910   0.83546   0.25372   0.00000  Uiso   1.00
C644   C     0.77864   0.71743   0.18473   0.00000  Uiso   1.00
C645   C     0.88839   0.94958   0.31511   0.00000  Uiso   1.00
C646   C     0.88440   0.71409   0.31796   0.00000  Uiso   1.00
C647   C     0.83396   0.83334   0.16514   0.00000  Uiso   1.00
C648   C     0.78595   0.95232   0.17974   0.00000  Uiso   1.00
C649   C     0.71215   0.75529   0.28614   0.00000  Uiso   1.00
C650   C     0.95105   0.91188   0.21073   0.00000  Uiso   1.00
C651   C     0.96234   0.74582   0.23920   0.00000  Uiso   1.00
C652   C     0.70261   0.92201   0.23953   0.00000  Uiso   1.00
C653   C     0.83380   0.83316   0.33476   0.00000  Uiso   1.00
C654   C     0.80813   0.69233   0.21914   0.00000  Uiso   1.00
C655   C     0.85854   0.97442   0.28085   0.00000  Uiso   1.00
C656   C     0.85830   0.69050   0.28102   0.00000  Uiso   1.00
C657   C     0.80888   0.97623   0.21855   0.00000  Uiso   1.00
C658   C     0.68934   0.79396   0.26173   0.00000  Uiso   1.00
Cu659  Cu    0.83333   0.88022   0.25000   0.00000  Uiso   1.00
Cu660  Cu    0.83333   0.78645   0.25000   0.00000  Uiso   1.00
H661   H     0.84138   0.90598   0.03027   0.00000  Uiso   1.00
H662   H     0.78694   0.70936   0.15091   0.00000  Uiso   1.00
H663   H     0.74684   0.70703   0.18799   0.00000  Uiso   1.00
H664   H     0.88999   0.91242   0.31345   0.00000  Uiso   1.00
H665   H     0.92026   0.95923   0.31100   0.00000  Uiso   1.00
H666   H     0.88094   0.95877   0.34897   0.00000  Uiso   1.00
H667   H     0.89105   0.74959   0.31088   0.00000  Uiso   1.00
H668   H     0.86914   0.71260   0.34905   0.00000  Uiso   1.00
H669   H     0.91550   0.69827   0.32422   0.00000  Uiso   1.00
H670   H     0.77393   0.91930   0.18888   0.00000  Uiso   1.00
H671   H     0.75851   0.97121   0.16433   0.00000  Uiso   1.00
H672   H     0.79563   0.77505   0.46571   0.00000  Uiso   1.00
H673   H     0.80661   0.94813   0.15334   0.00000  Uiso   1.00
H674   H     0.73477   0.69042   0.28537   0.00000  Uiso   1.00
H675   H     0.92466   0.97353   0.21944   0.00000  Uiso   1.00
H676   H     0.92750   0.70971   0.19340   0.00000  Uiso   1.00
H677   H     0.70315   0.98234   0.20678   0.00000  Uiso   1.00
H678   H     0.87937   0.88773   0.47265   0.00000  Uiso   1.00
H679   H     0.83532   0.75770   0.03153   0.00000  Uiso   1.00
H680   H     0.84286   0.90634   0.11022   0.00000  Uiso   1.00
H681   H     0.79506   0.77491   0.38519   0.00000  Uiso   1.00
H682   H     0.87615   0.88926   0.39210   0.00000  Uiso   1.00
H683   H     0.83253   0.75872   0.11123   0.00000  Uiso   1.00
H684   H     0.77646   0.75452   0.18692   0.00000  Uiso   1.00
N685   N     0.83333   0.95069   0.25000   0.00000  Uiso   1.00
N686   N     0.83333   0.71598   0.25000   0.00000  Uiso   1.00
O687   O     0.77321   0.87291   0.25000   0.00000  Uiso   1.00
O688   O     0.71681   0.71283   0.26581   0.00000  Uiso   1.00
O689   O     0.93218   0.90735   0.17416   0.00000  Uiso   1.00
O690   O     0.94737   0.95271   0.23400   0.00000  Uiso   1.00
O691   O     0.96663   0.71375   0.26561   0.00000  Uiso   1.00
O692   O     0.93993   0.74087   0.19779   0.00000  Uiso   1.00
O693   O     0.72185   0.93707   0.27272   0.00000  Uiso   1.00
O694   O     0.69425   0.94966   0.20167   0.00000  Uiso   1.00
O695   O     0.89345   0.79375   0.25001   0.00000  Uiso   1.00
O696   O     0.89345   0.87291   0.25000   0.00000  Uiso   1.00
O697   O     0.77321   0.79375   0.25000   0.00000  Uiso   1.00
O698   O     0.83333   0.87293   0.18573   0.00000  Uiso   1.00
O699   O     0.83334   0.79374   0.31427   0.00000  Uiso   1.00
O700   O     0.83334   0.87293   0.31427   0.00000  Uiso   1.00
O701   O     0.83333   0.79374   0.18573   0.00000  Uiso   1.00
O702   O     0.72816   0.76145   0.32376   0.00000  Uiso   1.00
C703   C     0.08756   0.16741   0.75208   0.00000  Uiso   1.00
C704   C     0.30906   0.20596   0.73173   0.00000  Uiso   1.00
C705   C     0.31371   0.12428   0.75008   0.00000  Uiso   1.00
C706   C     0.01836   0.20901   0.74076   0.00000  Uiso   1.00
C707   C     0.17337   0.20682   0.54754   0.00000  Uiso   1.00
C708   C     0.14732   0.13297   0.95022   0.00000  Uiso   1.00
C709   C     0.19340   0.19690   0.95405   0.00000  Uiso   1.00
C710   C     0.16912   0.12386   0.54818   0.00000  Uiso   1.00
C711   C     0.17314   0.20722   0.59340   0.00000  Uiso   1.00
C712   C     0.14658   0.13312   0.90421   0.00000  Uiso   1.00
C713   C     0.19172   0.19778   0.90801   0.00000  Uiso   1.00
C714   C     0.24537   0.16602   0.74634   0.00000  Uiso   1.00
C715   C     0.16783   0.12443   0.59394   0.00000  Uiso   1.00
C716   C     0.16926   0.16622   0.61691   0.00000  Uiso   1.00
C717   C     0.16831   0.16595   0.88295   0.00000  Uiso   1.00
C718   C     0.17122   0.16514   0.52440   0.00000  Uiso   1.00
C719   C     0.17080   0.16485   0.97564   0.00000  Uiso   1.00
C720   C     0.28982   0.16487   0.74091   0.00000  Uiso   1.00
C721   C     0.04243   0.16879   0.75372   0.00000  Uiso   1.00
C722   C     0.11197   0.05077   0.68473   0.00000  Uiso   1.00
C723   C     0.22173   0.28291   0.81511   0.00000  Uiso   1.00
C724   C     0.21773   0.04742   0.81796   0.00000  Uiso   1.00
C725   C     0.16729   0.16667   0.66514   0.00000  Uiso   1.00
C726   C     0.11928   0.28565   0.67974   0.00000  Uiso   1.00
C727   C     0.04549   0.08863   0.78614   0.00000  Uiso   1.00
C728   C     0.28438   0.24521   0.71073   0.00000  Uiso   1.00
C729   C     0.29568   0.07915   0.73920   0.00000  Uiso   1.00
C730   C     0.03594   0.25534   0.73953   0.00000  Uiso   1.00
C731   C     0.16713   0.16650   0.83476   0.00000  Uiso   1.00
C732   C     0.14147   0.02567   0.71914   0.00000  Uiso   1.00
C733   C     0.19187   0.30775   0.78085   0.00000  Uiso   1.00
C734   C     0.19163   0.02383   0.78102   0.00000  Uiso   1.00
C735   C     0.14221   0.30956   0.71855   0.00000  Uiso   1.00
C736   C     0.02268   0.12729   0.76173   0.00000  Uiso   1.00
Cu737  Cu    0.16667   0.21355   0.75000   0.00000  Uiso   1.00
Cu738  Cu    0.16667   0.11978   0.75000   0.00000  Uiso   1.00
H739   H     0.17471   0.23932   0.53027   0.00000  Uiso   1.00
H740   H     0.12028   0.04270   0.65091   0.00000  Uiso   1.00
H741   H     0.08017   0.04037   0.68799   0.00000  Uiso   1.00
H742   H     0.22332   0.24575   0.81345   0.00000  Uiso   1.00
H743   H     0.25359   0.29256   0.81100   0.00000  Uiso   1.00
H744   H     0.21427   0.29210   0.84897   0.00000  Uiso   1.00
H745   H     0.22438   0.08292   0.81088   0.00000  Uiso   1.00
H746   H     0.20247   0.04593   0.84905   0.00000  Uiso   1.00
H747   H     0.24884   0.03160   0.82422   0.00000  Uiso   1.00
H748   H     0.10727   0.25263   0.68888   0.00000  Uiso   1.00
H749   H     0.09185   0.30454   0.66433   0.00000  Uiso   1.00
H750   H     0.12896   0.10838   0.96571   0.00000  Uiso   1.00
H751   H     0.13994   0.28147   0.65334   0.00000  Uiso   1.00
H752   H     0.06811   0.02376   0.78537   0.00000  Uiso   1.00
H753   H     0.25800   0.30687   0.71944   0.00000  Uiso   1.00
H754   H     0.26084   0.04304   0.69340   0.00000  Uiso   1.00
H755   H     0.03648   0.31567   0.70678   0.00000  Uiso   1.00
H756   H     0.21270   0.22107   0.97265   0.00000  Uiso   1.00
H757   H     0.16865   0.09104   0.53153   0.00000  Uiso   1.00
H758   H     0.17620   0.23967   0.61022   0.00000  Uiso   1.00
H759   H     0.12839   0.10825   0.88519   0.00000  Uiso   1.00
H760   H     0.20948   0.22259   0.89210   0.00000  Uiso   1.00
H761   H     0.16586   0.09206   0.61123   0.00000  Uiso   1.00
H762   H     0.10980   0.08785   0.68692   0.00000  Uiso   1.00
N763   N     0.16667   0.28402   0.75000   0.00000  Uiso   1.00
N764   N     0.16667   0.04931   0.75000   0.00000  Uiso   1.00
O765   O     0.10655   0.20625   0.75000   0.00000  Uiso   1.00
O766   O     0.05014   0.04617   0.76581   0.00000  Uiso   1.00
O767   O     0.26552   0.24068   0.67416   0.00000  Uiso   1.00
O768   O     0.28071   0.28604   0.73400   0.00000  Uiso   1.00
O769   O     0.29996   0.04709   0.76561   0.00000  Uiso   1.00
O770   O     0.27326   0.07421   0.69779   0.00000  Uiso   1.00
O771   O     0.05518   0.27040   0.77272   0.00000  Uiso   1.00
O772   O     0.02759   0.28299   0.70167   0.00000  Uiso   1.00
O773   O     0.22679   0.12709   0.75001   0.00000  Uiso   1.00
O774   O     0.22679   0.20625   0.75000   0.00000  Uiso   1.00
O775   O     0.10655   0.12709   0.75000   0.00000  Uiso   1.00
O776   O     0.16666   0.20626   0.68573   0.00000  Uiso   1.00
O777   O     0.16667   0.12707   0.81427   0.00000  Uiso   1.00
O778   O     0.16667   0.20626   0.81427   0.00000  Uiso   1.00
O779   O     0.16666   0.12707   0.68573   0.00000  Uiso   1.00
O780   O     0.06149   0.09478   0.82376   0.00000  Uiso   1.00
C781   C     0.42090   0.16741   0.75208   0.00000  Uiso   1.00
C782   C     0.64240   0.20596   0.73173   0.00000  Uiso   1.00
C783   C     0.64704   0.12428   0.75008   0.00000  Uiso   1.00
C784   C     0.35170   0.20901   0.74076   0.00000  Uiso   1.00
C785   C     0.50670   0.20682   0.54754   0.00000  Uiso   1.00
C786   C     0.48065   0.13297   0.95022   0.00000  Uiso   1.00
C787   C     0.52673   0.19690   0.95405   0.00000  Uiso   1.00
C788   C     0.50245   0.12386   0.54818   0.00000  Uiso   1.00
C789   C     0.50648   0.20722   0.59340   0.00000  Uiso   1.00
C790   C     0.47991   0.13312   0.90421   0.00000  Uiso   1.00
C791   C     0.52506   0.19778   0.90801   0.00000  Uiso   1.00
C792   C     0.57871   0.16602   0.74634   0.00000  Uiso   1.00
C793   C     0.50117   0.12443   0.59394   0.00000  Uiso   1.00
C794   C     0.50260   0.16622   0.61691   0.00000  Uiso   1.00
C795   C     0.50164   0.16595   0.88295   0.00000  Uiso   1.00
C796   C     0.50455   0.16514   0.52440   0.00000  Uiso   1.00
C797   C     0.50414   0.16485   0.97564   0.00000  Uiso   1.00
C798   C     0.62315   0.16487   0.74091   0.00000  Uiso   1.00
C799   C     0.37576   0.16879   0.75372   0.00000  Uiso   1.00
C800   C     0.44531   0.05077   0.68473   0.00000  Uiso   1.00
C801   C     0.55506   0.28291   0.81511   0.00000  Uiso   1.00
C802   C     0.55107   0.04742   0.81796   0.00000  Uiso   1.00
C803   C     0.50063   0.16667   0.66514   0.00000  Uiso   1.00
C804   C     0.45261   0.28565   0.67974   0.00000  Uiso   1.00
C805   C     0.37882   0.08863   0.78614   0.00000  Uiso   1.00
C806   C     0.61771   0.24521   0.71073   0.00000  Uiso   1.00
C807   C     0.62901   0.07915   0.73920   0.00000  Uiso   1.00
C808   C     0.36927   0.25534   0.73953   0.00000  Uiso   1.00
C809   C     0.50047   0.16650   0.83476   0.00000  Uiso   1.00
C810   C     0.47480   0.02567   0.71914   0.00000  Uiso   1.00
C811   C     0.52521   0.30775   0.78085   0.00000  Uiso   1.00
C812   C     0.52497   0.02383   0.78102   0.00000  Uiso   1.00
C813   C     0.47554   0.30956   0.71855   0.00000  Uiso   1.00
C814   C     0.35601   0.12729   0.76173   0.00000  Uiso   1.00
Cu815  Cu    0.50000   0.21355   0.75000   0.00000  Uiso   1.00
Cu816  Cu    0.50000   0.11978   0.75000   0.00000  Uiso   1.00
H817   H     0.50805   0.23932   0.53027   0.00000  Uiso   1.00
H818   H     0.45361   0.04270   0.65091   0.00000  Uiso   1.00
H819   H     0.41351   0.04037   0.68799   0.00000  Uiso   1.00
H820   H     0.55665   0.24575   0.81345   0.00000  Uiso   1.00
H821   H     0.58692   0.29256   0.81100   0.00000  Uiso   1.00
H822   H     0.54761   0.29210   0.84897   0.00000  Uiso   1.00
H823   H     0.55771   0.08292   0.81088   0.00000  Uiso   1.00
H824   H     0.53581   0.04593   0.84905   0.00000  Uiso   1.00
H825   H     0.58217   0.03160   0.82422   0.00000  Uiso   1.00
H826   H     0.44060   0.25263   0.68888   0.00000  Uiso   1.00
H827   H     0.42518   0.30454   0.66433   0.00000  Uiso   1.00
H828   H     0.46230   0.10838   0.96571   0.00000  Uiso   1.00
H829   H     0.47328   0.28147   0.65334   0.00000  Uiso   1.00
H830   H     0.40144   0.02376   0.78537   0.00000  Uiso   1.00
H831   H     0.59133   0.30687   0.71944   0.00000  Uiso   1.00
H832   H     0.59417   0.04304   0.69340   0.00000  Uiso   1.00
H833   H     0.36982   0.31567   0.70678   0.00000  Uiso   1.00
H834   H     0.54603   0.22107   0.97265   0.00000  Uiso   1.00
H835   H     0.50198   0.09104   0.53153   0.00000  Uiso   1.00
H836   H     0.50953   0.23967   0.61022   0.00000  Uiso   1.00
H837   H     0.46173   0.10825   0.88519   0.00000  Uiso   1.00
H838   H     0.54281   0.22259   0.89210   0.00000  Uiso   1.00
H839   H     0.49919   0.09206   0.61123   0.00000  Uiso   1.00
H840   H     0.44313   0.08785   0.68692   0.00000  Uiso   1.00
N841   N     0.50000   0.28402   0.75000   0.00000  Uiso   1.00
N842   N     0.50000   0.04931   0.75000   0.00000  Uiso   1.00
O843   O     0.43988   0.20625   0.75000   0.00000  Uiso   1.00
O844   O     0.38348   0.04617   0.76581   0.00000  Uiso   1.00
O845   O     0.59885   0.24068   0.67416   0.00000  Uiso   1.00
O846   O     0.61404   0.28604   0.73400   0.00000  Uiso   1.00
O847   O     0.63330   0.04709   0.76561   0.00000  Uiso   1.00
O848   O     0.60659   0.07421   0.69779   0.00000  Uiso   1.00
O849   O     0.38851   0.27040   0.77272   0.00000  Uiso   1.00
O850   O     0.36092   0.28299   0.70167   0.00000  Uiso   1.00
O851   O     0.56012   0.12709   0.75001   0.00000  Uiso   1.00
O852   O     0.56012   0.20625   0.75000   0.00000  Uiso   1.00
O853   O     0.43988   0.12709   0.75000   0.00000  Uiso   1.00
O854   O     0.50000   0.20626   0.68573   0.00000  Uiso   1.00
O855   O     0.50000   0.12707   0.81427   0.00000  Uiso   1.00
O856   O     0.50000   0.20626   0.81427   0.00000  Uiso   1.00
O857   O     0.50000   0.12707   0.68573   0.00000  Uiso   1.00
O858   O     0.39483   0.09478   0.82376   0.00000  Uiso   1.00
C859   C     0.75423   0.16741   0.75208   0.00000  Uiso   1.00
C860   C     0.97573   0.20596   0.73173   0.00000  Uiso   1.00
C861   C     0.98037   0.12428   0.75008   0.00000  Uiso   1.00
C862   C     0.68503   0.20901   0.74076   0.00000  Uiso   1.00
C863   C     0.84003   0.20682   0.54754   0.00000  Uiso   1.00
C864   C     0.81398   0.13297   0.95022   0.00000  Uiso   1.00
C865   C     0.86007   0.19690   0.95405   0.00000  Uiso   1.00
C866   C     0.83578   0.12386   0.54818   0.00000  Uiso   1.00
C867   C     0.83981   0.20722   0.59340   0.00000  Uiso   1.00
C868   C     0.81325   0.13312   0.90421   0.00000  Uiso   1.00
C869   C     0.85839   0.19778   0.90801   0.00000  Uiso   1.00
C870   C     0.91204   0.16602   0.74634   0.00000  Uiso   1.00
C871   C     0.83450   0.12443   0.59394   0.00000  Uiso   1.00
C872   C     0.83593   0.16622   0.61691   0.00000  Uiso   1.00
C873   C     0.83498   0.16595   0.88295   0.00000  Uiso   1.00
C874   C     0.83788   0.16514   0.52440   0.00000  Uiso   1.00
C875   C     0.83747   0.16485   0.97564   0.00000  Uiso   1.00
C876   C     0.95648   0.16487   0.74091   0.00000  Uiso   1.00
C877   C     0.70910   0.16879   0.75372   0.00000  Uiso   1.00
C878   C     0.77864   0.05077   0.68473   0.00000  Uiso   1.00
C879   C     0.88839   0.28291   0.81511   0.00000  Uiso   1.00
C880   C     0.88440   0.04742   0.81796   0.00000  Uiso   1.00
C881   C     0.83396   0.16667   0.66514   0.00000  Uiso   1.00
C882   C     0.78595   0.28565   0.67974   0.00000  Uiso   1.00
C883   C     0.71215   0.08863   0.78614   0.00000  Uiso   1.00
C884   C     0.95105   0.24521   0.71073   0.00000  Uiso   1.00
C885   C     0.96234   0.07915   0.73920   0.00000  Uiso   1.00
C886   C     0.70261   0.25534   0.73953   0.00000  Uiso   1.00
C887   C     0.83380   0.16650   0.83476   0.00000  Uiso   1.00
C888   C     0.80813   0.02567   0.71914   0.00000  Uiso   1.00
C889   C     0.85854   0.30775   0.78085   0.00000  Uiso   1.00
C890   C     0.85830   0.02383   0.78102   0.00000  Uiso   1.00
C891   C     0.80888   0.30956   0.71855   0.00000  Uiso   1.00
C892   C     0.68934   0.12729   0.76173   0.00000  Uiso   1.00
Cu893  Cu    0.83333   0.21355   0.75000   0.00000  Uiso   1.00
Cu894  Cu    0.83333   0.11978   0.75000   0.00000  Uiso   1.00
H895   H     0.84138   0.23932   0.53027   0.00000  Uiso   1.00
H896   H     0.78694   0.04270   0.65091   0.00000  Uiso   1.00
H897   H     0.74684   0.04037   0.68799   0.00000  Uiso   1.00
H898   H     0.88999   0.24575   0.81345   0.00000  Uiso   1.00
H899   H     0.92026   0.29256   0.81100   0.00000  Uiso   1.00
H900   H     0.88094   0.29210   0.84897   0.00000  Uiso   1.00
H901   H     0.89105   0.08292   0.81088   0.00000  Uiso   1.00
H902   H     0.86914   0.04593   0.84905   0.00000  Uiso   1.00
H903   H     0.91550   0.03160   0.82422   0.00000  Uiso   1.00
H904   H     0.77393   0.25263   0.68888   0.00000  Uiso   1.00
H905   H     0.75851   0.30454   0.66433   0.00000  Uiso   1.00
H906   H     0.79563   0.10838   0.96571   0.00000  Uiso   1.00
H907   H     0.80661   0.28147   0.65334   0.00000  Uiso   1.00
H908   H     0.73477   0.02376   0.78537   0.00000  Uiso   1.00
H909   H     0.92466   0.30687   0.71944   0.00000  Uiso   1.00
H910   H     0.92750   0.04304   0.69340   0.00000  Uiso   1.00
H911   H     0.70315   0.31567   0.70678   0.00000  Uiso   1.00
H912   H     0.87937   0.22107   0.97265   0.00000  Uiso   1.00
H913   H     0.83532   0.09104   0.53153   0.00000  Uiso   1.00
H914   H     0.84286   0.23967   0.61022   0.00000  Uiso   1.00
H915   H     0.79506   0.10825   0.88519   0.00000  Uiso   1.00
H916   H     0.87615   0.22259   0.89210   0.00000  Uiso   1.00
H917   H     0.83253   0.09206   0.61123   0.00000  Uiso   1.00
H918   H     0.77646   0.08785   0.68692   0.00000  Uiso   1.00
N919   N     0.83333   0.28402   0.75000   0.00000  Uiso   1.00
N920   N     0.83333   0.04931   0.75000   0.00000  Uiso   1.00
O921   O     0.77321   0.20625   0.75000   0.00000  Uiso   1.00
O922   O     0.71681   0.04617   0.76581   0.00000  Uiso   1.00
O923   O     0.93218   0.24068   0.67416   0.00000  Uiso   1.00
O924   O     0.94737   0.28604   0.73400   0.00000  Uiso   1.00
O925   O     0.96663   0.04709   0.76561   0.00000  Uiso   1.00
O926   O     0.93993   0.07421   0.69779   0.00000  Uiso   1.00
O927   O     0.72185   0.27040   0.77272   0.00000  Uiso   1.00
O928   O     0.69425   0.28299   0.70167   0.00000  Uiso   1.00
O929   O     0.89345   0.12709   0.75001   0.00000  Uiso   1.00
O930   O     0.89345   0.20625   0.75000   0.00000  Uiso   1.00
O931   O     0.77321   0.12709   0.75000   0.00000  Uiso   1.00
O932   O     0.83333   0.20626   0.68573   0.00000  Uiso   1.00
O933   O     0.83334   0.12707   0.81427   0.00000  Uiso   1.00
O934   O     0.83334   0.20626   0.81427   0.00000  Uiso   1.00
O935   O     0.83333   0.12707   0.68573   0.00000  Uiso   1.00
O936   O     0.72816   0.09478   0.82376   0.00000  Uiso   1.00
C937   C     0.08756   0.50074   0.75208   0.00000  Uiso   1.00
C938   C     0.30906   0.53930   0.73173   0.00000  Uiso   1.00
C939   C     0.31371   0.45761   0.75008   0.00000  Uiso   1.00
C940   C     0.01836   0.54235   0.74076   0.00000  Uiso   1.00
C941   C     0.17337   0.54016   0.54754   0.00000  Uiso   1.00
C942   C     0.14732   0.46631   0.95022   0.00000  Uiso   1.00
C943   C     0.19340   0.53023   0.95405   0.00000  Uiso   1.00
C944   C     0.16912   0.45720   0.54818   0.00000  Uiso   1.00
C945   C     0.17314   0.54056   0.59340   0.00000  Uiso   1.00
C946   C     0.14658   0.46646   0.90421   0.00000  Uiso   1.00
C947   C     0.19172   0.53111   0.90801   0.00000  Uiso   1.00
C948   C     0.24537   0.49935   0.74634   0.00000  Uiso   1.00
C949   C     0.16783   0.45777   0.59394   0.00000  Uiso   1.00
C950   C     0.16926   0.49956   0.61691   0.00000  Uiso   1.00
C951   C     0.16831   0.49928   0.88295   0.00000  Uiso   1.00
C952   C     0.17122   0.49848   0.52440   0.00000  Uiso   1.00
C953   C     0.17080   0.49818   0.97564   0.00000  Uiso   1.00
C954   C     0.28982   0.49820   0.74091   0.00000  Uiso   1.00
C955   C     0.04243   0.50212   0.75372   0.00000  Uiso   1.00
C956   C     0.11197   0.38410   0.68473   0.00000  Uiso   1.00
C957   C     0.22173   0.61625   0.81511   0.00000  Uiso   1.00
C958   C     0.21773   0.38075   0.81796   0.00000  Uiso   1.00
C959   C     0.16729   0.50000   0.66514   0.00000  Uiso   1.00
C960   C     0.11928   0.61899   0.67974   0.00000  Uiso   1.00
C961   C     0.04549   0.42196   0.78614   0.00000  Uiso   1.00
C962   C     0.28438   0.57855   0.71073   0.00000  Uiso   1.00
C963   C     0.29568   0.41249   0.73920   0.00000  Uiso   1.00
C964   C     0.03594   0.58867   0.73953   0.00000  Uiso   1.00
C965   C     0.16713   0.49983   0.83476   0.00000  Uiso   1.00
C966   C     0.14147   0.35900   0.71914   0.00000  Uiso   1.00
C967   C     0.19187   0.64109   0.78085   0.00000  Uiso   1.00
C968   C     0.19163   0.35716   0.78102   0.00000  Uiso   1.00
C969   C     0.14221   0.64290   0.71855   0.00000  Uiso   1.00
C970   C     0.02268   0.46063   0.76173   0.00000  Uiso   1.00
Cu971  Cu    0.16667   0.54689   0.75000   0.00000  Uiso   1.00
Cu972  Cu    0.16667   0.45311   0.75000   0.00000  Uiso   1.00
H973   H     0.17471   0.57265   0.53027   0.00000  Uiso   1.00
H974   H     0.12028   0.37603   0.65091   0.00000  Uiso   1.00
H975   H     0.08017   0.37370   0.68799   0.00000  Uiso   1.00
H976   H     0.22332   0.57909   0.81345   0.00000  Uiso   1.00
H977   H     0.25359   0.62589   0.81100   0.00000  Uiso   1.00
H978   H     0.21427   0.62544   0.84897   0.00000  Uiso   1.00
H979   H     0.22438   0.41625   0.81088   0.00000  Uiso   1.00
H980   H     0.20247   0.37926   0.84905   0.00000  Uiso   1.00
H981   H     0.24884   0.36494   0.82422   0.00000  Uiso   1.00
H982   H     0.10727   0.58596   0.68888   0.00000  Uiso   1.00
H983   H     0.09185   0.63788   0.66433   0.00000  Uiso   1.00
H984   H     0.12896   0.44171   0.96571   0.00000  Uiso   1.00
H985   H     0.13994   0.61480   0.65334   0.00000  Uiso   1.00
H986   H     0.06811   0.35709   0.78537   0.00000  Uiso   1.00
H987   H     0.25800   0.64020   0.71944   0.00000  Uiso   1.00
H988   H     0.26084   0.37638   0.69340   0.00000  Uiso   1.00
H989   H     0.03648   0.64900   0.70678   0.00000  Uiso   1.00
H990   H     0.21270   0.55440   0.97265   0.00000  Uiso   1.00
H991   H     0.16865   0.42437   0.53153   0.00000  Uiso   1.00
H992   H     0.17620   0.57301   0.61022   0.00000  Uiso   1.00
H993   H     0.12839   0.44158   0.88519   0.00000  Uiso   1.00
H994   H     0.20948   0.55593   0.89210   0.00000  Uiso   1.00
H995   H     0.16586   0.42539   0.61123   0.00000  Uiso   1.00
H996   H     0.10980   0.42119   0.68692   0.00000  Uiso   1.00
N997   N     0.16667   0.61736   0.75000   0.00000  Uiso   1.00
N998   N     0.16667   0.38264   0.75000   0.00000  Uiso   1.00
O999   O     0.10655   0.53958   0.75000   0.00000  Uiso   1.00
O1000  O     0.05014   0.37950   0.76581   0.00000  Uiso   1.00
O1001  O     0.26552   0.57401   0.67416   0.00000  Uiso   1.00
O1002  O     0.28071   0.61937   0.73400   0.00000  Uiso   1.00
O1003  O     0.29996   0.38042   0.76561   0.00000  Uiso   1.00
O1004  O     0.27326   0.40754   0.69779   0.00000  Uiso   1.00
O1005  O     0.05518   0.60374   0.77272   0.00000  Uiso   1.00
O1006  O     0.02759   0.61633   0.70167   0.00000  Uiso   1.00
O1007  O     0.22679   0.46042   0.75001   0.00000  Uiso   1.00
O1008  O     0.22679   0.53958   0.75000   0.00000  Uiso   1.00
O1009  O     0.10655   0.46042   0.75000   0.00000  Uiso   1.00
O1010  O     0.16666   0.53959   0.68573   0.00000  Uiso   1.00
O1011  O     0.16667   0.46041   0.81427   0.00000  Uiso   1.00
O1012  O     0.16667   0.53959   0.81427   0.00000  Uiso   1.00
O1013  O     0.16666   0.46041   0.68573   0.00000  Uiso   1.00
O1014  O     0.06149   0.42812   0.82376   0.00000  Uiso   1.00
C1015  C     0.42090   0.50074   0.75208   0.00000  Uiso   1.00
C1016  C     0.64240   0.53930   0.73173   0.00000  Uiso   1.00
C1017  C     0.64704   0.45761   0.75008   0.00000  Uiso   1.00
C1018  C     0.35170   0.54235   0.74076   0.00000  Uiso   1.00
C1019  C     0.50670   0.54016   0.54754   0.00000  Uiso   1.00
C1020  C     0.48065   0.46631   0.95022   0.00000  Uiso   1.00
C1021  C     0.52673   0.53023   0.95405   0.00000  Uiso   1.00
C1022  C     0.50245   0.45720   0.54818   0.00000  Uiso   1.00
C1023  C     0.50648   0.54056   0.59340   0.00000  Uiso   1.00
C1024  C     0.47991   0.46646   0.90421   0.00000  Uiso   1.00
C1025  C     0.52506   0.53111   0.90801   0.00000  Uiso   1.00
C1026  C     0.57871   0.49935   0.74634   0.00000  Uiso   1.00
C1027  C     0.50117   0.45777   0.59394   0.00000  Uiso   1.00
C1028  C     0.50260   0.49956   0.61691   0.00000  Uiso   1.00
C1029  C     0.50164   0.49928   0.88295   0.00000  Uiso   1.00
C1030  C     0.50455   0.49848   0.52440   0.00000  Uiso   1.00
C1031  C     0.50414   0.49818   0.97564   0.00000  Uiso   1.00
C1032  C     0.62315   0.49820   0.74091   0.00000  Uiso   1.00
C1033  C     0.37576   0.50212   0.75372   0.00000  Uiso   1.00
C1034  C     0.44531   0.38410   0.68473   0.00000  Uiso   1.00
C1035  C     0.55506   0.61625   0.81511   0.00000  Uiso   1.00
C1036  C     0.55107   0.38075   0.81796   0.00000  Uiso   1.00
C1037  C     0.50063   0.50000   0.66514   0.00000  Uiso   1.00
C1038  C     0.45261   0.61899   0.67974   0.00000  Uiso   1.00
C1039  C     0.37882   0.42196   0.78614   0.00000  Uiso   1.00
C1040  C     0.61771   0.57855   0.71073   0.00000  Uiso   1.00
C1041  C     0.62901   0.41249   0.73920   0.00000  Uiso   1.00
C1042  C     0.36927   0.58867   0.73953   0.00000  Uiso   1.00
C1043  C     0.50047   0.49983   0.83476   0.00000  Uiso   1.00
C1044  C     0.47480   0.35900   0.71914   0.00000  Uiso   1.00
C1045  C     0.52521   0.64109   0.78085   0.00000  Uiso   1.00
C1046  C     0.52497   0.35716   0.78102   0.00000  Uiso   1.00
C1047  C     0.47554   0.64290   0.71855   0.00000  Uiso   1.00
C1048  C     0.35601   0.46063   0.76173   0.00000  Uiso   1.00
Cu1049 Cu    0.50000   0.54689   0.75000   0.00000  Uiso   1.00
Cu1050 Cu    0.50000   0.45311   0.75000   0.00000  Uiso   1.00
H1051  H     0.50805   0.57265   0.53027   0.00000  Uiso   1.00
H1052  H     0.45361   0.37603   0.65091   0.00000  Uiso   1.00
H1053  H     0.41351   0.37370   0.68799   0.00000  Uiso   1.00
H1054  H     0.55665   0.57909   0.81345   0.00000  Uiso   1.00
H1055  H     0.58692   0.62589   0.81100   0.00000  Uiso   1.00
H1056  H     0.54761   0.62544   0.84897   0.00000  Uiso   1.00
H1057  H     0.55771   0.41625   0.81088   0.00000  Uiso   1.00
H1058  H     0.53581   0.37926   0.84905   0.00000  Uiso   1.00
H1059  H     0.58217   0.36494   0.82422   0.00000  Uiso   1.00
H1060  H     0.44060   0.58596   0.68888   0.00000  Uiso   1.00
H1061  H     0.42518   0.63788   0.66433   0.00000  Uiso   1.00
H1062  H     0.46230   0.44171   0.96571   0.00000  Uiso   1.00
H1063  H     0.47328   0.61480   0.65334   0.00000  Uiso   1.00
H1064  H     0.40144   0.35709   0.78537   0.00000  Uiso   1.00
H1065  H     0.59133   0.64020   0.71944   0.00000  Uiso   1.00
H1066  H     0.59417   0.37638   0.69340   0.00000  Uiso   1.00
H1067  H     0.36982   0.64900   0.70678   0.00000  Uiso   1.00
H1068  H     0.54603   0.55440   0.97265   0.00000  Uiso   1.00
H1069  H     0.50198   0.42437   0.53153   0.00000  Uiso   1.00
H1070  H     0.50953   0.57301   0.61022   0.00000  Uiso   1.00
H1071  H     0.46173   0.44158   0.88519   0.00000  Uiso   1.00
H1072  H     0.54281   0.55593   0.89210   0.00000  Uiso   1.00
H1073  H     0.49919   0.42539   0.61123   0.00000  Uiso   1.00
H1074  H     0.44313   0.42119   0.68692   0.00000  Uiso   1.00
N1075  N     0.50000   0.61736   0.75000   0.00000  Uiso   1.00
N1076  N     0.50000   0.38264   0.75000   0.00000  Uiso   1.00
O1077  O     0.43988   0.53958   0.75000   0.00000  Uiso   1.00
O1078  O     0.38348   0.37950   0.76581   0.00000  Uiso   1.00
O1079  O     0.59885   0.57401   0.67416   0.00000  Uiso   1.00
O1080  O     0.61404   0.61937   0.73400   0.00000  Uiso   1.00
O1081  O     0.63330   0.38042   0.76561   0.00000  Uiso   1.00
O1082  O     0.60659   0.40754   0.69779   0.00000  Uiso   1.00
O1083  O     0.38851   0.60374   0.77272   0.00000  Uiso   1.00
O1084  O     0.36092   0.61633   0.70167   0.00000  Uiso   1.00
O1085  O     0.56012   0.46042   0.75001   0.00000  Uiso   1.00
O1086  O     0.56012   0.53958   0.75000   0.00000  Uiso   1.00
O1087  O     0.43988   0.46042   0.75000   0.00000  Uiso   1.00
O1088  O     0.50000   0.53959   0.68573   0.00000  Uiso   1.00
O1089  O     0.50000   0.46041   0.81427   0.00000  Uiso   1.00
O1090  O     0.50000   0.53959   0.81427   0.00000  Uiso   1.00
O1091  O     0.50000   0.46041   0.68573   0.00000  Uiso   1.00
O1092  O     0.39483   0.42812   0.82376   0.00000  Uiso   1.00
C1093  C     0.75423   0.50074   0.75208   0.00000  Uiso   1.00
C1094  C     0.97573   0.53930   0.73173   0.00000  Uiso   1.00
C1095  C     0.98037   0.45761   0.75008   0.00000  Uiso   1.00
C1096  C     0.68503   0.54235   0.74076   0.00000  Uiso   1.00
C1097  C     0.84003   0.54016   0.54754   0.00000  Uiso   1.00
C1098  C     0.81398   0.46631   0.95022   0.00000  Uiso   1.00
C1099  C     0.86007   0.53023   0.95405   0.00000  Uiso   1.00
C1100  C     0.83578   0.45720   0.54818   0.00000  Uiso   1.00
C1101  C     0.83981   0.54056   0.59340   0.00000  Uiso   1.00
C1102  C     0.81325   0.46646   0.90421   0.00000  Uiso   1.00
C1103  C     0.85839   0.53111   0.90801   0.00000  Uiso   1.00
C1104  C     0.91204   0.49935   0.74634   0.00000  Uiso   1.00
C1105  C     0.83450   0.45777   0.59394   0.00000  Uiso   1.00
C1106  C     0.83593   0.49956   0.61691   0.00000  Uiso   1.00
C1107  C     0.83498   0.49928   0.88295   0.00000  Uiso   1.00
C1108  C     0.83788   0.49848   0.52440   0.00000  Uiso   1.00
C1109  C     0.83747   0.49818   0.97564   0.00000  Uiso   1.00
C1110  C     0.95648   0.49820   0.74091   0.00000  Uiso   1.00
C1111  C     0.70910   0.50212   0.75372   0.00000  Uiso   1.00
C1112  C     0.77864   0.38410   0.68473   0.00000  Uiso   1.00
C1113  C     0.88839   0.61625   0.81511   0.00000  Uiso   1.00
C1114  C     0.88440   0.38075   0.81796   0.00000  Uiso   1.00
C1115  C     0.83396   0.50000   0.66514   0.00000  Uiso   1.00
C1116  C     0.78595   0.61899   0.67974   0.00000  Uiso   1.00
C1117  C     0.71215   0.42196   0.78614   0.00000  Uiso   1.00
C1118  C     0.95105   0.57855   0.71073   0.00000  Uiso   1.00
C1119  C     0.96234   0.41249   0.73920   0.00000  Uiso   1.00
C1120  C     0.70261   0.58867   0.73953   0.00000  Uiso   1.00
C1121  C     0.83380   0.49983   0.83476   0.00000  Uiso   1.00
C1122  C     0.80813   0.35900   0.71914   0.00000  Uiso   1.00
C1123  C     0.85854   0.64109   0.78085   0.00000  Uiso   1.00
C1124  C     0.85830   0.35716   0.78102   0.00000  Uiso   1.00
C1125  C     0.80888   0.64290   0.71855   0.00000  Uiso   1.00
C1126  C     0.68934   0.46063   0.76173   0.00000  Uiso   1.00
Cu1127 Cu    0.83333   0.54689   0.75000   0.00000  Uiso   1.00
Cu1128 Cu    0.83333   0.45311   0.75000   0.00000  Uiso   1.00
H1129  H     0.84138   0.57265   0.53027   0.00000  Uiso   1.00
H1130  H     0.78694   0.37603   0.65091   0.00000  Uiso   1.00
H1131  H     0.74684   0.37370   0.68799   0.00000  Uiso   1.00
H1132  H     0.88999   0.57909   0.81345   0.00000  Uiso   1.00
H1133  H     0.92026   0.62589   0.81100   0.00000  Uiso   1.00
H1134  H     0.88094   0.62544   0.84897   0.00000  Uiso   1.00
H1135  H     0.89105   0.41625   0.81088   0.00000  Uiso   1.00
H1136  H     0.86914   0.37926   0.84905   0.00000  Uiso   1.00
H1137  H     0.91550   0.36494   0.82422   0.00000  Uiso   1.00
H1138  H     0.77393   0.58596   0.68888   0.00000  Uiso   1.00
H1139  H     0.75851   0.63788   0.66433   0.00000  Uiso   1.00
H1140  H     0.79563   0.44171   0.96571   0.00000  Uiso   1.00
H1141  H     0.80661   0.61480   0.65334   0.00000  Uiso   1.00
H1142  H     0.73477   0.35709   0.78537   0.00000  Uiso   1.00
H1143  H     0.92466   0.64020   0.71944   0.00000  Uiso   1.00
H1144  H     0.92750   0.37638   0.69340   0.00000  Uiso   1.00
H1145  H     0.70315   0.64900   0.70678   0.00000  Uiso   1.00
H1146  H     0.87937   0.55440   0.97265   0.00000  Uiso   1.00
H1147  H     0.83532   0.42437   0.53153   0.00000  Uiso   1.00
H1148  H     0.84286   0.57301   0.61022   0.00000  Uiso   1.00
H1149  H     0.79506   0.44158   0.88519   0.00000  Uiso   1.00
H1150  H     0.87615   0.55593   0.89210   0.00000  Uiso   1.00
H1151  H     0.83253   0.42539   0.61123   0.00000  Uiso   1.00
H1152  H     0.77646   0.42119   0.68692   0.00000  Uiso   1.00
N1153  N     0.83333   0.61736   0.75000   0.00000  Uiso   1.00
N1154  N     0.83333   0.38264   0.75000   0.00000  Uiso   1.00
O1155  O     0.77321   0.53958   0.75000   0.00000  Uiso   1.00
O1156  O     0.71681   0.37950   0.76581   0.00000  Uiso   1.00
O1157  O     0.93218   0.57401   0.67416   0.00000  Uiso   1.00
O1158  O     0.94737   0.61937   0.73400   0.00000  Uiso   1.00
O1159  O     0.96663   0.38042   0.76561   0.00000  Uiso   1.00
O1160  O     0.93993   0.40754   0.69779   0.00000  Uiso   1.00
O1161  O     0.72185   0.60374   0.77272   0.00000  Uiso   1.00
O1162  O     0.69425   0.61633   0.70167   0.00000  Uiso   1.00
O1163  O     0.89345   0.46042   0.75001   0.00000  Uiso   1.00
O1164  O     0.89345   0.53958   0.75000   0.00000  Uiso   1.00
O1165  O     0.77321   0.46042   0.75000   0.00000  Uiso   1.00
O1166  O     0.83333   0.53959   0.68573   0.00000  Uiso   1.00
O1167  O     0.83334   0.46041   0.81427   0.00000  Uiso   1.00
O1168  O     0.83334   0.53959   0.81427   0.00000  Uiso   1.00
O1169  O     0.83333   0.46041   0.68573   0.00000  Uiso   1.00
O1170  O     0.72816   0.42812   0.82376   0.00000  Uiso   1.00
C1171  C     0.08756   0.83408   0.75208   0.00000  Uiso   1.00
C1172  C     0.30906   0.87263   0.73173   0.00000  Uiso   1.00
C1173  C     0.31371   0.79094   0.75008   0.00000  Uiso   1.00
C1174  C     0.01836   0.87568   0.74076   0.00000  Uiso   1.00
C1175  C     0.17337   0.87349   0.54754   0.00000  Uiso   1.00
C1176  C     0.14732   0.79964   0.95022   0.00000  Uiso   1.00
C1177  C     0.19340   0.86357   0.95405   0.00000  Uiso   1.00
C1178  C     0.16912   0.79053   0.54818   0.00000  Uiso   1.00
C1179  C     0.17314   0.87389   0.59340   0.00000  Uiso   1.00
C1180  C     0.14658   0.79979   0.90421   0.00000  Uiso   1.00
C1181  C     0.19172   0.86444   0.90801   0.00000  Uiso   1.00
C1182  C     0.24537   0.83268   0.74634   0.00000  Uiso   1.00
C1183  C     0.16783   0.79110   0.59394   0.00000  Uiso   1.00
C1184  C     0.16926   0.83289   0.61691   0.00000  Uiso   1.00
C1185  C     0.16831   0.83262   0.88295   0.00000  Uiso   1.00
C1186  C     0.17122   0.83181   0.52440   0.00000  Uiso   1.00
C1187  C     0.17080   0.83152   0.97564   0.00000  Uiso   1.00
C1188  C     0.28982   0.83153   0.74091   0.00000  Uiso   1.00
C1189  C     0.04243   0.83546   0.75372   0.00000  Uiso   1.00
C1190  C     0.11197   0.71743   0.68473   0.00000  Uiso   1.00
C1191  C     0.22173   0.94958   0.81511   0.00000  Uiso   1.00
C1192  C     0.21773   0.71409   0.81796   0.00000  Uiso   1.00
C1193  C     0.16729   0.83334   0.66514   0.00000  Uiso   1.00
C1194  C     0.11928   0.95232   0.67974   0.00000  Uiso   1.00
C1195  C     0.04549   0.75529   0.78614   0.00000  Uiso   1.00
C1196  C     0.28438   0.91188   0.71073   0.00000  Uiso   1.00
C1197  C     0.29568   0.74582   0.73920   0.00000  Uiso   1.00
C1198  C     0.03594   0.92201   0.73953   0.00000  Uiso   1.00
C1199  C     0.16713   0.83316   0.83476   0.00000  Uiso   1.00
C1200  C     0.14147   0.69233   0.71914   0.00000  Uiso   1.00
C1201  C     0.19187   0.97442   0.78085   0.00000  Uiso   1.00
C1202  C     0.19163   0.69050   0.78102   0.00000  Uiso   1.00
C1203  C     0.14221   0.97623   0.71855   0.00000  Uiso   1.00
C1204  C     0.02268   0.79396   0.76173   0.00000  Uiso   1.00
Cu1205 Cu    0.16667   0.88022   0.75000   0.00000  Uiso   1.00
Cu1206 Cu    0.16667   0.78645   0.75000   0.00000  Uiso   1.00
H1207  H     0.17471   0.90598   0.53027   0.00000  Uiso   1.00
H1208  H     0.12028   0.70936   0.65091   0.00000  Uiso   1.00
H1209  H     0.08017   0.70703   0.68799   0.00000  Uiso   1.00
H1210  H     0.22332   0.91242   0.81345   0.00000  Uiso   1.00
H1211  H     0.25359   0.95923   0.81100   0.00000  Uiso   1.00
H1212  H     0.21427   0.95877   0.84897   0.00000  Uiso   1.00
H1213  H     0.22438   0.74959   0.81088   0.00000  Uiso   1.00
H1214  H     0.20247   0.71260   0.84905   0.00000  Uiso   1.00
H1215  H     0.24884   0.69827   0.82422   0.00000  Uiso   1.00
H1216  H     0.10727   0.91930   0.68888   0.00000  Uiso   1.00
H1217  H     0.09185   0.97121   0.66433   0.00000  Uiso   1.00
H1218  H     0.12896   0.77505   0.96571   0.00000  Uiso   1.00
H1219  H     0.13994   0.94813   0.65334   0.00000  Uiso   1.00
H1220  H     0.06811   0.69042   0.78537   0.00000  Uiso   1.00
H1221  H     0.25800   0.97353   0.71944   0.00000  Uiso   1.00
H1222  H     0.26084   0.70971   0.69340   0.00000  Uiso   1.00
H1223  H     0.03648   0.98234   0.70678   0.00000  Uiso   1.00
H1224  H     0.21270   0.88773   0.97265   0.00000  Uiso   1.00
H1225  H     0.16865   0.75770   0.53153   0.00000  Uiso   1.00
H1226  H     0.17620   0.90634   0.61022   0.00000  Uiso   1.00
H1227  H     0.12839   0.77491   0.88519   0.00000  Uiso   1.00
H1228  H     0.20948   0.88926   0.89210   0.00000  Uiso   1.00
H1229  H     0.16586   0.75872   0.61123   0.00000  Uiso   1.00
H1230  H     0.10980   0.75452   0.68692   0.00000  Uiso   1.00
N1231  N     0.16667   0.95069   0.75000   0.00000  Uiso   1.00
N1232  N     0.16667   0.71598   0.75000   0.00000  Uiso   1.00
O1233  O     0.10655   0.87291   0.75000   0.00000  Uiso   1.00
O1234  O     0.05014   0.71283   0.76581   0.00000  Uiso   1.00
O1235  O     0.26552   0.90735   0.67416   0.00000  Uiso   1.00
O1236  O     0.28071   0.95271   0.73400   0.00000  Uiso   1.00
O1237  O     0.29996   0.71375   0.76561   0.00000  Uiso   1.00
O1238  O     0.27326   0.74087   0.69779   0.00000  Uiso   1.00
O1239  O     0.05518   0.93707   0.77272   0.00000  Uiso   1.00
O1240  O     0.02759   0.94966   0.70167   0.00000  Uiso   1.00
O1241  O     0.22679   0.79375   0.75001   0.00000  Uiso   1.00
O1242  O     0.22679   0.87291   0.75000   0.00000  Uiso   1.00
O1243  O     0.10655   0.79375   0.75000   0.00000  Uiso   1.00
O1244  O     0.16666   0.87293   0.68573   0.00000  Uiso   1.00
O1245  O     0.16667   0.79374   0.81427   0.00000  Uiso   1.00
O1246  O     0.16667   0.87293   0.81427   0.00000  Uiso   1.00
O1247  O     0.16666   0.79374   0.68573   0.00000  Uiso   1.00
O1248  O     0.06149   0.76145   0.82376   0.00000  Uiso   1.00
C1249  C     0.42090   0.83408   0.75208   0.00000  Uiso   1.00
C1250  C     0.64240   0.87263   0.73173   0.00000  Uiso   1.00
C1251  C     0.64704   0.79094   0.75008   0.00000  Uiso   1.00
C1252  C     0.35170   0.87568   0.74076   0.00000  Uiso   1.00
C1253  C     0.50670   0.87349   0.54754   0.00000  Uiso   1.00
C1254  C     0.48065   0.79964   0.95022   0.00000  Uiso   1.00
C1255  C     0.52673   0.86357   0.95405   0.00000  Uiso   1.00
C1256  C     0.50245   0.79053   0.54818   0.00000  Uiso   1.00
C1257  C     0.50648   0.87389   0.59340   0.00000  Uiso   1.00
C1258  C     0.47991   0.79979   0.90421   0.00000  Uiso   1.00
C1259  C     0.52506   0.86444   0.90801   0.00000  Uiso   1.00
C1260  C     0.57871   0.83268   0.74634   0.00000  Uiso   1.00
C1261  C     0.50117   0.79110   0.59394   0.00000  Uiso   1.00
C1262  C     0.50260   0.83289   0.61691   0.00000  Uiso   1.00
C1263  C     0.50164   0.83262   0.88295   0.00000  Uiso   1.00
C1264  C     0.50455   0.83181   0.52440   0.00000  Uiso   1.00
C1265  C     0.50414   0.83152   0.97564   0.00000  Uiso   1.00
C1266  C     0.62315   0.83153   0.74091   0.00000  Uiso   1.00
C1267  C     0.37576   0.83546   0.75372   0.00000  Uiso   1.00
C1268  C     0.44531   0.71743   0.68473   0.00000  Uiso   1.00
C1269  C     0.55506   0.94958   0.81511   0.00000  Uiso   1.00
C1270  C     0.55107   0.71409   0.81796   0.00000  Uiso   1.00
C1271  C     0.50063   0.83334   0.66514   0.00000  Uiso   1.00
C1272  C     0.45261   0.95232   0.67974   0.00000  Uiso   1.00
C1273  C     0.37882   0.75529   0.78614   0.00000  Uiso   1.00
C1274  C     0.61771   0.91188   0.71073   0.00000  Uiso   1.00
C1275  C     0.62901   0.74582   0.73920   0.00000  Uiso   1.00
C1276  C     0.36927   0.92201   0.73953   0.00000  Uiso   1.00
C1277  C     0.50047   0.83316   0.83476   0.00000  Uiso   1.00
C1278  C     0.47480   0.69233   0.71914   0.00000  Uiso   1.00
C1279  C     0.52521   0.97442   0.78085   0.00000  Uiso   1.00
C1280  C     0.52497   0.69050   0.78102   0.00000  Uiso   1.00
C1281  C     0.47554   0.97623   0.71855   0.00000  Uiso   1.00
C1282  C     0.35601   0.79396   0.76173   0.00000  Uiso   1.00
Cu1283 Cu    0.50000   0.88022   0.75000   0.00000  Uiso   1.00
Cu1284 Cu    0.50000   0.78645   0.75000   0.00000  Uiso   1.00
H1285  H     0.50805   0.90598   0.53027   0.00000  Uiso   1.00
H1286  H     0.45361   0.70936   0.65091   0.00000  Uiso   1.00
H1287  H     0.41351   0.70703   0.68799   0.00000  Uiso   1.00
H1288  H     0.55665   0.91242   0.81345   0.00000  Uiso   1.00
H1289  H     0.58692   0.95923   0.81100   0.00000  Uiso   1.00
H1290  H     0.54761   0.95877   0.84897   0.00000  Uiso   1.00
H1291  H     0.55771   0.74959   0.81088   0.00000  Uiso   1.00
H1292  H     0.53581   0.71260   0.84905   0.00000  Uiso   1.00
H1293  H     0.58217   0.69827   0.82422   0.00000  Uiso   1.00
H1294  H     0.44060   0.91930   0.68888   0.00000  Uiso   1.00
H1295  H     0.42518   0.97121   0.66433   0.00000  Uiso   1.00
H1296  H     0.46230   0.77505   0.96571   0.00000  Uiso   1.00
H1297  H     0.47328   0.94813   0.65334   0.00000  Uiso   1.00
H1298  H     0.40144   0.69042   0.78537   0.00000  Uiso   1.00
H1299  H     0.59133   0.97353   0.71944   0.00000  Uiso   1.00
H1300  H     0.59417   0.70971   0.69340   0.00000  Uiso   1.00
H1301  H     0.36982   0.98234   0.70678   0.00000  Uiso   1.00
H1302  H     0.54603   0.88773   0.97265   0.00000  Uiso   1.00
H1303  H     0.50198   0.75770   0.53153   0.00000  Uiso   1.00
H1304  H     0.50953   0.90634   0.61022   0.00000  Uiso   1.00
H1305  H     0.46173   0.77491   0.88519   0.00000  Uiso   1.00
H1306  H     0.54281   0.88926   0.89210   0.00000  Uiso   1.00
H1307  H     0.49919   0.75872   0.61123   0.00000  Uiso   1.00
H1308  H     0.44313   0.75452   0.68692   0.00000  Uiso   1.00
N1309  N     0.50000   0.95069   0.75000   0.00000  Uiso   1.00
N1310  N     0.50000   0.71598   0.75000   0.00000  Uiso   1.00
O1311  O     0.43988   0.87291   0.75000   0.00000  Uiso   1.00
O1312  O     0.38348   0.71283   0.76581   0.00000  Uiso   1.00
O1313  O     0.59885   0.90735   0.67416   0.00000  Uiso   1.00
O1314  O     0.61404   0.95271   0.73400   0.00000  Uiso   1.00
O1315  O     0.63330   0.71375   0.76561   0.00000  Uiso   1.00
O1316  O     0.60659   0.74087   0.69779   0.00000  Uiso   1.00
O1317  O     0.38851   0.93707   0.77272   0.00000  Uiso   1.00
O1318  O     0.36092   0.94966   0.70167   0.00000  Uiso   1.00
O1319  O     0.56012   0.79375   0.75001   0.00000  Uiso   1.00
O1320  O     0.56012   0.87291   0.75000   0.00000  Uiso   1.00
O1321  O     0.43988   0.79375   0.75000   0.00000  Uiso   1.00
O1322  O     0.50000   0.87293   0.68573   0.00000  Uiso   1.00
O1323  O     0.50000   0.79374   0.81427   0.00000  Uiso   1.00
O1324  O     0.50000   0.87293   0.81427   0.00000  Uiso   1.00
O1325  O     0.50000   0.79374   0.68573   0.00000  Uiso   1.00
O1326  O     0.39483   0.76145   0.82376   0.00000  Uiso   1.00
C1327  C     0.75423   0.83408   0.75208   0.00000  Uiso   1.00
C1328  C     0.97573   0.87263   0.73173   0.00000  Uiso   1.00
C1329  C     0.98037   0.79094   0.75008   0.00000  Uiso   1.00
C1330  C     0.68503   0.87568   0.74076   0.00000  Uiso   1.00
C1331  C     0.84003   0.87349   0.54754   0.00000  Uiso   1.00
C1332  C     0.81398   0.79964   0.95022   0.00000  Uiso   1.00
C1333  C     0.86007   0.86357   0.95405   0.00000  Uiso   1.00
C1334  C     0.83578   0.79053   0.54818   0.00000  Uiso   1.00
C1335  C     0.83981   0.87389   0.59340   0.00000  Uiso   1.00
C1336  C     0.81325   0.79979   0.90421   0.00000  Uiso   1.00
C1337  C     0.85839   0.86444   0.90801   0.00000  Uiso   1.00
C1338  C     0.91204   0.83268   0.74634   0.00000  Uiso   1.00
C1339  C     0.83450   0.79110   0.59394   0.00000  Uiso   1.00
C1340  C     0.83593   0.83289   0.61691   0.00000  Uiso   1.00
C1341  C     0.83498   0.83262   0.88295   0.00000  Uiso   1.00
C1342  C     0.83788   0.83181   0.52440   0.00000  Uiso   1.00
C1343  C     0.83747   0.83152   0.97564   0.00000  Uiso   1.00
C1344  C     0.95648   0.83153   0.74091   0.00000  Uiso   1.00
C1345  C     0.70910   0.83546   0.75372   0.00000  Uiso   1.00
C1346  C     0.77864   0.71743   0.68473   0.00000  Uiso   1.00
C1347  C     0.88839   0.94958   0.81511   0.00000  Uiso   1.00
C1348  C     0.88440   0.71409   0.81796   0.00000  Uiso   1.00
C1349  C     0.83396   0.83334   0.66514   0.00000  Uiso   1.00
C1350  C     0.78595   0.95232   0.67974   0.00000  Uiso   1.00
C1351  C     0.71215   0.75529   0.78614   0.00000  Uiso   1.00
C1352  C     0.95105   0.91188   0.71073   0.00000  Uiso   1.00
C1353  C     0.96234   0.74582   0.73920   0.00000  Uiso   1.00
C1354  C     0.70261   0.92201   0.73953   0.00000  Uiso   1.00
C1355  C     0.83380   0.83316   0.83476   0.00000  Uiso   1.00
C1356  C     0.80813   0.69233   0.71914   0.00000  Uiso   1.00
C1357  C     0.85854   0.97442   0.78085   0.00000  Uiso   1.00
C1358  C     0.85830   0.69050   0.78102   0.00000  Uiso   1.00
C1359  C     0.80888   0.97623   0.71855   0.00000  Uiso   1.00
C1360  C     0.68934   0.79396   0.76173   0.00000  Uiso   1.00
Cu1361 Cu    0.83333   0.88022   0.75000   0.00000  Uiso   1.00
Cu1362 Cu    0.83333   0.78645   0.75000   0.00000  Uiso   1.00
H1363  H     0.84138   0.90598   0.53027   0.00000  Uiso   1.00
H1364  H     0.78694   0.70936   0.65091   0.00000  Uiso   1.00
H1365  H     0.74684   0.70703   0.68799   0.00000  Uiso   1.00
H1366  H     0.88999   0.91242   0.81345   0.00000  Uiso   1.00
H1367  H     0.92026   0.95923   0.81100   0.00000  Uiso   1.00
H1368  H     0.88094   0.95877   0.84897   0.00000  Uiso   1.00
H1369  H     0.89105   0.74959   0.81088   0.00000  Uiso   1.00
H1370  H     0.86914   0.71260   0.84905   0.00000  Uiso   1.00
H1371  H     0.91550   0.69827   0.82422   0.00000  Uiso   1.00
H1372  H     0.77393   0.91930   0.68888   0.00000  Uiso   1.00
H1373  H     0.75851   0.97121   0.66433   0.00000  Uiso   1.00
H1374  H     0.79563   0.77505   0.96571   0.00000  Uiso   1.00
H1375  H     0.80661   0.94813   0.65334   0.00000  Uiso   1.00
H1376  H     0.73477   0.69042   0.78537   0.00000  Uiso   1.00
H1377  H     0.92466   0.97353   0.71944   0.00000  Uiso   1.00
H1378  H     0.92750   0.70971   0.69340   0.00000  Uiso   1.00
H1379  H     0.70315   0.98234   0.70678   0.00000  Uiso   1.00
H1380  H     0.87937   0.88773   0.97265   0.00000  Uiso   1.00
H1381  H     0.83532   0.75770   0.53153   0.00000  Uiso   1.00
H1382  H     0.84286   0.90634   0.61022   0.00000  Uiso   1.00
H1383  H     0.79506   0.77491   0.88519   0.00000  Uiso   1.00
H1384  H     0.87615   0.88926   0.89210   0.00000  Uiso   1.00
H1385  H     0.83253   0.75872   0.61123   0.00000  Uiso   1.00
H1386  H     0.77646   0.75452   0.68692   0.00000  Uiso   1.00
N1387  N     0.83333   0.95069   0.75000   0.00000  Uiso   1.00
N1388  N     0.83333   0.71598   0.75000   0.00000  Uiso   1.00
O1389  O     0.77321   0.87291   0.75000   0.00000  Uiso   1.00
O1390  O     0.71681   0.71283   0.76581   0.00000  Uiso   1.00
O1391  O     0.93218   0.90735   0.67416   0.00000  Uiso   1.00
O1392  O     0.94737   0.95271   0.73400   0.00000  Uiso   1.00
O1393  O     0.96663   0.71375   0.76561   0.00000  Uiso   1.00
O1394  O     0.93993   0.74087   0.69779   0.00000  Uiso   1.00
O1395  O     0.72185   0.93707   0.77272   0.00000  Uiso   1.00
O1396  O     0.69425   0.94966   0.70167   0.00000  Uiso   1.00
O1397  O     0.89345   0.79375   0.75001   0.00000  Uiso   1.00
O1398  O     0.89345   0.87291   0.75000   0.00000  Uiso   1.00
O1399  O     0.77321   0.79375   0.75000   0.00000  Uiso   1.00
O1400  O     0.83333   0.87293   0.68573   0.00000  Uiso   1.00
O1401  O     0.83334   0.79374   0.81427   0.00000  Uiso   1.00
O1402  O     0.83334   0.87293   0.81427   0.00000  Uiso   1.00
O1403  O     0.83333   0.79374   0.68573   0.00000  Uiso   1.00
O1404  O     0.72816   0.76145   0.82376   0.00000  Uiso   1.00
loop_
_geom_bond_atom_site_label_1
_geom_bond_atom_site_label_2
_geom_bond_distance
_geom_bond_site_symmetry_2
_ccdc_geom_bond_type
C1     O63     1.310   .     A
C1     C19     1.484   .     S
C1     O73     1.317   .     A
C2     C18     1.407   .     A
C2     C26     1.483   .     S
C2     C82     1.402   .     S
C3     C18     1.409   .     A
C3     C27     1.481   .     S
C3     C112    1.401   .     S
C4     C19     1.423   .     A
C4     C28     1.483   .     S
C4     C158    1.402   1_455 S
C5     H37     1.082   .     S
C5     C16     1.404   .     A
C5     C9      1.390   .     A
C6     H48     1.082   .     S
C6     C17     1.406   .     A
C6     C10     1.391   .     A
C7     C11     1.390   .     A
C7     C17     1.405   .     A
C7     H54     1.082   .     S
C8     C13     1.391   .     A
C8     C16     1.404   .     A
C8     H55     1.082   .     S
C9     C14     1.401   .     A
C9     H56     1.078   .     S
C10    H57     1.083   .     S
C10    C15     1.399   .     A
C11    C15     1.399   .     A
C11    H58     1.081   .     S
C12    O72     1.314   .     A
C12    O71     1.311   .     A
C12    C18     1.481   .     S
C13    C14     1.404   .     A
C13    H59     1.082   .     S
C14    C23     1.469   .     S
C15    C29     1.456   .     S
C16    C719    1.476   1_554 S
C17    C718    1.476   .     S
C19    C34     1.418   .     A
C20    C30     1.518   .     S
C20    H60     1.082   .     S
C20    H39     1.107   .     S
C20    H38     1.110   .     S
C21    C31     1.518   .     S
C21    H41     1.107   .     S
C21    H40     1.083   .     S
C21    H42     1.110   .     S
C22    H44     1.110   .     S
C22    C32     1.519   .     S
C22    H45     1.104   .     S
C22    H43     1.087   .     S
C23    O77     1.309   .     A
C23    O74     1.314   .     A
C24    H49     1.103   .     S
C24    H47     1.101   .     S
C24    C33     1.515   .     S
C24    H46     1.094   .     S
C25    C34     1.484   .     S
C25    O78     1.223   .     D
C25    O64     1.395   .     S
C26    O65     1.223   .     D
C26    O66     1.393   .     S
C27    O68     1.399   .     S
C27    O67     1.221   .     D
C28    O69     1.223   .     D
C28    O70     1.397   .     S
C29    O76     1.309   .     A
C29    O75     1.307   .     A
C30    N62     1.384   .     A
C30    C501    1.439   1_545 S
C31    N61     1.385   .     A
C31    C266    1.438   .     S
C32    N62     1.380   .     A
C32    C499    1.438   1_545 S
C33    N61     1.381   .     A
C33    C264    1.439   .     S
C34    C159    1.401   1_455 S
Cu35   O74     1.959   .     S
Cu35   Cu36    2.729   .     S
Cu35   O76     1.957   .     S
Cu35   N61     2.051   .     S
Cu35   O72     1.975   .     S
Cu35   O63     1.987   .     S
Cu36   O77     1.957   .     S
Cu36   O71     1.987   .     S
Cu36   N62     2.051   .     S
Cu36   O75     1.959   .     S
Cu36   O73     1.975   .     S
H50    O64     1.013   .     S
H51    O66     1.010   .     S
H52    O68     1.009   .     S
H53    O70     1.011   .     S
C79    O141    1.310   .     A
C79    C97     1.484   .     S
C79    O151    1.317   .     A
C80    C96     1.407   .     A
C80    C104    1.483   .     S
C80    C160    1.402   .     S
C81    C96     1.409   .     A
C81    C105    1.481   .     S
C81    C190    1.401   .     S
C82    C97     1.423   .     A
C82    C106    1.483   .     S
C83    H115    1.082   .     S
C83    C94     1.404   .     A
C83    C87     1.390   .     A
C84    H126    1.082   .     S
C84    C95     1.406   .     A
C84    C88     1.391   .     A
C85    C89     1.390   .     A
C85    C95     1.405   .     A
C85    H132    1.082   .     S
C86    C91     1.391   .     A
C86    C94     1.404   .     A
C86    H133    1.082   .     S
C87    C92     1.401   .     A
C87    H134    1.078   .     S
C88    H135    1.083   .     S
C88    C93     1.399   .     A
C89    C93     1.399   .     A
C89    H136    1.081   .     S
C90    O150    1.314   .     A
C90    O149    1.311   .     A
C90    C96     1.481   .     S
C91    C92     1.404   .     A
C91    H137    1.082   .     S
C92    C101    1.469   .     S
C93    C107    1.456   .     S
C94    C797    1.476   1_554 S
C95    C796    1.476   .     S
C97    C112    1.418   .     A
C98    C108    1.518   .     S
C98    H138    1.082   .     S
C98    H117    1.107   .     S
C98    H116    1.110   .     S
C99    C109    1.518   .     S
C99    H119    1.107   .     S
C99    H118    1.083   .     S
C99    H120    1.110   .     S
C100   H122    1.110   .     S
C100   C110    1.519   .     S
C100   H123    1.104   .     S
C100   H121    1.087   .     S
C101   O155    1.309   .     A
C101   O152    1.314   .     A
C102   H127    1.103   .     S
C102   H125    1.101   .     S
C102   C111    1.515   .     S
C102   H124    1.094   .     S
C103   C112    1.484   .     S
C103   O156    1.223   .     D
C103   O142    1.395   .     S
C104   O143    1.223   .     D
C104   O144    1.393   .     S
C105   O146    1.399   .     S
C105   O145    1.221   .     D
C106   O147    1.223   .     D
C106   O148    1.397   .     S
C107   O154    1.309   .     A
C107   O153    1.307   .     A
C108   N140    1.384   .     A
C108   C579    1.439   1_545 S
C109   N139    1.385   .     A
C109   C344    1.438   .     S
C110   N140    1.380   .     A
C110   C577    1.438   1_545 S
C111   N139    1.381   .     A
C111   C342    1.439   .     S
Cu113  O152    1.959   .     S
Cu113  Cu114   2.729   .     S
Cu113  O154    1.957   .     S
Cu113  N139    2.051   .     S
Cu113  O150    1.975   .     S
Cu113  O141    1.987   .     S
Cu114  O155    1.957   .     S
Cu114  O149    1.987   .     S
Cu114  N140    2.051   .     S
Cu114  O153    1.959   .     S
Cu114  O151    1.975   .     S
H128   O142    1.013   .     S
H129   O144    1.010   .     S
H130   O146    1.009   .     S
H131   O148    1.011   .     S
C157   O219    1.310   .     A
C157   C175    1.484   .     S
C157   O229    1.317   .     A
C158   C174    1.407   .     A
C158   C182    1.483   .     S
C158   C4      1.402   1_655 S
C159   C174    1.409   .     A
C159   C183    1.481   .     S
C159   C34     1.401   1_655 S
C160   C175    1.423   .     A
C160   C184    1.483   .     S
C161   H193    1.082   .     S
C161   C172    1.404   .     A
C161   C165    1.390   .     A
C162   H204    1.082   .     S
C162   C173    1.406   .     A
C162   C166    1.391   .     A
C163   C167    1.390   .     A
C163   C173    1.405   .     A
C163   H210    1.082   .     S
C164   C169    1.391   .     A
C164   C172    1.404   .     A
C164   H211    1.082   .     S
C165   C170    1.401   .     A
C165   H212    1.078   .     S
C166   H213    1.083   .     S
C166   C171    1.399   .     A
C167   C171    1.399   .     A
C167   H214    1.081   .     S
C168   O228    1.314   .     A
C168   O227    1.311   .     A
C168   C174    1.481   .     S
C169   C170    1.404   .     A
C169   H215    1.082   .     S
C170   C179    1.469   .     S
C171   C185    1.456   .     S
C172   C875    1.476   1_554 S
C173   C874    1.476   .     S
C175   C190    1.418   .     A
C176   C186    1.518   .     S
C176   H216    1.082   .     S
C176   H195    1.107   .     S
C176   H194    1.110   .     S
C177   C187    1.518   .     S
C177   H197    1.107   .     S
C177   H196    1.083   .     S
C177   H198    1.110   .     S
C178   H200    1.110   .     S
C178   C188    1.519   .     S
C178   H201    1.104   .     S
C178   H199    1.087   .     S
C179   O233    1.309   .     A
C179   O230    1.314   .     A
C180   H205    1.103   .     S
C180   H203    1.101   .     S
C180   C189    1.515   .     S
C180   H202    1.094   .     S
C181   C190    1.484   .     S
C181   O234    1.223   .     D
C181   O220    1.395   .     S
C182   O221    1.223   .     D
C182   O222    1.393   .     S
C183   O224    1.399   .     S
C183   O223    1.221   .     D
C184   O225    1.223   .     D
C184   O226    1.397   .     S
C185   O232    1.309   .     A
C185   O231    1.307   .     A
C186   N218    1.384   .     A
C186   C657    1.439   1_545 S
C187   N217    1.385   .     A
C187   C422    1.438   .     S
C188   N218    1.380   .     A
C188   C655    1.438   1_545 S
C189   N217    1.381   .     A
C189   C420    1.439   .     S
Cu191  O230    1.959   .     S
Cu191  Cu192   2.729   .     S
Cu191  O232    1.957   .     S
Cu191  N217    2.051   .     S
Cu191  O228    1.975   .     S
Cu191  O219    1.987   .     S
Cu192  O233    1.957   .     S
Cu192  O227    1.987   .     S
Cu192  N218    2.051   .     S
Cu192  O231    1.959   .     S
Cu192  O229    1.975   .     S
H206   O220    1.013   .     S
H207   O222    1.010   .     S
H208   O224    1.009   .     S
H209   O226    1.011   .     S
C235   O297    1.310   .     A
C235   C253    1.484   .     S
C235   O307    1.317   .     A
C236   C252    1.407   .     A
C236   C260    1.483   .     S
C236   C316    1.402   .     S
C237   C252    1.409   .     A
C237   C261    1.481   .     S
C237   C346    1.401   .     S
C238   C253    1.423   .     A
C238   C262    1.483   .     S
C238   C392    1.402   1_455 S
C239   H271    1.082   .     S
C239   C250    1.404   .     A
C239   C243    1.390   .     A
C240   H282    1.082   .     S
C240   C251    1.406   .     A
C240   C244    1.391   .     A
C241   C245    1.390   .     A
C241   C251    1.405   .     A
C241   H288    1.082   .     S
C242   C247    1.391   .     A
C242   C250    1.404   .     A
C242   H289    1.082   .     S
C243   C248    1.401   .     A
C243   H290    1.078   .     S
C244   H291    1.083   .     S
C244   C249    1.399   .     A
C245   C249    1.399   .     A
C245   H292    1.081   .     S
C246   O306    1.314   .     A
C246   O305    1.311   .     A
C246   C252    1.481   .     S
C247   C248    1.404   .     A
C247   H293    1.082   .     S
C248   C257    1.469   .     S
C249   C263    1.456   .     S
C250   C953    1.476   1_554 S
C251   C952    1.476   .     S
C253   C268    1.418   .     A
C254   C264    1.518   .     S
C254   H294    1.082   .     S
C254   H273    1.107   .     S
C254   H272    1.110   .     S
C255   C265    1.518   .     S
C255   H275    1.107   .     S
C255   H274    1.083   .     S
C255   H276    1.110   .     S
C256   H278    1.110   .     S
C256   C266    1.519   .     S
C256   H279    1.104   .     S
C256   H277    1.087   .     S
C257   O311    1.309   .     A
C257   O308    1.314   .     A
C258   H283    1.103   .     S
C258   H281    1.101   .     S
C258   C267    1.515   .     S
C258   H280    1.094   .     S
C259   C268    1.484   .     S
C259   O312    1.223   .     D
C259   O298    1.395   .     S
C260   O299    1.223   .     D
C260   O300    1.393   .     S
C261   O302    1.399   .     S
C261   O301    1.221   .     D
C262   O303    1.223   .     D
C262   O304    1.397   .     S
C263   O310    1.309   .     A
C263   O309    1.307   .     A
C264   N296    1.384   .     A
C265   N295    1.385   .     A
C265   C500    1.438   .     S
C266   N296    1.380   .     A
C267   N295    1.381   .     A
C267   C498    1.439   .     S
C268   C393    1.401   1_455 S
Cu269  O308    1.959   .     S
Cu269  Cu270   2.729   .     S
Cu269  O310    1.957   .     S
Cu269  N295    2.051   .     S
Cu269  O306    1.975   .     S
Cu269  O297    1.987   .     S
Cu270  O311    1.957   .     S
Cu270  O305    1.987   .     S
Cu270  N296    2.051   .     S
Cu270  O309    1.959   .     S
Cu270  O307    1.975   .     S
H284   O298    1.013   .     S
H285   O300    1.010   .     S
H286   O302    1.009   .     S
H287   O304    1.011   .     S
C313   O375    1.310   .     A
C313   C331    1.484   .     S
C313   O385    1.317   .     A
C314   C330    1.407   .     A
C314   C338    1.483   .     S
C314   C394    1.402   .     S
C315   C330    1.409   .     A
C315   C339    1.481   .     S
C315   C424    1.401   .     S
C316   C331    1.423   .     A
C316   C340    1.483   .     S
C317   H349    1.082   .     S
C317   C328    1.404   .     A
C317   C321    1.390   .     A
C318   H360    1.082   .     S
C318   C329    1.406   .     A
C318   C322    1.391   .     A
C319   C323    1.390   .     A
C319   C329    1.405   .     A
C319   H366    1.082   .     S
C320   C325    1.391   .     A
C320   C328    1.404   .     A
C320   H367    1.082   .     S
C321   C326    1.401   .     A
C321   H368    1.078   .     S
C322   H369    1.083   .     S
C322   C327    1.399   .     A
C323   C327    1.399   .     A
C323   H370    1.081   .     S
C324   O384    1.314   .     A
C324   O383    1.311   .     A
C324   C330    1.481   .     S
C325   C326    1.404   .     A
C325   H371    1.082   .     S
C326   C335    1.469   .     S
C327   C341    1.456   .     S
C328   C1031   1.476   1_554 S
C329   C1030   1.476   .     S
C331   C346    1.418   .     A
C332   C342    1.518   .     S
C332   H372    1.082   .     S
C332   H351    1.107   .     S
C332   H350    1.110   .     S
C333   C343    1.518   .     S
C333   H353    1.107   .     S
C333   H352    1.083   .     S
C333   H354    1.110   .     S
C334   H356    1.110   .     S
C334   C344    1.519   .     S
C334   H357    1.104   .     S
C334   H355    1.087   .     S
C335   O389    1.309   .     A
C335   O386    1.314   .     A
C336   H361    1.103   .     S
C336   H359    1.101   .     S
C336   C345    1.515   .     S
C336   H358    1.094   .     S
C337   C346    1.484   .     S
C337   O390    1.223   .     D
C337   O376    1.395   .     S
C338   O377    1.223   .     D
C338   O378    1.393   .     S
C339   O380    1.399   .     S
C339   O379    1.221   .     D
C340   O381    1.223   .     D
C340   O382    1.397   .     S
C341   O388    1.309   .     A
C341   O387    1.307   .     A
C342   N374    1.384   .     A
C343   N373    1.385   .     A
C343   C578    1.438   .     S
C344   N374    1.380   .     A
C345   N373    1.381   .     A
C345   C576    1.439   .     S
Cu347  O386    1.959   .     S
Cu347  Cu348   2.729   .     S
Cu347  O388    1.957   .     S
Cu347  N373    2.051   .     S
Cu347  O384    1.975   .     S
Cu347  O375    1.987   .     S
Cu348  O389    1.957   .     S
Cu348  O383    1.987   .     S
Cu348  N374    2.051   .     S
Cu348  O387    1.959   .     S
Cu348  O385    1.975   .     S
H362   O376    1.013   .     S
H363   O378    1.010   .     S
H364   O380    1.009   .     S
H365   O382    1.011   .     S
C391   O453    1.310   .     A
C391   C409    1.484   .     S
C391   O463    1.317   .     A
C392   C408    1.407   .     A
C392   C416    1.483   .     S
C392   C238    1.402   1_655 S
C393   C408    1.409   .     A
C393   C417    1.481   .     S
C393   C268    1.401   1_655 S
C394   C409    1.423   .     A
C394   C418    1.483   .     S
C395   H427    1.082   .     S
C395   C406    1.404   .     A
C395   C399    1.390   .     A
C396   H438    1.082   .     S
C396   C407    1.406   .     A
C396   C400    1.391   .     A
C397   C401    1.390   .     A
C397   C407    1.405   .     A
C397   H444    1.082   .     S
C398   C403    1.391   .     A
C398   C406    1.404   .     A
C398   H445    1.082   .     S
C399   C404    1.401   .     A
C399   H446    1.078   .     S
C400   H447    1.083   .     S
C400   C405    1.399   .     A
C401   C405    1.399   .     A
C401   H448    1.081   .     S
C402   O462    1.314   .     A
C402   O461    1.311   .     A
C402   C408    1.481   .     S
C403   C404    1.404   .     A
C403   H449    1.082   .     S
C404   C413    1.469   .     S
C405   C419    1.456   .     S
C406   C1109   1.476   1_554 S
C407   C1108   1.476   .     S
C409   C424    1.418   .     A
C410   C420    1.518   .     S
C410   H450    1.082   .     S
C410   H429    1.107   .     S
C410   H428    1.110   .     S
C411   C421    1.518   .     S
C411   H431    1.107   .     S
C411   H430    1.083   .     S
C411   H432    1.110   .     S
C412   H434    1.110   .     S
C412   C422    1.519   .     S
C412   H435    1.104   .     S
C412   H433    1.087   .     S
C413   O467    1.309   .     A
C413   O464    1.314   .     A
C414   H439    1.103   .     S
C414   H437    1.101   .     S
C414   C423    1.515   .     S
C414   H436    1.094   .     S
C415   C424    1.484   .     S
C415   O468    1.223   .     D
C415   O454    1.395   .     S
C416   O455    1.223   .     D
C416   O456    1.393   .     S
C417   O458    1.399   .     S
C417   O457    1.221   .     D
C418   O459    1.223   .     D
C418   O460    1.397   .     S
C419   O466    1.309   .     A
C419   O465    1.307   .     A
C420   N452    1.384   .     A
C421   N451    1.385   .     A
C421   C656    1.438   .     S
C422   N452    1.380   .     A
C423   N451    1.381   .     A
C423   C654    1.439   .     S
Cu425  O464    1.959   .     S
Cu425  Cu426   2.729   .     S
Cu425  O466    1.957   .     S
Cu425  N451    2.051   .     S
Cu425  O462    1.975   .     S
Cu425  O453    1.987   .     S
Cu426  O467    1.957   .     S
Cu426  O461    1.987   .     S
Cu426  N452    2.051   .     S
Cu426  O465    1.959   .     S
Cu426  O463    1.975   .     S
H440   O454    1.013   .     S
H441   O456    1.010   .     S
H442   O458    1.009   .     S
H443   O460    1.011   .     S
C469   O531    1.310   .     A
C469   C487    1.484   .     S
C469   O541    1.317   .     A
C470   C486    1.407   .     A
C470   C494    1.483   .     S
C470   C550    1.402   .     S
C471   C486    1.409   .     A
C471   C495    1.481   .     S
C471   C580    1.401   .     S
C472   C487    1.423   .     A
C472   C496    1.483   .     S
C472   C626    1.402   1_455 S
C473   H505    1.082   .     S
C473   C484    1.404   .     A
C473   C477    1.390   .     A
C474   H516    1.082   .     S
C474   C485    1.406   .     A
C474   C478    1.391   .     A
C475   C479    1.390   .     A
C475   C485    1.405   .     A
C475   H522    1.082   .     S
C476   C481    1.391   .     A
C476   C484    1.404   .     A
C476   H523    1.082   .     S
C477   C482    1.401   .     A
C477   H524    1.078   .     S
C478   H525    1.083   .     S
C478   C483    1.399   .     A
C479   C483    1.399   .     A
C479   H526    1.081   .     S
C480   O540    1.314   .     A
C480   O539    1.311   .     A
C480   C486    1.481   .     S
C481   C482    1.404   .     A
C481   H527    1.082   .     S
C482   C491    1.469   .     S
C483   C497    1.456   .     S
C484   C1187   1.476   1_554 S
C485   C1186   1.476   .     S
C487   C502    1.418   .     A
C488   C498    1.518   .     S
C488   H528    1.082   .     S
C488   H507    1.107   .     S
C488   H506    1.110   .     S
C489   C499    1.518   .     S
C489   H509    1.107   .     S
C489   H508    1.083   .     S
C489   H510    1.110   .     S
C490   H512    1.110   .     S
C490   C500    1.519   .     S
C490   H513    1.104   .     S
C490   H511    1.087   .     S
C491   O545    1.309   .     A
C491   O542    1.314   .     A
C492   H517    1.103   .     S
C492   H515    1.101   .     S
C492   C501    1.515   .     S
C492   H514    1.094   .     S
C493   C502    1.484   .     S
C493   O546    1.223   .     D
C493   O532    1.395   .     S
C494   O533    1.223   .     D
C494   O534    1.393   .     S
C495   O536    1.399   .     S
C495   O535    1.221   .     D
C496   O537    1.223   .     D
C496   O538    1.397   .     S
C497   O544    1.309   .     A
C497   O543    1.307   .     A
C498   N530    1.384   .     A
C499   N529    1.385   .     A
C499   C32     1.438   1_565 S
C500   N530    1.380   .     A
C501   N529    1.381   .     A
C501   C30     1.439   1_565 S
C502   C627    1.401   1_455 S
Cu503  O542    1.959   .     S
Cu503  Cu504   2.729   .     S
Cu503  O544    1.957   .     S
Cu503  N529    2.051   .     S
Cu503  O540    1.975   .     S
Cu503  O531    1.987   .     S
Cu504  O545    1.957   .     S
Cu504  O539    1.987   .     S
Cu504  N530    2.051   .     S
Cu504  O543    1.959   .     S
Cu504  O541    1.975   .     S
H518   O532    1.013   .     S
H519   O534    1.010   .     S
H520   O536    1.009   .     S
H521   O538    1.011   .     S
C547   O609    1.310   .     A
C547   C565    1.484   .     S
C547   O619    1.317   .     A
C548   C564    1.407   .     A
C548   C572    1.483   .     S
C548   C628    1.402   .     S
C549   C564    1.409   .     A
C549   C573    1.481   .     S
C549   C658    1.401   .     S
C550   C565    1.423   .     A
C550   C574    1.483   .     S
C551   H583    1.082   .     S
C551   C562    1.404   .     A
C551   C555    1.390   .     A
C552   H594    1.082   .     S
C552   C563    1.406   .     A
C552   C556    1.391   .     A
C553   C557    1.390   .     A
C553   C563    1.405   .     A
C553   H600    1.082   .     S
C554   C559    1.391   .     A
C554   C562    1.404   .     A
C554   H601    1.082   .     S
C555   C560    1.401   .     A
C555   H602    1.078   .     S
C556   H603    1.083   .     S
C556   C561    1.399   .     A
C557   C561    1.399   .     A
C557   H604    1.081   .     S
C558   O618    1.314   .     A
C558   O617    1.311   .     A
C558   C564    1.481   .     S
C559   C560    1.404   .     A
C559   H605    1.082   .     S
C560   C569    1.469   .     S
C561   C575    1.456   .     S
C562   C1265   1.476   1_554 S
C563   C1264   1.476   .     S
C565   C580    1.418   .     A
C566   C576    1.518   .     S
C566   H606    1.082   .     S
C566   H585    1.107   .     S
C566   H584    1.110   .     S
C567   C577    1.518   .     S
C567   H587    1.107   .     S
C567   H586    1.083   .     S
C567   H588    1.110   .     S
C568   H590    1.110   .     S
C568   C578    1.519   .     S
C568   H591    1.104   .     S
C568   H589    1.087   .     S
C569   O623    1.309   .     A
C569   O620    1.314   .     A
C570   H595    1.103   .     S
C570   H593    1.101   .     S
C570   C579    1.515   .     S
C570   H592    1.094   .     S
C571   C580    1.484   .     S
C571   O624    1.223   .     D
C571   O610    1.395   .     S
C572   O611    1.223   .     D
C572   O612    1.393   .     S
C573   O614    1.399   .     S
C573   O613    1.221   .     D
C574   O615    1.223   .     D
C574   O616    1.397   .     S
C575   O622    1.309   .     A
C575   O621    1.307   .     A
C576   N608    1.384   .     A
C577   N607    1.385   .     A
C577   C110    1.438   1_565 S
C578   N608    1.380   .     A
C579   N607    1.381   .     A
C579   C108    1.439   1_565 S
Cu581  O620    1.959   .     S
Cu581  Cu582   2.729   .     S
Cu581  O622    1.957   .     S
Cu581  N607    2.051   .     S
Cu581  O618    1.975   .     S
Cu581  O609    1.987   .     S
Cu582  O623    1.957   .     S
Cu582  O617    1.987   .     S
Cu582  N608    2.051   .     S
Cu582  O621    1.959   .     S
Cu582  O619    1.975   .     S
H596   O610    1.013   .     S
H597   O612    1.010   .     S
H598   O614    1.009   .     S
H599   O616    1.011   .     S
C625   O687    1.310   .     A
C625   C643    1.484   .     S
C625   O697    1.317   .     A
C626   C642    1.407   .     A
C626   C650    1.483   .     S
C626   C472    1.402   1_655 S
C627   C642    1.409   .     A
C627   C651    1.481   .     S
C627   C502    1.401   1_655 S
C628   C643    1.423   .     A
C628   C652    1.483   .     S
C629   H661    1.082   .     S
C629   C640    1.404   .     A
C629   C633    1.390   .     A
C630   H672    1.082   .     S
C630   C641    1.406   .     A
C630   C634    1.391   .     A
C631   C635    1.390   .     A
C631   C641    1.405   .     A
C631   H678    1.082   .     S
C632   C637    1.391   .     A
C632   C640    1.404   .     A
C632   H679    1.082   .     S
C633   C638    1.401   .     A
C633   H680    1.078   .     S
C634   H681    1.083   .     S
C634   C639    1.399   .     A
C635   C639    1.399   .     A
C635   H682    1.081   .     S
C636   O696    1.314   .     A
C636   O695    1.311   .     A
C636   C642    1.481   .     S
C637   C638    1.404   .     A
C637   H683    1.082   .     S
C638   C647    1.469   .     S
C639   C653    1.456   .     S
C640   C1343   1.476   1_554 S
C641   C1342   1.476   .     S
C643   C658    1.418   .     A
C644   C654    1.518   .     S
C644   H684    1.082   .     S
C644   H663    1.107   .     S
C644   H662    1.110   .     S
C645   C655    1.518   .     S
C645   H665    1.107   .     S
C645   H664    1.083   .     S
C645   H666    1.110   .     S
C646   H668    1.110   .     S
C646   C656    1.519   .     S
C646   H669    1.104   .     S
C646   H667    1.087   .     S
C647   O701    1.309   .     A
C647   O698    1.314   .     A
C648   H673    1.103   .     S
C648   H671    1.101   .     S
C648   C657    1.515   .     S
C648   H670    1.094   .     S
C649   C658    1.484   .     S
C649   O702    1.223   .     D
C649   O688    1.395   .     S
C650   O689    1.223   .     D
C650   O690    1.393   .     S
C651   O692    1.399   .     S
C651   O691    1.221   .     D
C652   O693    1.223   .     D
C652   O694    1.397   .     S
C653   O700    1.309   .     A
C653   O699    1.307   .     A
C654   N686    1.384   .     A
C655   N685    1.385   .     A
C655   C188    1.438   1_565 S
C656   N686    1.380   .     A
C657   N685    1.381   .     A
C657   C186    1.439   1_565 S
Cu659  O698    1.959   .     S
Cu659  Cu660   2.729   .     S
Cu659  O700    1.957   .     S
Cu659  N685    2.051   .     S
Cu659  O696    1.975   .     S
Cu659  O687    1.987   .     S
Cu660  O701    1.957   .     S
Cu660  O695    1.987   .     S
Cu660  N686    2.051   .     S
Cu660  O699    1.959   .     S
Cu660  O697    1.975   .     S
H674   O688    1.013   .     S
H675   O690    1.010   .     S
H676   O692    1.009   .     S
H677   O694    1.011   .     S
C703   O765    1.310   .     A
C703   C721    1.484   .     S
C703   O775    1.317   .     A
C704   C720    1.407   .     A
C704   C728    1.483   .     S
C704   C784    1.402   .     S
C705   C720    1.409   .     A
C705   C729    1.481   .     S
C705   C814    1.401   .     S
C706   C721    1.423   .     A
C706   C730    1.483   .     S
C706   C860    1.402   1_455 S
C707   H739    1.082   .     S
C707   C718    1.404   .     A
C707   C711    1.390   .     A
C708   H750    1.082   .     S
C708   C719    1.406   .     A
C708   C712    1.391   .     A
C709   C713    1.390   .     A
C709   C719    1.405   .     A
C709   H756    1.082   .     S
C710   C715    1.391   .     A
C710   C718    1.404   .     A
C710   H757    1.082   .     S
C711   C716    1.401   .     A
C711   H758    1.078   .     S
C712   H759    1.083   .     S
C712   C717    1.399   .     A
C713   C717    1.399   .     A
C713   H760    1.081   .     S
C714   O774    1.314   .     A
C714   O773    1.311   .     A
C714   C720    1.481   .     S
C715   C716    1.404   .     A
C715   H761    1.082   .     S
C716   C725    1.469   .     S
C717   C731    1.456   .     S
C719   C16     1.476   1_556 S
C721   C736    1.418   .     A
C722   C732    1.518   .     S
C722   H762    1.082   .     S
C722   H741    1.107   .     S
C722   H740    1.110   .     S
C723   C733    1.518   .     S
C723   H743    1.107   .     S
C723   H742    1.083   .     S
C723   H744    1.110   .     S
C724   H746    1.110   .     S
C724   C734    1.519   .     S
C724   H747    1.104   .     S
C724   H745    1.087   .     S
C725   O779    1.309   .     A
C725   O776    1.314   .     A
C726   H751    1.103   .     S
C726   H749    1.101   .     S
C726   C735    1.515   .     S
C726   H748    1.094   .     S
C727   C736    1.484   .     S
C727   O780    1.223   .     D
C727   O766    1.395   .     S
C728   O767    1.223   .     D
C728   O768    1.393   .     S
C729   O770    1.399   .     S
C729   O769    1.221   .     D
C730   O771    1.223   .     D
C730   O772    1.397   .     S
C731   O778    1.309   .     A
C731   O777    1.307   .     A
C732   N764    1.384   .     A
C732   C1203   1.439   1_545 S
C733   N763    1.385   .     A
C733   C968    1.438   .     S
C734   N764    1.380   .     A
C734   C1201   1.438   1_545 S
C735   N763    1.381   .     A
C735   C966    1.439   .     S
C736   C861    1.401   1_455 S
Cu737  O776    1.959   .     S
Cu737  Cu738   2.729   .     S
Cu737  O778    1.957   .     S
Cu737  N763    2.051   .     S
Cu737  O774    1.975   .     S
Cu737  O765    1.987   .     S
Cu738  O779    1.957   .     S
Cu738  O773    1.987   .     S
Cu738  N764    2.051   .     S
Cu738  O777    1.959   .     S
Cu738  O775    1.975   .     S
H752   O766    1.013   .     S
H753   O768    1.010   .     S
H754   O770    1.009   .     S
H755   O772    1.011   .     S
C781   O843    1.310   .     A
C781   C799    1.484   .     S
C781   O853    1.317   .     A
C782   C798    1.407   .     A
C782   C806    1.483   .     S
C782   C862    1.402   .     S
C783   C798    1.409   .     A
C783   C807    1.481   .     S
C783   C892    1.401   .     S
C784   C799    1.423   .     A
C784   C808    1.483   .     S
C785   H817    1.082   .     S
C785   C796    1.404   .     A
C785   C789    1.390   .     A
C786   H828    1.082   .     S
C786   C797    1.406   .     A
C786   C790    1.391   .     A
C787   C791    1.390   .     A
C787   C797    1.405   .     A
C787   H834    1.082   .     S
C788   C793    1.391   .     A
C788   C796    1.404   .     A
C788   H835    1.082   .     S
C789   C794    1.401   .     A
C789   H836    1.078   .     S
C790   H837    1.083   .     S
C790   C795    1.399   .     A
C791   C795    1.399   .     A
C791   H838    1.081   .     S
C792   O852    1.314   .     A
C792   O851    1.311   .     A
C792   C798    1.481   .     S
C793   C794    1.404   .     A
C793   H839    1.082   .     S
C794   C803    1.469   .     S
C795   C809    1.456   .     S
C797   C94     1.476   1_556 S
C799   C814    1.418   .     A
C800   C810    1.518   .     S
C800   H840    1.082   .     S
C800   H819    1.107   .     S
C800   H818    1.110   .     S
C801   C811    1.518   .     S
C801   H821    1.107   .     S
C801   H820    1.083   .     S
C801   H822    1.110   .     S
C802   H824    1.110   .     S
C802   C812    1.519   .     S
C802   H825    1.104   .     S
C802   H823    1.087   .     S
C803   O857    1.309   .     A
C803   O854    1.314   .     A
C804   H829    1.103   .     S
C804   H827    1.101   .     S
C804   C813    1.515   .     S
C804   H826    1.094   .     S
C805   C814    1.484   .     S
C805   O858    1.223   .     D
C805   O844    1.395   .     S
C806   O845    1.223   .     D
C806   O846    1.393   .     S
C807   O848    1.399   .     S
C807   O847    1.221   .     D
C808   O849    1.223   .     D
C808   O850    1.397   .     S
C809   O856    1.309   .     A
C809   O855    1.307   .     A
C810   N842    1.384   .     A
C810   C1281   1.439   1_545 S
C811   N841    1.385   .     A
C811   C1046   1.438   .     S
C812   N842    1.380   .     A
C812   C1279   1.438   1_545 S
C813   N841    1.381   .     A
C813   C1044   1.439   .     S
Cu815  O854    1.959   .     S
Cu815  Cu816   2.729   .     S
Cu815  O856    1.957   .     S
Cu815  N841    2.051   .     S
Cu815  O852    1.975   .     S
Cu815  O843    1.987   .     S
Cu816  O857    1.957   .     S
Cu816  O851    1.987   .     S
Cu816  N842    2.051   .     S
Cu816  O855    1.959   .     S
Cu816  O853    1.975   .     S
H830   O844    1.013   .     S
H831   O846    1.010   .     S
H832   O848    1.009   .     S
H833   O850    1.011   .     S
C859   O921    1.310   .     A
C859   C877    1.484   .     S
C859   O931    1.317   .     A
C860   C876    1.407   .     A
C860   C884    1.483   .     S
C860   C706    1.402   1_655 S
C861   C876    1.409   .     A
C861   C885    1.481   .     S
C861   C736    1.401   1_655 S
C862   C877    1.423   .     A
C862   C886    1.483   .     S
C863   H895    1.082   .     S
C863   C874    1.404   .     A
C863   C867    1.390   .     A
C864   H906    1.082   .     S
C864   C875    1.406   .     A
C864   C868    1.391   .     A
C865   C869    1.390   .     A
C865   C875    1.405   .     A
C865   H912    1.082   .     S
C866   C871    1.391   .     A
C866   C874    1.404   .     A
C866   H913    1.082   .     S
C867   C872    1.401   .     A
C867   H914    1.078   .     S
C868   H915    1.083   .     S
C868   C873    1.399   .     A
C869   C873    1.399   .     A
C869   H916    1.081   .     S
C870   O930    1.314   .     A
C870   O929    1.311   .     A
C870   C876    1.481   .     S
C871   C872    1.404   .     A
C871   H917    1.082   .     S
C872   C881    1.469   .     S
C873   C887    1.456   .     S
C875   C172    1.476   1_556 S
C877   C892    1.418   .     A
C878   C888    1.518   .     S
C878   H918    1.082   .     S
C878   H897    1.107   .     S
C878   H896    1.110   .     S
C879   C889    1.518   .     S
C879   H899    1.107   .     S
C879   H898    1.083   .     S
C879   H900    1.110   .     S
C880   H902    1.110   .     S
C880   C890    1.519   .     S
C880   H903    1.104   .     S
C880   H901    1.087   .     S
C881   O935    1.309   .     A
C881   O932    1.314   .     A
C882   H907    1.103   .     S
C882   H905    1.101   .     S
C882   C891    1.515   .     S
C882   H904    1.094   .     S
C883   C892    1.484   .     S
C883   O936    1.223   .     D
C883   O922    1.395   .     S
C884   O923    1.223   .     D
C884   O924    1.393   .     S
C885   O926    1.399   .     S
C885   O925    1.221   .     D
C886   O927    1.223   .     D
C886   O928    1.397   .     S
C887   O934    1.309   .     A
C887   O933    1.307   .     A
C888   N920    1.384   .     A
C888   C1359   1.439   1_545 S
C889   N919    1.385   .     A
C889   C1124   1.438   .     S
C890   N920    1.380   .     A
C890   C1357   1.438   1_545 S
C891   N919    1.381   .     A
C891   C1122   1.439   .     S
Cu893  O932    1.959   .     S
Cu893  Cu894   2.729   .     S
Cu893  O934    1.957   .     S
Cu893  N919    2.051   .     S
Cu893  O930    1.975   .     S
Cu893  O921    1.987   .     S
Cu894  O935    1.957   .     S
Cu894  O929    1.987   .     S
Cu894  N920    2.051   .     S
Cu894  O933    1.959   .     S
Cu894  O931    1.975   .     S
H908   O922    1.013   .     S
H909   O924    1.010   .     S
H910   O926    1.009   .     S
H911   O928    1.011   .     S
C937   O999    1.310   .     A
C937   C955    1.484   .     S
C937   O1009   1.317   .     A
C938   C954    1.407   .     A
C938   C962    1.483   .     S
C938   C1018   1.402   .     S
C939   C954    1.409   .     A
C939   C963    1.481   .     S
C939   C1048   1.401   .     S
C940   C955    1.423   .     A
C940   C964    1.483   .     S
C940   C1094   1.402   1_455 S
C941   H973    1.082   .     S
C941   C952    1.404   .     A
C941   C945    1.390   .     A
C942   H984    1.082   .     S
C942   C953    1.406   .     A
C942   C946    1.391   .     A
C943   C947    1.390   .     A
C943   C953    1.405   .     A
C943   H990    1.082   .     S
C944   C949    1.391   .     A
C944   C952    1.404   .     A
C944   H991    1.082   .     S
C945   C950    1.401   .     A
C945   H992    1.078   .     S
C946   H993    1.083   .     S
C946   C951    1.399   .     A
C947   C951    1.399   .     A
C947   H994    1.081   .     S
C948   O1008   1.314   .     A
C948   O1007   1.311   .     A
C948   C954    1.481   .     S
C949   C950    1.404   .     A
C949   H995    1.082   .     S
C950   C959    1.469   .     S
C951   C965    1.456   .     S
C953   C250    1.476   1_556 S
C955   C970    1.418   .     A
C956   C966    1.518   .     S
C956   H996    1.082   .     S
C956   H975    1.107   .     S
C956   H974    1.110   .     S
C957   C967    1.518   .     S
C957   H977    1.107   .     S
C957   H976    1.083   .     S
C957   H978    1.110   .     S
C958   H980    1.110   .     S
C958   C968    1.519   .     S
C958   H981    1.104   .     S
C958   H979    1.087   .     S
C959   O1013   1.309   .     A
C959   O1010   1.314   .     A
C960   H985    1.103   .     S
C960   H983    1.101   .     S
C960   C969    1.515   .     S
C960   H982    1.094   .     S
C961   C970    1.484   .     S
C961   O1014   1.223   .     D
C961   O1000   1.395   .     S
C962   O1001   1.223   .     D
C962   O1002   1.393   .     S
C963   O1004   1.399   .     S
C963   O1003   1.221   .     D
C964   O1005   1.223   .     D
C964   O1006   1.397   .     S
C965   O1012   1.309   .     A
C965   O1011   1.307   .     A
C966   N998    1.384   .     A
C967   N997    1.385   .     A
C967   C1202   1.438   .     S
C968   N998    1.380   .     A
C969   N997    1.381   .     A
C969   C1200   1.439   .     S
C970   C1095   1.401   1_455 S
Cu971  O1010   1.959   .     S
Cu971  Cu972   2.729   .     S
Cu971  O1012   1.957   .     S
Cu971  N997    2.051   .     S
Cu971  O1008   1.975   .     S
Cu971  O999    1.987   .     S
Cu972  O1013   1.957   .     S
Cu972  O1007   1.987   .     S
Cu972  N998    2.051   .     S
Cu972  O1011   1.959   .     S
Cu972  O1009   1.975   .     S
H986   O1000   1.013   .     S
H987   O1002   1.010   .     S
H988   O1004   1.009   .     S
H989   O1006   1.011   .     S
C1015  O1077   1.310   .     A
C1015  C1033   1.484   .     S
C1015  O1087   1.317   .     A
C1016  C1032   1.407   .     A
C1016  C1040   1.483   .     S
C1016  C1096   1.402   .     S
C1017  C1032   1.409   .     A
C1017  C1041   1.481   .     S
C1017  C1126   1.401   .     S
C1018  C1033   1.423   .     A
C1018  C1042   1.483   .     S
C1019  H1051   1.082   .     S
C1019  C1030   1.404   .     A
C1019  C1023   1.390   .     A
C1020  H1062   1.082   .     S
C1020  C1031   1.406   .     A
C1020  C1024   1.391   .     A
C1021  C1025   1.390   .     A
C1021  C1031   1.405   .     A
C1021  H1068   1.082   .     S
C1022  C1027   1.391   .     A
C1022  C1030   1.404   .     A
C1022  H1069   1.082   .     S
C1023  C1028   1.401   .     A
C1023  H1070   1.078   .     S
C1024  H1071   1.083   .     S
C1024  C1029   1.399   .     A
C1025  C1029   1.399   .     A
C1025  H1072   1.081   .     S
C1026  O1086   1.314   .     A
C1026  O1085   1.311   .     A
C1026  C1032   1.481   .     S
C1027  C1028   1.404   .     A
C1027  H1073   1.082   .     S
C1028  C1037   1.469   .     S
C1029  C1043   1.456   .     S
C1031  C328    1.476   1_556 S
C1033  C1048   1.418   .     A
C1034  C1044   1.518   .     S
C1034  H1074   1.082   .     S
C1034  H1053   1.107   .     S
C1034  H1052   1.110   .     S
C1035  C1045   1.518   .     S
C1035  H1055   1.107   .     S
C1035  H1054   1.083   .     S
C1035  H1056   1.110   .     S
C1036  H1058   1.110   .     S
C1036  C1046   1.519   .     S
C1036  H1059   1.104   .     S
C1036  H1057   1.087   .     S
C1037  O1091   1.309   .     A
C1037  O1088   1.314   .     A
C1038  H1063   1.103   .     S
C1038  H1061   1.101   .     S
C1038  C1047   1.515   .     S
C1038  H1060   1.094   .     S
C1039  C1048   1.484   .     S
C1039  O1092   1.223   .     D
C1039  O1078   1.395   .     S
C1040  O1079   1.223   .     D
C1040  O1080   1.393   .     S
C1041  O1082   1.399   .     S
C1041  O1081   1.221   .     D
C1042  O1083   1.223   .     D
C1042  O1084   1.397   .     S
C1043  O1090   1.309   .     A
C1043  O1089   1.307   .     A
C1044  N1076   1.384   .     A
C1045  N1075   1.385   .     A
C1045  C1280   1.438   .     S
C1046  N1076   1.380   .     A
C1047  N1075   1.381   .     A
C1047  C1278   1.439   .     S
Cu1049 O1088   1.959   .     S
Cu1049 Cu1050  2.729   .     S
Cu1049 O1090   1.957   .     S
Cu1049 N1075   2.051   .     S
Cu1049 O1086   1.975   .     S
Cu1049 O1077   1.987   .     S
Cu1050 O1091   1.957   .     S
Cu1050 O1085   1.987   .     S
Cu1050 N1076   2.051   .     S
Cu1050 O1089   1.959   .     S
Cu1050 O1087   1.975   .     S
H1064  O1078   1.013   .     S
H1065  O1080   1.010   .     S
H1066  O1082   1.009   .     S
H1067  O1084   1.011   .     S
C1093  O1155   1.310   .     A
C1093  C1111   1.484   .     S
C1093  O1165   1.317   .     A
C1094  C1110   1.407   .     A
C1094  C1118   1.483   .     S
C1094  C940    1.402   1_655 S
C1095  C1110   1.409   .     A
C1095  C1119   1.481   .     S
C1095  C970    1.401   1_655 S
C1096  C1111   1.423   .     A
C1096  C1120   1.483   .     S
C1097  H1129   1.082   .     S
C1097  C1108   1.404   .     A
C1097  C1101   1.390   .     A
C1098  H1140   1.082   .     S
C1098  C1109   1.406   .     A
C1098  C1102   1.391   .     A
C1099  C1103   1.390   .     A
C1099  C1109   1.405   .     A
C1099  H1146   1.082   .     S
C1100  C1105   1.391   .     A
C1100  C1108   1.404   .     A
C1100  H1147   1.082   .     S
C1101  C1106   1.401   .     A
C1101  H1148   1.078   .     S
C1102  H1149   1.083   .     S
C1102  C1107   1.399   .     A
C1103  C1107   1.399   .     A
C1103  H1150   1.081   .     S
C1104  O1164   1.314   .     A
C1104  O1163   1.311   .     A
C1104  C1110   1.481   .     S
C1105  C1106   1.404   .     A
C1105  H1151   1.082   .     S
C1106  C1115   1.469   .     S
C1107  C1121   1.456   .     S
C1109  C406    1.476   1_556 S
C1111  C1126   1.418   .     A
C1112  C1122   1.518   .     S
C1112  H1152   1.082   .     S
C1112  H1131   1.107   .     S
C1112  H1130   1.110   .     S
C1113  C1123   1.518   .     S
C1113  H1133   1.107   .     S
C1113  H1132   1.083   .     S
C1113  H1134   1.110   .     S
C1114  H1136   1.110   .     S
C1114  C1124   1.519   .     S
C1114  H1137   1.104   .     S
C1114  H1135   1.087   .     S
C1115  O1169   1.309   .     A
C1115  O1166   1.314   .     A
C1116  H1141   1.103   .     S
C1116  H1139   1.101   .     S
C1116  C1125   1.515   .     S
C1116  H1138   1.094   .     S
C1117  C1126   1.484   .     S
C1117  O1170   1.223   .     D
C1117  O1156   1.395   .     S
C1118  O1157   1.223   .     D
C1118  O1158   1.393   .     S
C1119  O1160   1.399   .     S
C1119  O1159   1.221   .     D
C1120  O1161   1.223   .     D
C1120  O1162   1.397   .     S
C1121  O1168   1.309   .     A
C1121  O1167   1.307   .     A
C1122  N1154   1.384   .     A
C1123  N1153   1.385   .     A
C1123  C1358   1.438   .     S
C1124  N1154   1.380   .     A
C1125  N1153   1.381   .     A
C1125  C1356   1.439   .     S
Cu1127 O1166   1.959   .     S
Cu1127 Cu1128  2.729   .     S
Cu1127 O1168   1.957   .     S
Cu1127 N1153   2.051   .     S
Cu1127 O1164   1.975   .     S
Cu1127 O1155   1.987   .     S
Cu1128 O1169   1.957   .     S
Cu1128 O1163   1.987   .     S
Cu1128 N1154   2.051   .     S
Cu1128 O1167   1.959   .     S
Cu1128 O1165   1.975   .     S
H1142  O1156   1.013   .     S
H1143  O1158   1.010   .     S
H1144  O1160   1.009   .     S
H1145  O1162   1.011   .     S
C1171  O1233   1.310   .     A
C1171  C1189   1.484   .     S
C1171  O1243   1.317   .     A
C1172  C1188   1.407   .     A
C1172  C1196   1.483   .     S
C1172  C1252   1.402   .     S
C1173  C1188   1.409   .     A
C1173  C1197   1.481   .     S
C1173  C1282   1.401   .     S
C1174  C1189   1.423   .     A
C1174  C1198   1.483   .     S
C1174  C1328   1.402   1_455 S
C1175  H1207   1.082   .     S
C1175  C1186   1.404   .     A
C1175  C1179   1.390   .     A
C1176  H1218   1.082   .     S
C1176  C1187   1.406   .     A
C1176  C1180   1.391   .     A
C1177  C1181   1.390   .     A
C1177  C1187   1.405   .     A
C1177  H1224   1.082   .     S
C1178  C1183   1.391   .     A
C1178  C1186   1.404   .     A
C1178  H1225   1.082   .     S
C1179  C1184   1.401   .     A
C1179  H1226   1.078   .     S
C1180  H1227   1.083   .     S
C1180  C1185   1.399   .     A
C1181  C1185   1.399   .     A
C1181  H1228   1.081   .     S
C1182  O1242   1.314   .     A
C1182  O1241   1.311   .     A
C1182  C1188   1.481   .     S
C1183  C1184   1.404   .     A
C1183  H1229   1.082   .     S
C1184  C1193   1.469   .     S
C1185  C1199   1.456   .     S
C1187  C484    1.476   1_556 S
C1189  C1204   1.418   .     A
C1190  C1200   1.518   .     S
C1190  H1230   1.082   .     S
C1190  H1209   1.107   .     S
C1190  H1208   1.110   .     S
C1191  C1201   1.518   .     S
C1191  H1211   1.107   .     S
C1191  H1210   1.083   .     S
C1191  H1212   1.110   .     S
C1192  H1214   1.110   .     S
C1192  C1202   1.519   .     S
C1192  H1215   1.104   .     S
C1192  H1213   1.087   .     S
C1193  O1247   1.309   .     A
C1193  O1244   1.314   .     A
C1194  H1219   1.103   .     S
C1194  H1217   1.101   .     S
C1194  C1203   1.515   .     S
C1194  H1216   1.094   .     S
C1195  C1204   1.484   .     S
C1195  O1248   1.223   .     D
C1195  O1234   1.395   .     S
C1196  O1235   1.223   .     D
C1196  O1236   1.393   .     S
C1197  O1238   1.399   .     S
C1197  O1237   1.221   .     D
C1198  O1239   1.223   .     D
C1198  O1240   1.397   .     S
C1199  O1246   1.309   .     A
C1199  O1245   1.307   .     A
C1200  N1232   1.384   .     A
C1201  N1231   1.385   .     A
C1201  C734    1.438   1_565 S
C1202  N1232   1.380   .     A
C1203  N1231   1.381   .     A
C1203  C732    1.439   1_565 S
C1204  C1329   1.401   1_455 S
Cu1205 O1244   1.959   .     S
Cu1205 Cu1206  2.729   .     S
Cu1205 O1246   1.957   .     S
Cu1205 N1231   2.051   .     S
Cu1205 O1242   1.975   .     S
Cu1205 O1233   1.987   .     S
Cu1206 O1247   1.957   .     S
Cu1206 O1241   1.987   .     S
Cu1206 N1232   2.051   .     S
Cu1206 O1245   1.959   .     S
Cu1206 O1243   1.975   .     S
H1220  O1234   1.013   .     S
H1221  O1236   1.010   .     S
H1222  O1238   1.009   .     S
H1223  O1240   1.011   .     S
C1249  O1311   1.310   .     A
C1249  C1267   1.484   .     S
C1249  O1321   1.317   .     A
C1250  C1266   1.407   .     A
C1250  C1274   1.483   .     S
C1250  C1330   1.402   .     S
C1251  C1266   1.409   .     A
C1251  C1275   1.481   .     S
C1251  C1360   1.401   .     S
C1252  C1267   1.423   .     A
C1252  C1276   1.483   .     S
C1253  H1285   1.082   .     S
C1253  C1264   1.404   .     A
C1253  C1257   1.390   .     A
C1254  H1296   1.082   .     S
C1254  C1265   1.406   .     A
C1254  C1258   1.391   .     A
C1255  C1259   1.390   .     A
C1255  C1265   1.405   .     A
C1255  H1302   1.082   .     S
C1256  C1261   1.391   .     A
C1256  C1264   1.404   .     A
C1256  H1303   1.082   .     S
C1257  C1262   1.401   .     A
C1257  H1304   1.078   .     S
C1258  H1305   1.083   .     S
C1258  C1263   1.399   .     A
C1259  C1263   1.399   .     A
C1259  H1306   1.081   .     S
C1260  O1320   1.314   .     A
C1260  O1319   1.311   .     A
C1260  C1266   1.481   .     S
C1261  C1262   1.404   .     A
C1261  H1307   1.082   .     S
C1262  C1271   1.469   .     S
C1263  C1277   1.456   .     S
C1265  C562    1.476   1_556 S
C1267  C1282   1.418   .     A
C1268  C1278   1.518   .     S
C1268  H1308   1.082   .     S
C1268  H1287   1.107   .     S
C1268  H1286   1.110   .     S
C1269  C1279   1.518   .     S
C1269  H1289   1.107   .     S
C1269  H1288   1.083   .     S
C1269  H1290   1.110   .     S
C1270  H1292   1.110   .     S
C1270  C1280   1.519   .     S
C1270  H1293   1.104   .     S
C1270  H1291   1.087   .     S
C1271  O1325   1.309   .     A
C1271  O1322   1.314   .     A
C1272  H1297   1.103   .     S
C1272  H1295   1.101   .     S
C1272  C1281   1.515   .     S
C1272  H1294   1.094   .     S
C1273  C1282   1.484   .     S
C1273  O1326   1.223   .     D
C1273  O1312   1.395   .     S
C1274  O1313   1.223   .     D
C1274  O1314   1.393   .     S
C1275  O1316   1.399   .     S
C1275  O1315   1.221   .     D
C1276  O1317   1.223   .     D
C1276  O1318   1.397   .     S
C1277  O1324   1.309   .     A
C1277  O1323   1.307   .     A
C1278  N1310   1.384   .     A
C1279  N1309   1.385   .     A
C1279  C812    1.438   1_565 S
C1280  N1310   1.380   .     A
C1281  N1309   1.381   .     A
C1281  C810    1.439   1_565 S
Cu1283 O1322   1.959   .     S
Cu1283 Cu1284  2.729   .     S
Cu1283 O1324   1.957   .     S
Cu1283 N1309   2.051   .     S
Cu1283 O1320   1.975   .     S
Cu1283 O1311   1.987   .     S
Cu1284 O1325   1.957   .     S
Cu1284 O1319   1.987   .     S
Cu1284 N1310   2.051   .     S
Cu1284 O1323   1.959   .     S
Cu1284 O1321   1.975   .     S
H1298  O1312   1.013   .     S
H1299  O1314   1.010   .     S
H1300  O1316   1.009   .     S
H1301  O1318   1.011   .     S
C1327  O1389   1.310   .     A
C1327  C1345   1.484   .     S
C1327  O1399   1.317   .     A
C1328  C1344   1.407   .     A
C1328  C1352   1.483   .     S
C1328  C1174   1.402   1_655 S
C1329  C1344   1.409   .     A
C1329  C1353   1.481   .     S
C1329  C1204   1.401   1_655 S
C1330  C1345   1.423   .     A
C1330  C1354   1.483   .     S
C1331  H1363   1.082   .     S
C1331  C1342   1.404   .     A
C1331  C1335   1.390   .     A
C1332  H1374   1.082   .     S
C1332  C1343   1.406   .     A
C1332  C1336   1.391   .     A
C1333  C1337   1.390   .     A
C1333  C1343   1.405   .     A
C1333  H1380   1.082   .     S
C1334  C1339   1.391   .     A
C1334  C1342   1.404   .     A
C1334  H1381   1.082   .     S
C1335  C1340   1.401   .     A
C1335  H1382   1.078   .     S
C1336  H1383   1.083   .     S
C1336  C1341   1.399   .     A
C1337  C1341   1.399   .     A
C1337  H1384   1.081   .     S
C1338  O1398   1.314   .     A
C1338  O1397   1.311   .     A
C1338  C1344   1.481   .     S
C1339  C1340   1.404   .     A
C1339  H1385   1.082   .     S
C1340  C1349   1.469   .     S
C1341  C1355   1.456   .     S
C1343  C640    1.476   1_556 S
C1345  C1360   1.418   .     A
C1346  C1356   1.518   .     S
C1346  H1386   1.082   .     S
C1346  H1365   1.107   .     S
C1346  H1364   1.110   .     S
C1347  C1357   1.518   .     S
C1347  H1367   1.107   .     S
C1347  H1366   1.083   .     S
C1347  H1368   1.110   .     S
C1348  H1370   1.110   .     S
C1348  C1358   1.519   .     S
C1348  H1371   1.104   .     S
C1348  H1369   1.087   .     S
C1349  O1403   1.309   .     A
C1349  O1400   1.314   .     A
C1350  H1375   1.103   .     S
C1350  H1373   1.101   .     S
C1350  C1359   1.515   .     S
C1350  H1372   1.094   .     S
C1351  C1360   1.484   .     S
C1351  O1404   1.223   .     D
C1351  O1390   1.395   .     S
C1352  O1391   1.223   .     D
C1352  O1392   1.393   .     S
C1353  O1394   1.399   .     S
C1353  O1393   1.221   .     D
C1354  O1395   1.223   .     D
C1354  O1396   1.397   .     S
C1355  O1402   1.309   .     A
C1355  O1401   1.307   .     A
C1356  N1388   1.384   .     A
C1357  N1387   1.385   .     A
C1357  C890    1.438   1_565 S
C1358  N1388   1.380   .     A
C1359  N1387   1.381   .     A
C1359  C888    1.439   1_565 S
Cu1361 O1400   1.959   .     S
Cu1361 Cu1362  2.729   .     S
Cu1361 O1402   1.957   .     S
Cu1361 N1387   2.051   .     S
Cu1361 O1398   1.975   .     S
Cu1361 O1389   1.987   .     S
Cu1362 O1403   1.957   .     S
Cu1362 O1397   1.987   .     S
Cu1362 N1388   2.051   .     S
Cu1362 O1401   1.959   .     S
Cu1362 O1399   1.975   .     S
H1376  O1390   1.013   .     S
H1377  O1392   1.010   .     S
H1378  O1394   1.009   .     S
H1379  O1396   1.011   .     S
