data_str_m3_o1_o18_pcu_sym.234
_audit_creation_date              2020-01-03
_audit_creation_method            'Materials Studio'
_symmetry_space_group_name_H-M    'P1'
_symmetry_Int_Tables_number       1
_symmetry_cell_setting            triclinic
loop_
_symmetry_equiv_pos_as_xyz
  x,y,z
_cell_length_a                    30.0000
_cell_length_b                    32.2594
_cell_length_c                    30.9132
_cell_angle_alpha                 92.7062
_cell_angle_beta                  66.4663
_cell_angle_gamma                 89.9225
loop_
_atom_site_label
_atom_site_type_symbol
_atom_site_fract_x
_atom_site_fract_y
_atom_site_fract_z
_atom_site_U_iso_or_equiv
_atom_site_adp_type
_atom_site_occupancy
C1     C     0.16754   0.24645   0.24831   0.00000  Uiso   1.00
C2     C     0.16580   0.08688   0.25169   0.00000  Uiso   1.00
C3     C     0.11238   0.18314   0.05353   0.00000  Uiso   1.00
C4     C     0.22096   0.15019   0.44647   0.00000  Uiso   1.00
C5     C     0.07893   0.19288   0.03469   0.00000  Uiso   1.00
C6     C     0.25440   0.14045   0.46531   0.00000  Uiso   1.00
C7     C     0.21210   0.31233   0.23319   0.00000  Uiso   1.00
C8     C     0.12123   0.02100   0.26681   0.00000  Uiso   1.00
C9     C     0.20973   0.02150   0.23696   0.00000  Uiso   1.00
C10    C     0.12360   0.31184   0.26304   0.00000  Uiso   1.00
C11    C     0.16503   0.04268   0.25271   0.00000  Uiso   1.00
C12    C     0.16831   0.29066   0.24729   0.00000  Uiso   1.00
C13    C     0.32211   0.14059   0.21947   0.00000  Uiso   1.00
C14    C     0.01122   0.19275   0.28053   0.00000  Uiso   1.00
C15    C     0.03642   0.14036   0.21951   0.00000  Uiso   1.00
C16    C     0.29691   0.19297   0.28048   0.00000  Uiso   1.00
C17    C     0.13581   0.16636   0.33815   0.00000  Uiso   1.00
C18    C     0.19752   0.16697   0.16185   0.00000  Uiso   1.00
C19    C     0.11595   0.16785   0.38974   0.00000  Uiso   1.00
C20    C     0.21738   0.16548   0.11026   0.00000  Uiso   1.00
C21    C     0.05998   0.19777   0.46514   0.00000  Uiso   1.00
C22    C     0.27335   0.13557   0.03486   0.00000  Uiso   1.00
C23    C     0.07396   0.19128   0.41670   0.00000  Uiso   1.00
C24    C     0.25937   0.14206   0.08330   0.00000  Uiso   1.00
C25    C     0.14324   0.15011   0.41187   0.00000  Uiso   1.00
C26    C     0.19010   0.18322   0.08813   0.00000  Uiso   1.00
C27    C     0.13616   0.16504   0.45778   0.00000  Uiso   1.00
C28    C     0.19717   0.16829   0.04222   0.00000  Uiso   1.00
C29    C     0.09127   0.18555   0.48616   0.00000  Uiso   1.00
C30    C     0.24206   0.14778   0.01384   0.00000  Uiso   1.00
C31    C     0.17253   0.16144   0.47585   0.00000  Uiso   1.00
C32    C     0.16081   0.17189   0.02415   0.00000  Uiso   1.00
H33    H     0.28169   0.12906   0.09931   0.00000  Uiso   1.00
H34    H     0.05164   0.20427   0.40069   0.00000  Uiso   1.00
H35    H     0.02609   0.21439   0.48510   0.00000  Uiso   1.00
H36    H     0.30724   0.11894   0.01490   0.00000  Uiso   1.00
H37    H     0.09997   0.18497   0.09149   0.00000  Uiso   1.00
H38    H     0.23336   0.14836   0.40851   0.00000  Uiso   1.00
H39    H     0.24342   0.03786   0.22652   0.00000  Uiso   1.00
H40    H     0.08992   0.29547   0.27348   0.00000  Uiso   1.00
N41    N     0.04759   0.16668   0.25001   0.00000  Uiso   1.00
N42    N     0.28574   0.16666   0.24999   0.00000  Uiso   1.00
O43    O     0.12846   0.22775   0.25000   0.00000  Uiso   1.00
O44    O     0.20488   0.10558   0.24999   0.00000  Uiso   1.00
O45    O     0.20490   0.22774   0.25000   0.00000  Uiso   1.00
O46    O     0.12843   0.10559   0.25000   0.00000  Uiso   1.00
O47    O     0.10661   0.16667   0.31612   0.00000  Uiso   1.00
O48    O     0.22672   0.16666   0.18387   0.00000  Uiso   1.00
O49    O     0.18305   0.16666   0.31612   0.00000  Uiso   1.00
O50    O     0.15028   0.16667   0.18388   0.00000  Uiso   1.00
Zn51   Zn    0.11562   0.16667   0.25000   0.00000  Uiso   1.00
Zn52   Zn    0.21771   0.16666   0.25000   0.00000  Uiso   1.00
I53    I     0.01098   0.21855   0.08250   0.00000  Uiso   1.00
I54    I     0.32236   0.11478   0.41750   0.00000  Uiso   1.00
I55    I     0.15425   0.24196   0.11806   0.00000  Uiso   1.00
I56    I     0.17909   0.09137   0.38194   0.00000  Uiso   1.00
I57    I     0.28405   0.28622   0.20237   0.00000  Uiso   1.00
I58    I     0.04929   0.04712   0.29763   0.00000  Uiso   1.00
I59    I     0.30791   0.10003   0.17071   0.00000  Uiso   1.00
I60    I     0.02542   0.23330   0.32929   0.00000  Uiso   1.00
I61    I     0.09004   0.09751   0.17138   0.00000  Uiso   1.00
I62    I     0.24329   0.23583   0.32862   0.00000  Uiso   1.00
C63    C     0.50087   0.24645   0.24831   0.00000  Uiso   1.00
C64    C     0.49913   0.08688   0.25169   0.00000  Uiso   1.00
C65    C     0.44571   0.18314   0.05353   0.00000  Uiso   1.00
C66    C     0.55429   0.15019   0.44647   0.00000  Uiso   1.00
C67    C     0.41226   0.19288   0.03469   0.00000  Uiso   1.00
C68    C     0.58774   0.14045   0.46531   0.00000  Uiso   1.00
C69    C     0.54543   0.31233   0.23319   0.00000  Uiso   1.00
C70    C     0.45457   0.02100   0.26681   0.00000  Uiso   1.00
C71    C     0.54307   0.02150   0.23696   0.00000  Uiso   1.00
C72    C     0.45693   0.31184   0.26304   0.00000  Uiso   1.00
C73    C     0.49836   0.04268   0.25271   0.00000  Uiso   1.00
C74    C     0.50164   0.29066   0.24729   0.00000  Uiso   1.00
C75    C     0.65544   0.14059   0.21947   0.00000  Uiso   1.00
C76    C     0.34455   0.19275   0.28053   0.00000  Uiso   1.00
C77    C     0.36975   0.14036   0.21951   0.00000  Uiso   1.00
C78    C     0.63025   0.19297   0.28048   0.00000  Uiso   1.00
C79    C     0.46914   0.16636   0.33815   0.00000  Uiso   1.00
C80    C     0.53086   0.16697   0.16185   0.00000  Uiso   1.00
C81    C     0.44928   0.16785   0.38974   0.00000  Uiso   1.00
C82    C     0.55072   0.16548   0.11026   0.00000  Uiso   1.00
C83    C     0.39331   0.19777   0.46514   0.00000  Uiso   1.00
C84    C     0.60669   0.13557   0.03486   0.00000  Uiso   1.00
C85    C     0.40729   0.19128   0.41670   0.00000  Uiso   1.00
C86    C     0.59271   0.14206   0.08330   0.00000  Uiso   1.00
C87    C     0.47657   0.15011   0.41187   0.00000  Uiso   1.00
C88    C     0.52343   0.18322   0.08813   0.00000  Uiso   1.00
C89    C     0.46950   0.16504   0.45778   0.00000  Uiso   1.00
C90    C     0.53050   0.16829   0.04222   0.00000  Uiso   1.00
C91    C     0.42461   0.18555   0.48616   0.00000  Uiso   1.00
C92    C     0.57539   0.14778   0.01384   0.00000  Uiso   1.00
C93    C     0.50586   0.16144   0.47585   0.00000  Uiso   1.00
C94    C     0.49414   0.17189   0.02415   0.00000  Uiso   1.00
H95    H     0.61502   0.12906   0.09931   0.00000  Uiso   1.00
H96    H     0.38498   0.20427   0.40069   0.00000  Uiso   1.00
H97    H     0.35943   0.21439   0.48510   0.00000  Uiso   1.00
H98    H     0.64057   0.11894   0.01490   0.00000  Uiso   1.00
H99    H     0.43331   0.18497   0.09149   0.00000  Uiso   1.00
H100   H     0.56669   0.14836   0.40851   0.00000  Uiso   1.00
H101   H     0.57675   0.03786   0.22652   0.00000  Uiso   1.00
H102   H     0.42325   0.29547   0.27348   0.00000  Uiso   1.00
N103   N     0.38093   0.16668   0.25001   0.00000  Uiso   1.00
N104   N     0.61907   0.16666   0.24999   0.00000  Uiso   1.00
O105   O     0.46179   0.22775   0.25000   0.00000  Uiso   1.00
O106   O     0.53821   0.10558   0.24999   0.00000  Uiso   1.00
O107   O     0.53823   0.22774   0.25000   0.00000  Uiso   1.00
O108   O     0.46177   0.10559   0.25000   0.00000  Uiso   1.00
O109   O     0.43994   0.16667   0.31612   0.00000  Uiso   1.00
O110   O     0.56006   0.16666   0.18387   0.00000  Uiso   1.00
O111   O     0.51639   0.16666   0.31612   0.00000  Uiso   1.00
O112   O     0.48361   0.16667   0.18388   0.00000  Uiso   1.00
Zn113  Zn    0.44896   0.16667   0.25000   0.00000  Uiso   1.00
Zn114  Zn    0.55104   0.16666   0.25000   0.00000  Uiso   1.00
I115   I     0.34431   0.21855   0.08250   0.00000  Uiso   1.00
I116   I     0.65569   0.11478   0.41750   0.00000  Uiso   1.00
I117   I     0.48758   0.24196   0.11806   0.00000  Uiso   1.00
I118   I     0.51242   0.09137   0.38194   0.00000  Uiso   1.00
I119   I     0.61738   0.28622   0.20237   0.00000  Uiso   1.00
I120   I     0.38262   0.04712   0.29763   0.00000  Uiso   1.00
I121   I     0.64124   0.10003   0.17071   0.00000  Uiso   1.00
I122   I     0.35875   0.23330   0.32929   0.00000  Uiso   1.00
I123   I     0.42337   0.09751   0.17138   0.00000  Uiso   1.00
I124   I     0.57663   0.23583   0.32862   0.00000  Uiso   1.00
C125   C     0.83420   0.24645   0.24831   0.00000  Uiso   1.00
C126   C     0.83246   0.08688   0.25169   0.00000  Uiso   1.00
C127   C     0.77904   0.18314   0.05353   0.00000  Uiso   1.00
C128   C     0.88762   0.15019   0.44647   0.00000  Uiso   1.00
C129   C     0.74560   0.19288   0.03469   0.00000  Uiso   1.00
C130   C     0.92107   0.14045   0.46531   0.00000  Uiso   1.00
C131   C     0.87877   0.31233   0.23319   0.00000  Uiso   1.00
C132   C     0.78790   0.02100   0.26681   0.00000  Uiso   1.00
C133   C     0.87640   0.02150   0.23696   0.00000  Uiso   1.00
C134   C     0.79027   0.31184   0.26304   0.00000  Uiso   1.00
C135   C     0.83169   0.04268   0.25271   0.00000  Uiso   1.00
C136   C     0.83497   0.29066   0.24729   0.00000  Uiso   1.00
C137   C     0.98878   0.14059   0.21947   0.00000  Uiso   1.00
C138   C     0.67789   0.19275   0.28053   0.00000  Uiso   1.00
C139   C     0.70309   0.14036   0.21951   0.00000  Uiso   1.00
C140   C     0.96358   0.19297   0.28048   0.00000  Uiso   1.00
C141   C     0.80248   0.16636   0.33815   0.00000  Uiso   1.00
C142   C     0.86419   0.16697   0.16185   0.00000  Uiso   1.00
C143   C     0.78262   0.16785   0.38974   0.00000  Uiso   1.00
C144   C     0.88405   0.16548   0.11026   0.00000  Uiso   1.00
C145   C     0.72665   0.19777   0.46514   0.00000  Uiso   1.00
C146   C     0.94002   0.13557   0.03486   0.00000  Uiso   1.00
C147   C     0.74063   0.19128   0.41670   0.00000  Uiso   1.00
C148   C     0.92604   0.14206   0.08330   0.00000  Uiso   1.00
C149   C     0.80990   0.15011   0.41187   0.00000  Uiso   1.00
C150   C     0.85676   0.18322   0.08813   0.00000  Uiso   1.00
C151   C     0.80283   0.16504   0.45778   0.00000  Uiso   1.00
C152   C     0.86384   0.16829   0.04222   0.00000  Uiso   1.00
C153   C     0.75794   0.18555   0.48616   0.00000  Uiso   1.00
C154   C     0.90873   0.14778   0.01384   0.00000  Uiso   1.00
C155   C     0.83919   0.16144   0.47585   0.00000  Uiso   1.00
C156   C     0.82747   0.17189   0.02415   0.00000  Uiso   1.00
H157   H     0.94836   0.12906   0.09931   0.00000  Uiso   1.00
H158   H     0.71831   0.20427   0.40069   0.00000  Uiso   1.00
H159   H     0.69276   0.21439   0.48510   0.00000  Uiso   1.00
H160   H     0.97391   0.11894   0.01490   0.00000  Uiso   1.00
H161   H     0.76664   0.18497   0.09149   0.00000  Uiso   1.00
H162   H     0.90003   0.14836   0.40851   0.00000  Uiso   1.00
H163   H     0.91008   0.03786   0.22652   0.00000  Uiso   1.00
H164   H     0.75658   0.29547   0.27348   0.00000  Uiso   1.00
N165   N     0.71426   0.16668   0.25001   0.00000  Uiso   1.00
N166   N     0.95241   0.16666   0.24999   0.00000  Uiso   1.00
O167   O     0.79512   0.22775   0.25000   0.00000  Uiso   1.00
O168   O     0.87154   0.10558   0.24999   0.00000  Uiso   1.00
O169   O     0.87157   0.22774   0.25000   0.00000  Uiso   1.00
O170   O     0.79510   0.10559   0.25000   0.00000  Uiso   1.00
O171   O     0.77328   0.16667   0.31612   0.00000  Uiso   1.00
O172   O     0.89339   0.16666   0.18387   0.00000  Uiso   1.00
O173   O     0.84972   0.16666   0.31612   0.00000  Uiso   1.00
O174   O     0.81695   0.16667   0.18388   0.00000  Uiso   1.00
Zn175  Zn    0.78229   0.16667   0.25000   0.00000  Uiso   1.00
Zn176  Zn    0.88438   0.16666   0.25000   0.00000  Uiso   1.00
I177   I     0.67764   0.21855   0.08250   0.00000  Uiso   1.00
I178   I     0.98902   0.11478   0.41750   0.00000  Uiso   1.00
I179   I     0.82091   0.24196   0.11806   0.00000  Uiso   1.00
I180   I     0.84575   0.09137   0.38194   0.00000  Uiso   1.00
I181   I     0.95071   0.28622   0.20237   0.00000  Uiso   1.00
I182   I     0.71595   0.04712   0.29763   0.00000  Uiso   1.00
I183   I     0.97458   0.10003   0.17071   0.00000  Uiso   1.00
I184   I     0.69209   0.23330   0.32929   0.00000  Uiso   1.00
I185   I     0.75670   0.09751   0.17138   0.00000  Uiso   1.00
I186   I     0.90996   0.23583   0.32862   0.00000  Uiso   1.00
C187   C     0.16754   0.57979   0.24831   0.00000  Uiso   1.00
C188   C     0.16580   0.42021   0.25169   0.00000  Uiso   1.00
C189   C     0.11238   0.51648   0.05353   0.00000  Uiso   1.00
C190   C     0.22096   0.48352   0.44647   0.00000  Uiso   1.00
C191   C     0.07893   0.52621   0.03469   0.00000  Uiso   1.00
C192   C     0.25440   0.47379   0.46531   0.00000  Uiso   1.00
C193   C     0.21210   0.64567   0.23319   0.00000  Uiso   1.00
C194   C     0.12123   0.35433   0.26681   0.00000  Uiso   1.00
C195   C     0.20973   0.35483   0.23696   0.00000  Uiso   1.00
C196   C     0.12360   0.64517   0.26304   0.00000  Uiso   1.00
C197   C     0.16503   0.37601   0.25271   0.00000  Uiso   1.00
C198   C     0.16831   0.62399   0.24729   0.00000  Uiso   1.00
C199   C     0.32211   0.47392   0.21947   0.00000  Uiso   1.00
C200   C     0.01122   0.52608   0.28053   0.00000  Uiso   1.00
C201   C     0.03642   0.47370   0.21951   0.00000  Uiso   1.00
C202   C     0.29691   0.52630   0.28048   0.00000  Uiso   1.00
C203   C     0.13581   0.49970   0.33815   0.00000  Uiso   1.00
C204   C     0.19752   0.50030   0.16185   0.00000  Uiso   1.00
C205   C     0.11595   0.50118   0.38974   0.00000  Uiso   1.00
C206   C     0.21738   0.49882   0.11026   0.00000  Uiso   1.00
C207   C     0.05998   0.53110   0.46514   0.00000  Uiso   1.00
C208   C     0.27335   0.46890   0.03486   0.00000  Uiso   1.00
C209   C     0.07396   0.52461   0.41670   0.00000  Uiso   1.00
C210   C     0.25937   0.47539   0.08330   0.00000  Uiso   1.00
C211   C     0.14324   0.48345   0.41187   0.00000  Uiso   1.00
C212   C     0.19010   0.51655   0.08813   0.00000  Uiso   1.00
C213   C     0.13616   0.49838   0.45778   0.00000  Uiso   1.00
C214   C     0.19717   0.50162   0.04222   0.00000  Uiso   1.00
C215   C     0.09127   0.51889   0.48616   0.00000  Uiso   1.00
C216   C     0.24206   0.48111   0.01384   0.00000  Uiso   1.00
C217   C     0.17253   0.49477   0.47585   0.00000  Uiso   1.00
C218   C     0.16081   0.50523   0.02415   0.00000  Uiso   1.00
H219   H     0.28169   0.46240   0.09931   0.00000  Uiso   1.00
H220   H     0.05164   0.53760   0.40069   0.00000  Uiso   1.00
H221   H     0.02609   0.54773   0.48510   0.00000  Uiso   1.00
H222   H     0.30724   0.45227   0.01490   0.00000  Uiso   1.00
H223   H     0.09997   0.51830   0.09149   0.00000  Uiso   1.00
H224   H     0.23336   0.48170   0.40851   0.00000  Uiso   1.00
H225   H     0.24342   0.37120   0.22652   0.00000  Uiso   1.00
H226   H     0.08992   0.62880   0.27348   0.00000  Uiso   1.00
N227   N     0.04759   0.50001   0.25001   0.00000  Uiso   1.00
N228   N     0.28574   0.49999   0.24999   0.00000  Uiso   1.00
O229   O     0.12846   0.56108   0.25000   0.00000  Uiso   1.00
O230   O     0.20488   0.43892   0.24999   0.00000  Uiso   1.00
O231   O     0.20490   0.56107   0.25000   0.00000  Uiso   1.00
O232   O     0.12843   0.43893   0.25000   0.00000  Uiso   1.00
O233   O     0.10661   0.50001   0.31612   0.00000  Uiso   1.00
O234   O     0.22672   0.49999   0.18387   0.00000  Uiso   1.00
O235   O     0.18305   0.50000   0.31612   0.00000  Uiso   1.00
O236   O     0.15028   0.50000   0.18388   0.00000  Uiso   1.00
Zn237  Zn    0.11562   0.50001   0.25000   0.00000  Uiso   1.00
Zn238  Zn    0.21771   0.49999   0.25000   0.00000  Uiso   1.00
I239   I     0.01098   0.55189   0.08250   0.00000  Uiso   1.00
I240   I     0.32236   0.44811   0.41750   0.00000  Uiso   1.00
I241   I     0.15425   0.57530   0.11806   0.00000  Uiso   1.00
I242   I     0.17909   0.42470   0.38194   0.00000  Uiso   1.00
I243   I     0.28405   0.61955   0.20237   0.00000  Uiso   1.00
I244   I     0.04929   0.38045   0.29763   0.00000  Uiso   1.00
I245   I     0.30791   0.43336   0.17071   0.00000  Uiso   1.00
I246   I     0.02542   0.56664   0.32929   0.00000  Uiso   1.00
I247   I     0.09004   0.43084   0.17138   0.00000  Uiso   1.00
I248   I     0.24329   0.56916   0.32862   0.00000  Uiso   1.00
C249   C     0.50087   0.57979   0.24831   0.00000  Uiso   1.00
C250   C     0.49913   0.42021   0.25169   0.00000  Uiso   1.00
C251   C     0.44571   0.51648   0.05353   0.00000  Uiso   1.00
C252   C     0.55429   0.48352   0.44647   0.00000  Uiso   1.00
C253   C     0.41226   0.52621   0.03469   0.00000  Uiso   1.00
C254   C     0.58774   0.47379   0.46531   0.00000  Uiso   1.00
C255   C     0.54543   0.64567   0.23319   0.00000  Uiso   1.00
C256   C     0.45457   0.35433   0.26681   0.00000  Uiso   1.00
C257   C     0.54307   0.35483   0.23696   0.00000  Uiso   1.00
C258   C     0.45693   0.64517   0.26304   0.00000  Uiso   1.00
C259   C     0.49836   0.37601   0.25271   0.00000  Uiso   1.00
C260   C     0.50164   0.62399   0.24729   0.00000  Uiso   1.00
C261   C     0.65544   0.47392   0.21947   0.00000  Uiso   1.00
C262   C     0.34455   0.52608   0.28053   0.00000  Uiso   1.00
C263   C     0.36975   0.47370   0.21951   0.00000  Uiso   1.00
C264   C     0.63025   0.52630   0.28048   0.00000  Uiso   1.00
C265   C     0.46914   0.49970   0.33815   0.00000  Uiso   1.00
C266   C     0.53086   0.50030   0.16185   0.00000  Uiso   1.00
C267   C     0.44928   0.50118   0.38974   0.00000  Uiso   1.00
C268   C     0.55072   0.49882   0.11026   0.00000  Uiso   1.00
C269   C     0.39331   0.53110   0.46514   0.00000  Uiso   1.00
C270   C     0.60669   0.46890   0.03486   0.00000  Uiso   1.00
C271   C     0.40729   0.52461   0.41670   0.00000  Uiso   1.00
C272   C     0.59271   0.47539   0.08330   0.00000  Uiso   1.00
C273   C     0.47657   0.48345   0.41187   0.00000  Uiso   1.00
C274   C     0.52343   0.51655   0.08813   0.00000  Uiso   1.00
C275   C     0.46950   0.49838   0.45778   0.00000  Uiso   1.00
C276   C     0.53050   0.50162   0.04222   0.00000  Uiso   1.00
C277   C     0.42461   0.51889   0.48616   0.00000  Uiso   1.00
C278   C     0.57539   0.48111   0.01384   0.00000  Uiso   1.00
C279   C     0.50586   0.49477   0.47585   0.00000  Uiso   1.00
C280   C     0.49414   0.50523   0.02415   0.00000  Uiso   1.00
H281   H     0.61502   0.46240   0.09931   0.00000  Uiso   1.00
H282   H     0.38498   0.53760   0.40069   0.00000  Uiso   1.00
H283   H     0.35943   0.54773   0.48510   0.00000  Uiso   1.00
H284   H     0.64057   0.45227   0.01490   0.00000  Uiso   1.00
H285   H     0.43331   0.51830   0.09149   0.00000  Uiso   1.00
H286   H     0.56669   0.48170   0.40851   0.00000  Uiso   1.00
H287   H     0.57675   0.37120   0.22652   0.00000  Uiso   1.00
H288   H     0.42325   0.62880   0.27348   0.00000  Uiso   1.00
N289   N     0.38093   0.50001   0.25001   0.00000  Uiso   1.00
N290   N     0.61907   0.49999   0.24999   0.00000  Uiso   1.00
O291   O     0.46179   0.56108   0.25000   0.00000  Uiso   1.00
O292   O     0.53821   0.43892   0.24999   0.00000  Uiso   1.00
O293   O     0.53823   0.56107   0.25000   0.00000  Uiso   1.00
O294   O     0.46177   0.43893   0.25000   0.00000  Uiso   1.00
O295   O     0.43994   0.50001   0.31612   0.00000  Uiso   1.00
O296   O     0.56006   0.49999   0.18387   0.00000  Uiso   1.00
O297   O     0.51639   0.50000   0.31612   0.00000  Uiso   1.00
O298   O     0.48361   0.50000   0.18388   0.00000  Uiso   1.00
Zn299  Zn    0.44896   0.50001   0.25000   0.00000  Uiso   1.00
Zn300  Zn    0.55104   0.49999   0.25000   0.00000  Uiso   1.00
I301   I     0.34431   0.55189   0.08250   0.00000  Uiso   1.00
I302   I     0.65569   0.44811   0.41750   0.00000  Uiso   1.00
I303   I     0.48758   0.57530   0.11806   0.00000  Uiso   1.00
I304   I     0.51242   0.42470   0.38194   0.00000  Uiso   1.00
I305   I     0.61738   0.61955   0.20237   0.00000  Uiso   1.00
I306   I     0.38262   0.38045   0.29763   0.00000  Uiso   1.00
I307   I     0.64124   0.43336   0.17071   0.00000  Uiso   1.00
I308   I     0.35875   0.56664   0.32929   0.00000  Uiso   1.00
I309   I     0.42337   0.43084   0.17138   0.00000  Uiso   1.00
I310   I     0.57663   0.56916   0.32862   0.00000  Uiso   1.00
C311   C     0.83420   0.57979   0.24831   0.00000  Uiso   1.00
C312   C     0.83246   0.42021   0.25169   0.00000  Uiso   1.00
C313   C     0.77904   0.51648   0.05353   0.00000  Uiso   1.00
C314   C     0.88762   0.48352   0.44647   0.00000  Uiso   1.00
C315   C     0.74560   0.52621   0.03469   0.00000  Uiso   1.00
C316   C     0.92107   0.47379   0.46531   0.00000  Uiso   1.00
C317   C     0.87877   0.64567   0.23319   0.00000  Uiso   1.00
C318   C     0.78790   0.35433   0.26681   0.00000  Uiso   1.00
C319   C     0.87640   0.35483   0.23696   0.00000  Uiso   1.00
C320   C     0.79027   0.64517   0.26304   0.00000  Uiso   1.00
C321   C     0.83169   0.37601   0.25271   0.00000  Uiso   1.00
C322   C     0.83497   0.62399   0.24729   0.00000  Uiso   1.00
C323   C     0.98878   0.47392   0.21947   0.00000  Uiso   1.00
C324   C     0.67789   0.52608   0.28053   0.00000  Uiso   1.00
C325   C     0.70309   0.47370   0.21951   0.00000  Uiso   1.00
C326   C     0.96358   0.52630   0.28048   0.00000  Uiso   1.00
C327   C     0.80248   0.49970   0.33815   0.00000  Uiso   1.00
C328   C     0.86419   0.50030   0.16185   0.00000  Uiso   1.00
C329   C     0.78262   0.50118   0.38974   0.00000  Uiso   1.00
C330   C     0.88405   0.49882   0.11026   0.00000  Uiso   1.00
C331   C     0.72665   0.53110   0.46514   0.00000  Uiso   1.00
C332   C     0.94002   0.46890   0.03486   0.00000  Uiso   1.00
C333   C     0.74063   0.52461   0.41670   0.00000  Uiso   1.00
C334   C     0.92604   0.47539   0.08330   0.00000  Uiso   1.00
C335   C     0.80990   0.48345   0.41187   0.00000  Uiso   1.00
C336   C     0.85676   0.51655   0.08813   0.00000  Uiso   1.00
C337   C     0.80283   0.49838   0.45778   0.00000  Uiso   1.00
C338   C     0.86384   0.50162   0.04222   0.00000  Uiso   1.00
C339   C     0.75794   0.51889   0.48616   0.00000  Uiso   1.00
C340   C     0.90873   0.48111   0.01384   0.00000  Uiso   1.00
C341   C     0.83919   0.49477   0.47585   0.00000  Uiso   1.00
C342   C     0.82747   0.50523   0.02415   0.00000  Uiso   1.00
H343   H     0.94836   0.46240   0.09931   0.00000  Uiso   1.00
H344   H     0.71831   0.53760   0.40069   0.00000  Uiso   1.00
H345   H     0.69276   0.54773   0.48510   0.00000  Uiso   1.00
H346   H     0.97391   0.45227   0.01490   0.00000  Uiso   1.00
H347   H     0.76664   0.51830   0.09149   0.00000  Uiso   1.00
H348   H     0.90003   0.48170   0.40851   0.00000  Uiso   1.00
H349   H     0.91008   0.37120   0.22652   0.00000  Uiso   1.00
H350   H     0.75658   0.62880   0.27348   0.00000  Uiso   1.00
N351   N     0.71426   0.50001   0.25001   0.00000  Uiso   1.00
N352   N     0.95241   0.49999   0.24999   0.00000  Uiso   1.00
O353   O     0.79512   0.56108   0.25000   0.00000  Uiso   1.00
O354   O     0.87154   0.43892   0.24999   0.00000  Uiso   1.00
O355   O     0.87157   0.56107   0.25000   0.00000  Uiso   1.00
O356   O     0.79510   0.43893   0.25000   0.00000  Uiso   1.00
O357   O     0.77328   0.50001   0.31612   0.00000  Uiso   1.00
O358   O     0.89339   0.49999   0.18387   0.00000  Uiso   1.00
O359   O     0.84972   0.50000   0.31612   0.00000  Uiso   1.00
O360   O     0.81695   0.50000   0.18388   0.00000  Uiso   1.00
Zn361  Zn    0.78229   0.50001   0.25000   0.00000  Uiso   1.00
Zn362  Zn    0.88438   0.49999   0.25000   0.00000  Uiso   1.00
I363   I     0.67764   0.55189   0.08250   0.00000  Uiso   1.00
I364   I     0.98902   0.44811   0.41750   0.00000  Uiso   1.00
I365   I     0.82091   0.57530   0.11806   0.00000  Uiso   1.00
I366   I     0.84575   0.42470   0.38194   0.00000  Uiso   1.00
I367   I     0.95071   0.61955   0.20237   0.00000  Uiso   1.00
I368   I     0.71595   0.38045   0.29763   0.00000  Uiso   1.00
I369   I     0.97458   0.43336   0.17071   0.00000  Uiso   1.00
I370   I     0.69209   0.56664   0.32929   0.00000  Uiso   1.00
I371   I     0.75670   0.43084   0.17138   0.00000  Uiso   1.00
I372   I     0.90996   0.56916   0.32862   0.00000  Uiso   1.00
C373   C     0.16754   0.91312   0.24831   0.00000  Uiso   1.00
C374   C     0.16580   0.75355   0.25169   0.00000  Uiso   1.00
C375   C     0.11238   0.84981   0.05353   0.00000  Uiso   1.00
C376   C     0.22096   0.81686   0.44647   0.00000  Uiso   1.00
C377   C     0.07893   0.85955   0.03469   0.00000  Uiso   1.00
C378   C     0.25440   0.80712   0.46531   0.00000  Uiso   1.00
C379   C     0.21210   0.97900   0.23319   0.00000  Uiso   1.00
C380   C     0.12123   0.68767   0.26681   0.00000  Uiso   1.00
C381   C     0.20973   0.68816   0.23696   0.00000  Uiso   1.00
C382   C     0.12360   0.97850   0.26304   0.00000  Uiso   1.00
C383   C     0.16503   0.70934   0.25271   0.00000  Uiso   1.00
C384   C     0.16831   0.95732   0.24729   0.00000  Uiso   1.00
C385   C     0.32211   0.80725   0.21947   0.00000  Uiso   1.00
C386   C     0.01122   0.85941   0.28053   0.00000  Uiso   1.00
C387   C     0.03642   0.80703   0.21951   0.00000  Uiso   1.00
C388   C     0.29691   0.85964   0.28048   0.00000  Uiso   1.00
C389   C     0.13581   0.83303   0.33815   0.00000  Uiso   1.00
C390   C     0.19752   0.83364   0.16185   0.00000  Uiso   1.00
C391   C     0.11595   0.83452   0.38974   0.00000  Uiso   1.00
C392   C     0.21738   0.83215   0.11026   0.00000  Uiso   1.00
C393   C     0.05998   0.86443   0.46514   0.00000  Uiso   1.00
C394   C     0.27335   0.80223   0.03486   0.00000  Uiso   1.00
C395   C     0.07396   0.85794   0.41670   0.00000  Uiso   1.00
C396   C     0.25937   0.80872   0.08330   0.00000  Uiso   1.00
C397   C     0.14324   0.81678   0.41187   0.00000  Uiso   1.00
C398   C     0.19010   0.84989   0.08813   0.00000  Uiso   1.00
C399   C     0.13616   0.83171   0.45778   0.00000  Uiso   1.00
C400   C     0.19717   0.83496   0.04222   0.00000  Uiso   1.00
C401   C     0.09127   0.85222   0.48616   0.00000  Uiso   1.00
C402   C     0.24206   0.81445   0.01384   0.00000  Uiso   1.00
C403   C     0.17253   0.82811   0.47585   0.00000  Uiso   1.00
C404   C     0.16081   0.83856   0.02415   0.00000  Uiso   1.00
H405   H     0.28169   0.79573   0.09931   0.00000  Uiso   1.00
H406   H     0.05164   0.87094   0.40069   0.00000  Uiso   1.00
H407   H     0.02609   0.88106   0.48510   0.00000  Uiso   1.00
H408   H     0.30724   0.78561   0.01490   0.00000  Uiso   1.00
H409   H     0.09997   0.85164   0.09149   0.00000  Uiso   1.00
H410   H     0.23336   0.81503   0.40851   0.00000  Uiso   1.00
H411   H     0.24342   0.70453   0.22652   0.00000  Uiso   1.00
H412   H     0.08992   0.96214   0.27348   0.00000  Uiso   1.00
N413   N     0.04759   0.83334   0.25001   0.00000  Uiso   1.00
N414   N     0.28574   0.83332   0.24999   0.00000  Uiso   1.00
O415   O     0.12846   0.89442   0.25000   0.00000  Uiso   1.00
O416   O     0.20488   0.77225   0.24999   0.00000  Uiso   1.00
O417   O     0.20490   0.89441   0.25000   0.00000  Uiso   1.00
O418   O     0.12843   0.77226   0.25000   0.00000  Uiso   1.00
O419   O     0.10661   0.83334   0.31612   0.00000  Uiso   1.00
O420   O     0.22672   0.83333   0.18387   0.00000  Uiso   1.00
O421   O     0.18305   0.83333   0.31612   0.00000  Uiso   1.00
O422   O     0.15028   0.83334   0.18388   0.00000  Uiso   1.00
Zn423  Zn    0.11562   0.83334   0.25000   0.00000  Uiso   1.00
Zn424  Zn    0.21771   0.83333   0.25000   0.00000  Uiso   1.00
I425   I     0.01098   0.88522   0.08250   0.00000  Uiso   1.00
I426   I     0.32236   0.78145   0.41750   0.00000  Uiso   1.00
I427   I     0.15425   0.90863   0.11806   0.00000  Uiso   1.00
I428   I     0.17909   0.75804   0.38194   0.00000  Uiso   1.00
I429   I     0.28405   0.95288   0.20237   0.00000  Uiso   1.00
I430   I     0.04929   0.71378   0.29763   0.00000  Uiso   1.00
I431   I     0.30791   0.76670   0.17071   0.00000  Uiso   1.00
I432   I     0.02542   0.89997   0.32929   0.00000  Uiso   1.00
I433   I     0.09004   0.76417   0.17138   0.00000  Uiso   1.00
I434   I     0.24329   0.90249   0.32862   0.00000  Uiso   1.00
C435   C     0.50087   0.91312   0.24831   0.00000  Uiso   1.00
C436   C     0.49913   0.75355   0.25169   0.00000  Uiso   1.00
C437   C     0.44571   0.84981   0.05353   0.00000  Uiso   1.00
C438   C     0.55429   0.81686   0.44647   0.00000  Uiso   1.00
C439   C     0.41226   0.85955   0.03469   0.00000  Uiso   1.00
C440   C     0.58774   0.80712   0.46531   0.00000  Uiso   1.00
C441   C     0.54543   0.97900   0.23319   0.00000  Uiso   1.00
C442   C     0.45457   0.68767   0.26681   0.00000  Uiso   1.00
C443   C     0.54307   0.68816   0.23696   0.00000  Uiso   1.00
C444   C     0.45693   0.97850   0.26304   0.00000  Uiso   1.00
C445   C     0.49836   0.70934   0.25271   0.00000  Uiso   1.00
C446   C     0.50164   0.95732   0.24729   0.00000  Uiso   1.00
C447   C     0.65544   0.80725   0.21947   0.00000  Uiso   1.00
C448   C     0.34455   0.85941   0.28053   0.00000  Uiso   1.00
C449   C     0.36975   0.80703   0.21951   0.00000  Uiso   1.00
C450   C     0.63025   0.85964   0.28048   0.00000  Uiso   1.00
C451   C     0.46914   0.83303   0.33815   0.00000  Uiso   1.00
C452   C     0.53086   0.83364   0.16185   0.00000  Uiso   1.00
C453   C     0.44928   0.83452   0.38974   0.00000  Uiso   1.00
C454   C     0.55072   0.83215   0.11026   0.00000  Uiso   1.00
C455   C     0.39331   0.86443   0.46514   0.00000  Uiso   1.00
C456   C     0.60669   0.80223   0.03486   0.00000  Uiso   1.00
C457   C     0.40729   0.85794   0.41670   0.00000  Uiso   1.00
C458   C     0.59271   0.80872   0.08330   0.00000  Uiso   1.00
C459   C     0.47657   0.81678   0.41187   0.00000  Uiso   1.00
C460   C     0.52343   0.84989   0.08813   0.00000  Uiso   1.00
C461   C     0.46950   0.83171   0.45778   0.00000  Uiso   1.00
C462   C     0.53050   0.83496   0.04222   0.00000  Uiso   1.00
C463   C     0.42461   0.85222   0.48616   0.00000  Uiso   1.00
C464   C     0.57539   0.81445   0.01384   0.00000  Uiso   1.00
C465   C     0.50586   0.82811   0.47585   0.00000  Uiso   1.00
C466   C     0.49414   0.83856   0.02415   0.00000  Uiso   1.00
H467   H     0.61502   0.79573   0.09931   0.00000  Uiso   1.00
H468   H     0.38498   0.87094   0.40069   0.00000  Uiso   1.00
H469   H     0.35943   0.88106   0.48510   0.00000  Uiso   1.00
H470   H     0.64057   0.78561   0.01490   0.00000  Uiso   1.00
H471   H     0.43331   0.85164   0.09149   0.00000  Uiso   1.00
H472   H     0.56669   0.81503   0.40851   0.00000  Uiso   1.00
H473   H     0.57675   0.70453   0.22652   0.00000  Uiso   1.00
H474   H     0.42325   0.96214   0.27348   0.00000  Uiso   1.00
N475   N     0.38093   0.83334   0.25001   0.00000  Uiso   1.00
N476   N     0.61907   0.83332   0.24999   0.00000  Uiso   1.00
O477   O     0.46179   0.89442   0.25000   0.00000  Uiso   1.00
O478   O     0.53821   0.77225   0.24999   0.00000  Uiso   1.00
O479   O     0.53823   0.89441   0.25000   0.00000  Uiso   1.00
O480   O     0.46177   0.77226   0.25000   0.00000  Uiso   1.00
O481   O     0.43994   0.83334   0.31612   0.00000  Uiso   1.00
O482   O     0.56006   0.83333   0.18387   0.00000  Uiso   1.00
O483   O     0.51639   0.83333   0.31612   0.00000  Uiso   1.00
O484   O     0.48361   0.83334   0.18388   0.00000  Uiso   1.00
Zn485  Zn    0.44896   0.83334   0.25000   0.00000  Uiso   1.00
Zn486  Zn    0.55104   0.83333   0.25000   0.00000  Uiso   1.00
I487   I     0.34431   0.88522   0.08250   0.00000  Uiso   1.00
I488   I     0.65569   0.78145   0.41750   0.00000  Uiso   1.00
I489   I     0.48758   0.90863   0.11806   0.00000  Uiso   1.00
I490   I     0.51242   0.75804   0.38194   0.00000  Uiso   1.00
I491   I     0.61738   0.95288   0.20237   0.00000  Uiso   1.00
I492   I     0.38262   0.71378   0.29763   0.00000  Uiso   1.00
I493   I     0.64124   0.76670   0.17071   0.00000  Uiso   1.00
I494   I     0.35875   0.89997   0.32929   0.00000  Uiso   1.00
I495   I     0.42337   0.76417   0.17138   0.00000  Uiso   1.00
I496   I     0.57663   0.90249   0.32862   0.00000  Uiso   1.00
C497   C     0.83420   0.91312   0.24831   0.00000  Uiso   1.00
C498   C     0.83246   0.75355   0.25169   0.00000  Uiso   1.00
C499   C     0.77904   0.84981   0.05353   0.00000  Uiso   1.00
C500   C     0.88762   0.81686   0.44647   0.00000  Uiso   1.00
C501   C     0.74560   0.85955   0.03469   0.00000  Uiso   1.00
C502   C     0.92107   0.80712   0.46531   0.00000  Uiso   1.00
C503   C     0.87877   0.97900   0.23319   0.00000  Uiso   1.00
C504   C     0.78790   0.68767   0.26681   0.00000  Uiso   1.00
C505   C     0.87640   0.68816   0.23696   0.00000  Uiso   1.00
C506   C     0.79027   0.97850   0.26304   0.00000  Uiso   1.00
C507   C     0.83169   0.70934   0.25271   0.00000  Uiso   1.00
C508   C     0.83497   0.95732   0.24729   0.00000  Uiso   1.00
C509   C     0.98878   0.80725   0.21947   0.00000  Uiso   1.00
C510   C     0.67789   0.85941   0.28053   0.00000  Uiso   1.00
C511   C     0.70309   0.80703   0.21951   0.00000  Uiso   1.00
C512   C     0.96358   0.85964   0.28048   0.00000  Uiso   1.00
C513   C     0.80248   0.83303   0.33815   0.00000  Uiso   1.00
C514   C     0.86419   0.83364   0.16185   0.00000  Uiso   1.00
C515   C     0.78262   0.83452   0.38974   0.00000  Uiso   1.00
C516   C     0.88405   0.83215   0.11026   0.00000  Uiso   1.00
C517   C     0.72665   0.86443   0.46514   0.00000  Uiso   1.00
C518   C     0.94002   0.80223   0.03486   0.00000  Uiso   1.00
C519   C     0.74063   0.85794   0.41670   0.00000  Uiso   1.00
C520   C     0.92604   0.80872   0.08330   0.00000  Uiso   1.00
C521   C     0.80990   0.81678   0.41187   0.00000  Uiso   1.00
C522   C     0.85676   0.84989   0.08813   0.00000  Uiso   1.00
C523   C     0.80283   0.83171   0.45778   0.00000  Uiso   1.00
C524   C     0.86384   0.83496   0.04222   0.00000  Uiso   1.00
C525   C     0.75794   0.85222   0.48616   0.00000  Uiso   1.00
C526   C     0.90873   0.81445   0.01384   0.00000  Uiso   1.00
C527   C     0.83919   0.82811   0.47585   0.00000  Uiso   1.00
C528   C     0.82747   0.83856   0.02415   0.00000  Uiso   1.00
H529   H     0.94836   0.79573   0.09931   0.00000  Uiso   1.00
H530   H     0.71831   0.87094   0.40069   0.00000  Uiso   1.00
H531   H     0.69276   0.88106   0.48510   0.00000  Uiso   1.00
H532   H     0.97391   0.78561   0.01490   0.00000  Uiso   1.00
H533   H     0.76664   0.85164   0.09149   0.00000  Uiso   1.00
H534   H     0.90003   0.81503   0.40851   0.00000  Uiso   1.00
H535   H     0.91008   0.70453   0.22652   0.00000  Uiso   1.00
H536   H     0.75658   0.96214   0.27348   0.00000  Uiso   1.00
N537   N     0.71426   0.83334   0.25001   0.00000  Uiso   1.00
N538   N     0.95241   0.83332   0.24999   0.00000  Uiso   1.00
O539   O     0.79512   0.89442   0.25000   0.00000  Uiso   1.00
O540   O     0.87154   0.77225   0.24999   0.00000  Uiso   1.00
O541   O     0.87157   0.89441   0.25000   0.00000  Uiso   1.00
O542   O     0.79510   0.77226   0.25000   0.00000  Uiso   1.00
O543   O     0.77328   0.83334   0.31612   0.00000  Uiso   1.00
O544   O     0.89339   0.83333   0.18387   0.00000  Uiso   1.00
O545   O     0.84972   0.83333   0.31612   0.00000  Uiso   1.00
O546   O     0.81695   0.83334   0.18388   0.00000  Uiso   1.00
Zn547  Zn    0.78229   0.83334   0.25000   0.00000  Uiso   1.00
Zn548  Zn    0.88438   0.83333   0.25000   0.00000  Uiso   1.00
I549   I     0.67764   0.88522   0.08250   0.00000  Uiso   1.00
I550   I     0.98902   0.78145   0.41750   0.00000  Uiso   1.00
I551   I     0.82091   0.90863   0.11806   0.00000  Uiso   1.00
I552   I     0.84575   0.75804   0.38194   0.00000  Uiso   1.00
I553   I     0.95071   0.95288   0.20237   0.00000  Uiso   1.00
I554   I     0.71595   0.71378   0.29763   0.00000  Uiso   1.00
I555   I     0.97458   0.76670   0.17071   0.00000  Uiso   1.00
I556   I     0.69209   0.89997   0.32929   0.00000  Uiso   1.00
I557   I     0.75670   0.76417   0.17138   0.00000  Uiso   1.00
I558   I     0.90996   0.90249   0.32862   0.00000  Uiso   1.00
C559   C     0.16754   0.24645   0.74831   0.00000  Uiso   1.00
C560   C     0.16580   0.08688   0.75169   0.00000  Uiso   1.00
C561   C     0.11238   0.18314   0.55353   0.00000  Uiso   1.00
C562   C     0.22096   0.15019   0.94647   0.00000  Uiso   1.00
C563   C     0.07893   0.19288   0.53469   0.00000  Uiso   1.00
C564   C     0.25440   0.14045   0.96531   0.00000  Uiso   1.00
C565   C     0.21210   0.31233   0.73319   0.00000  Uiso   1.00
C566   C     0.12123   0.02100   0.76681   0.00000  Uiso   1.00
C567   C     0.20973   0.02150   0.73696   0.00000  Uiso   1.00
C568   C     0.12360   0.31184   0.76304   0.00000  Uiso   1.00
C569   C     0.16503   0.04268   0.75271   0.00000  Uiso   1.00
C570   C     0.16831   0.29066   0.74729   0.00000  Uiso   1.00
C571   C     0.32211   0.14059   0.71947   0.00000  Uiso   1.00
C572   C     0.01122   0.19275   0.78053   0.00000  Uiso   1.00
C573   C     0.03642   0.14036   0.71951   0.00000  Uiso   1.00
C574   C     0.29691   0.19297   0.78048   0.00000  Uiso   1.00
C575   C     0.13581   0.16636   0.83815   0.00000  Uiso   1.00
C576   C     0.19752   0.16697   0.66185   0.00000  Uiso   1.00
C577   C     0.11595   0.16785   0.88974   0.00000  Uiso   1.00
C578   C     0.21738   0.16548   0.61026   0.00000  Uiso   1.00
C579   C     0.05998   0.19777   0.96514   0.00000  Uiso   1.00
C580   C     0.27335   0.13557   0.53486   0.00000  Uiso   1.00
C581   C     0.07396   0.19128   0.91670   0.00000  Uiso   1.00
C582   C     0.25937   0.14206   0.58330   0.00000  Uiso   1.00
C583   C     0.14324   0.15011   0.91187   0.00000  Uiso   1.00
C584   C     0.19010   0.18322   0.58813   0.00000  Uiso   1.00
C585   C     0.13616   0.16504   0.95778   0.00000  Uiso   1.00
C586   C     0.19717   0.16829   0.54222   0.00000  Uiso   1.00
C587   C     0.09127   0.18555   0.98616   0.00000  Uiso   1.00
C588   C     0.24206   0.14778   0.51384   0.00000  Uiso   1.00
C589   C     0.17253   0.16144   0.97585   0.00000  Uiso   1.00
C590   C     0.16081   0.17189   0.52415   0.00000  Uiso   1.00
H591   H     0.28169   0.12906   0.59931   0.00000  Uiso   1.00
H592   H     0.05164   0.20427   0.90069   0.00000  Uiso   1.00
H593   H     0.02609   0.21439   0.98510   0.00000  Uiso   1.00
H594   H     0.30724   0.11894   0.51490   0.00000  Uiso   1.00
H595   H     0.09997   0.18497   0.59149   0.00000  Uiso   1.00
H596   H     0.23336   0.14836   0.90851   0.00000  Uiso   1.00
H597   H     0.24342   0.03786   0.72652   0.00000  Uiso   1.00
H598   H     0.08992   0.29547   0.77348   0.00000  Uiso   1.00
N599   N     0.04759   0.16668   0.75001   0.00000  Uiso   1.00
N600   N     0.28574   0.16666   0.74999   0.00000  Uiso   1.00
O601   O     0.12846   0.22775   0.75000   0.00000  Uiso   1.00
O602   O     0.20488   0.10558   0.74999   0.00000  Uiso   1.00
O603   O     0.20490   0.22774   0.75000   0.00000  Uiso   1.00
O604   O     0.12843   0.10559   0.75000   0.00000  Uiso   1.00
O605   O     0.10661   0.16667   0.81612   0.00000  Uiso   1.00
O606   O     0.22672   0.16666   0.68387   0.00000  Uiso   1.00
O607   O     0.18305   0.16666   0.81612   0.00000  Uiso   1.00
O608   O     0.15028   0.16667   0.68388   0.00000  Uiso   1.00
Zn609  Zn    0.11562   0.16667   0.75000   0.00000  Uiso   1.00
Zn610  Zn    0.21771   0.16666   0.75000   0.00000  Uiso   1.00
I611   I     0.01098   0.21855   0.58250   0.00000  Uiso   1.00
I612   I     0.32236   0.11478   0.91750   0.00000  Uiso   1.00
I613   I     0.15425   0.24196   0.61806   0.00000  Uiso   1.00
I614   I     0.17909   0.09137   0.88194   0.00000  Uiso   1.00
I615   I     0.28405   0.28622   0.70237   0.00000  Uiso   1.00
I616   I     0.04929   0.04712   0.79763   0.00000  Uiso   1.00
I617   I     0.30791   0.10003   0.67071   0.00000  Uiso   1.00
I618   I     0.02542   0.23330   0.82929   0.00000  Uiso   1.00
I619   I     0.09004   0.09751   0.67138   0.00000  Uiso   1.00
I620   I     0.24329   0.23583   0.82862   0.00000  Uiso   1.00
C621   C     0.50087   0.24645   0.74831   0.00000  Uiso   1.00
C622   C     0.49913   0.08688   0.75169   0.00000  Uiso   1.00
C623   C     0.44571   0.18314   0.55353   0.00000  Uiso   1.00
C624   C     0.55429   0.15019   0.94647   0.00000  Uiso   1.00
C625   C     0.41226   0.19288   0.53469   0.00000  Uiso   1.00
C626   C     0.58774   0.14045   0.96531   0.00000  Uiso   1.00
C627   C     0.54543   0.31233   0.73319   0.00000  Uiso   1.00
C628   C     0.45457   0.02100   0.76681   0.00000  Uiso   1.00
C629   C     0.54307   0.02150   0.73696   0.00000  Uiso   1.00
C630   C     0.45693   0.31184   0.76304   0.00000  Uiso   1.00
C631   C     0.49836   0.04268   0.75271   0.00000  Uiso   1.00
C632   C     0.50164   0.29066   0.74729   0.00000  Uiso   1.00
C633   C     0.65544   0.14059   0.71947   0.00000  Uiso   1.00
C634   C     0.34455   0.19275   0.78053   0.00000  Uiso   1.00
C635   C     0.36975   0.14036   0.71951   0.00000  Uiso   1.00
C636   C     0.63025   0.19297   0.78048   0.00000  Uiso   1.00
C637   C     0.46914   0.16636   0.83815   0.00000  Uiso   1.00
C638   C     0.53086   0.16697   0.66185   0.00000  Uiso   1.00
C639   C     0.44928   0.16785   0.88974   0.00000  Uiso   1.00
C640   C     0.55072   0.16548   0.61026   0.00000  Uiso   1.00
C641   C     0.39331   0.19777   0.96514   0.00000  Uiso   1.00
C642   C     0.60669   0.13557   0.53486   0.00000  Uiso   1.00
C643   C     0.40729   0.19128   0.91670   0.00000  Uiso   1.00
C644   C     0.59271   0.14206   0.58330   0.00000  Uiso   1.00
C645   C     0.47657   0.15011   0.91187   0.00000  Uiso   1.00
C646   C     0.52343   0.18322   0.58813   0.00000  Uiso   1.00
C647   C     0.46950   0.16504   0.95778   0.00000  Uiso   1.00
C648   C     0.53050   0.16829   0.54222   0.00000  Uiso   1.00
C649   C     0.42461   0.18555   0.98616   0.00000  Uiso   1.00
C650   C     0.57539   0.14778   0.51384   0.00000  Uiso   1.00
C651   C     0.50586   0.16144   0.97585   0.00000  Uiso   1.00
C652   C     0.49414   0.17189   0.52415   0.00000  Uiso   1.00
H653   H     0.61502   0.12906   0.59931   0.00000  Uiso   1.00
H654   H     0.38498   0.20427   0.90069   0.00000  Uiso   1.00
H655   H     0.35943   0.21439   0.98510   0.00000  Uiso   1.00
H656   H     0.64057   0.11894   0.51490   0.00000  Uiso   1.00
H657   H     0.43331   0.18497   0.59149   0.00000  Uiso   1.00
H658   H     0.56669   0.14836   0.90851   0.00000  Uiso   1.00
H659   H     0.57675   0.03786   0.72652   0.00000  Uiso   1.00
H660   H     0.42325   0.29547   0.77348   0.00000  Uiso   1.00
N661   N     0.38093   0.16668   0.75001   0.00000  Uiso   1.00
N662   N     0.61907   0.16666   0.74999   0.00000  Uiso   1.00
O663   O     0.46179   0.22775   0.75000   0.00000  Uiso   1.00
O664   O     0.53821   0.10558   0.74999   0.00000  Uiso   1.00
O665   O     0.53823   0.22774   0.75000   0.00000  Uiso   1.00
O666   O     0.46177   0.10559   0.75000   0.00000  Uiso   1.00
O667   O     0.43994   0.16667   0.81612   0.00000  Uiso   1.00
O668   O     0.56006   0.16666   0.68387   0.00000  Uiso   1.00
O669   O     0.51639   0.16666   0.81612   0.00000  Uiso   1.00
O670   O     0.48361   0.16667   0.68388   0.00000  Uiso   1.00
Zn671  Zn    0.44896   0.16667   0.75000   0.00000  Uiso   1.00
Zn672  Zn    0.55104   0.16666   0.75000   0.00000  Uiso   1.00
I673   I     0.34431   0.21855   0.58250   0.00000  Uiso   1.00
I674   I     0.65569   0.11478   0.91750   0.00000  Uiso   1.00
I675   I     0.48758   0.24196   0.61806   0.00000  Uiso   1.00
I676   I     0.51242   0.09137   0.88194   0.00000  Uiso   1.00
I677   I     0.61738   0.28622   0.70237   0.00000  Uiso   1.00
I678   I     0.38262   0.04712   0.79763   0.00000  Uiso   1.00
I679   I     0.64124   0.10003   0.67071   0.00000  Uiso   1.00
I680   I     0.35875   0.23330   0.82929   0.00000  Uiso   1.00
I681   I     0.42337   0.09751   0.67138   0.00000  Uiso   1.00
I682   I     0.57663   0.23583   0.82862   0.00000  Uiso   1.00
C683   C     0.83420   0.24645   0.74831   0.00000  Uiso   1.00
C684   C     0.83246   0.08688   0.75169   0.00000  Uiso   1.00
C685   C     0.77904   0.18314   0.55353   0.00000  Uiso   1.00
C686   C     0.88762   0.15019   0.94647   0.00000  Uiso   1.00
C687   C     0.74560   0.19288   0.53469   0.00000  Uiso   1.00
C688   C     0.92107   0.14045   0.96531   0.00000  Uiso   1.00
C689   C     0.87877   0.31233   0.73319   0.00000  Uiso   1.00
C690   C     0.78790   0.02100   0.76681   0.00000  Uiso   1.00
C691   C     0.87640   0.02150   0.73696   0.00000  Uiso   1.00
C692   C     0.79027   0.31184   0.76304   0.00000  Uiso   1.00
C693   C     0.83169   0.04268   0.75271   0.00000  Uiso   1.00
C694   C     0.83497   0.29066   0.74729   0.00000  Uiso   1.00
C695   C     0.98878   0.14059   0.71947   0.00000  Uiso   1.00
C696   C     0.67789   0.19275   0.78053   0.00000  Uiso   1.00
C697   C     0.70309   0.14036   0.71951   0.00000  Uiso   1.00
C698   C     0.96358   0.19297   0.78048   0.00000  Uiso   1.00
C699   C     0.80248   0.16636   0.83815   0.00000  Uiso   1.00
C700   C     0.86419   0.16697   0.66185   0.00000  Uiso   1.00
C701   C     0.78262   0.16785   0.88974   0.00000  Uiso   1.00
C702   C     0.88405   0.16548   0.61026   0.00000  Uiso   1.00
C703   C     0.72665   0.19777   0.96514   0.00000  Uiso   1.00
C704   C     0.94002   0.13557   0.53486   0.00000  Uiso   1.00
C705   C     0.74063   0.19128   0.91670   0.00000  Uiso   1.00
C706   C     0.92604   0.14206   0.58330   0.00000  Uiso   1.00
C707   C     0.80990   0.15011   0.91187   0.00000  Uiso   1.00
C708   C     0.85676   0.18322   0.58813   0.00000  Uiso   1.00
C709   C     0.80283   0.16504   0.95778   0.00000  Uiso   1.00
C710   C     0.86384   0.16829   0.54222   0.00000  Uiso   1.00
C711   C     0.75794   0.18555   0.98616   0.00000  Uiso   1.00
C712   C     0.90873   0.14778   0.51384   0.00000  Uiso   1.00
C713   C     0.83919   0.16144   0.97585   0.00000  Uiso   1.00
C714   C     0.82747   0.17189   0.52415   0.00000  Uiso   1.00
H715   H     0.94836   0.12906   0.59931   0.00000  Uiso   1.00
H716   H     0.71831   0.20427   0.90069   0.00000  Uiso   1.00
H717   H     0.69276   0.21439   0.98510   0.00000  Uiso   1.00
H718   H     0.97391   0.11894   0.51490   0.00000  Uiso   1.00
H719   H     0.76664   0.18497   0.59149   0.00000  Uiso   1.00
H720   H     0.90003   0.14836   0.90851   0.00000  Uiso   1.00
H721   H     0.91008   0.03786   0.72652   0.00000  Uiso   1.00
H722   H     0.75658   0.29547   0.77348   0.00000  Uiso   1.00
N723   N     0.71426   0.16668   0.75001   0.00000  Uiso   1.00
N724   N     0.95241   0.16666   0.74999   0.00000  Uiso   1.00
O725   O     0.79512   0.22775   0.75000   0.00000  Uiso   1.00
O726   O     0.87154   0.10558   0.74999   0.00000  Uiso   1.00
O727   O     0.87157   0.22774   0.75000   0.00000  Uiso   1.00
O728   O     0.79510   0.10559   0.75000   0.00000  Uiso   1.00
O729   O     0.77328   0.16667   0.81612   0.00000  Uiso   1.00
O730   O     0.89339   0.16666   0.68387   0.00000  Uiso   1.00
O731   O     0.84972   0.16666   0.81612   0.00000  Uiso   1.00
O732   O     0.81695   0.16667   0.68388   0.00000  Uiso   1.00
Zn733  Zn    0.78229   0.16667   0.75000   0.00000  Uiso   1.00
Zn734  Zn    0.88438   0.16666   0.75000   0.00000  Uiso   1.00
I735   I     0.67764   0.21855   0.58250   0.00000  Uiso   1.00
I736   I     0.98902   0.11478   0.91750   0.00000  Uiso   1.00
I737   I     0.82091   0.24196   0.61806   0.00000  Uiso   1.00
I738   I     0.84575   0.09137   0.88194   0.00000  Uiso   1.00
I739   I     0.95071   0.28622   0.70237   0.00000  Uiso   1.00
I740   I     0.71595   0.04712   0.79763   0.00000  Uiso   1.00
I741   I     0.97458   0.10003   0.67071   0.00000  Uiso   1.00
I742   I     0.69209   0.23330   0.82929   0.00000  Uiso   1.00
I743   I     0.75670   0.09751   0.67138   0.00000  Uiso   1.00
I744   I     0.90996   0.23583   0.82862   0.00000  Uiso   1.00
C745   C     0.16754   0.57979   0.74831   0.00000  Uiso   1.00
C746   C     0.16580   0.42021   0.75169   0.00000  Uiso   1.00
C747   C     0.11238   0.51648   0.55353   0.00000  Uiso   1.00
C748   C     0.22096   0.48352   0.94647   0.00000  Uiso   1.00
C749   C     0.07893   0.52621   0.53469   0.00000  Uiso   1.00
C750   C     0.25440   0.47379   0.96531   0.00000  Uiso   1.00
C751   C     0.21210   0.64567   0.73319   0.00000  Uiso   1.00
C752   C     0.12123   0.35433   0.76681   0.00000  Uiso   1.00
C753   C     0.20973   0.35483   0.73696   0.00000  Uiso   1.00
C754   C     0.12360   0.64517   0.76304   0.00000  Uiso   1.00
C755   C     0.16503   0.37601   0.75271   0.00000  Uiso   1.00
C756   C     0.16831   0.62399   0.74729   0.00000  Uiso   1.00
C757   C     0.32211   0.47392   0.71947   0.00000  Uiso   1.00
C758   C     0.01122   0.52608   0.78053   0.00000  Uiso   1.00
C759   C     0.03642   0.47370   0.71951   0.00000  Uiso   1.00
C760   C     0.29691   0.52630   0.78048   0.00000  Uiso   1.00
C761   C     0.13581   0.49970   0.83815   0.00000  Uiso   1.00
C762   C     0.19752   0.50030   0.66185   0.00000  Uiso   1.00
C763   C     0.11595   0.50118   0.88974   0.00000  Uiso   1.00
C764   C     0.21738   0.49882   0.61026   0.00000  Uiso   1.00
C765   C     0.05998   0.53110   0.96514   0.00000  Uiso   1.00
C766   C     0.27335   0.46890   0.53486   0.00000  Uiso   1.00
C767   C     0.07396   0.52461   0.91670   0.00000  Uiso   1.00
C768   C     0.25937   0.47539   0.58330   0.00000  Uiso   1.00
C769   C     0.14324   0.48345   0.91187   0.00000  Uiso   1.00
C770   C     0.19010   0.51655   0.58813   0.00000  Uiso   1.00
C771   C     0.13616   0.49838   0.95778   0.00000  Uiso   1.00
C772   C     0.19717   0.50162   0.54222   0.00000  Uiso   1.00
C773   C     0.09127   0.51889   0.98616   0.00000  Uiso   1.00
C774   C     0.24206   0.48111   0.51384   0.00000  Uiso   1.00
C775   C     0.17253   0.49477   0.97585   0.00000  Uiso   1.00
C776   C     0.16081   0.50523   0.52415   0.00000  Uiso   1.00
H777   H     0.28169   0.46240   0.59931   0.00000  Uiso   1.00
H778   H     0.05164   0.53760   0.90069   0.00000  Uiso   1.00
H779   H     0.02609   0.54773   0.98510   0.00000  Uiso   1.00
H780   H     0.30724   0.45227   0.51490   0.00000  Uiso   1.00
H781   H     0.09997   0.51830   0.59149   0.00000  Uiso   1.00
H782   H     0.23336   0.48170   0.90851   0.00000  Uiso   1.00
H783   H     0.24342   0.37120   0.72652   0.00000  Uiso   1.00
H784   H     0.08992   0.62880   0.77348   0.00000  Uiso   1.00
N785   N     0.04759   0.50001   0.75001   0.00000  Uiso   1.00
N786   N     0.28574   0.49999   0.74999   0.00000  Uiso   1.00
O787   O     0.12846   0.56108   0.75000   0.00000  Uiso   1.00
O788   O     0.20488   0.43892   0.74999   0.00000  Uiso   1.00
O789   O     0.20490   0.56107   0.75000   0.00000  Uiso   1.00
O790   O     0.12843   0.43893   0.75000   0.00000  Uiso   1.00
O791   O     0.10661   0.50001   0.81612   0.00000  Uiso   1.00
O792   O     0.22672   0.49999   0.68387   0.00000  Uiso   1.00
O793   O     0.18305   0.50000   0.81612   0.00000  Uiso   1.00
O794   O     0.15028   0.50000   0.68388   0.00000  Uiso   1.00
Zn795  Zn    0.11562   0.50001   0.75000   0.00000  Uiso   1.00
Zn796  Zn    0.21771   0.49999   0.75000   0.00000  Uiso   1.00
I797   I     0.01098   0.55189   0.58250   0.00000  Uiso   1.00
I798   I     0.32236   0.44811   0.91750   0.00000  Uiso   1.00
I799   I     0.15425   0.57530   0.61806   0.00000  Uiso   1.00
I800   I     0.17909   0.42470   0.88194   0.00000  Uiso   1.00
I801   I     0.28405   0.61955   0.70237   0.00000  Uiso   1.00
I802   I     0.04929   0.38045   0.79763   0.00000  Uiso   1.00
I803   I     0.30791   0.43336   0.67071   0.00000  Uiso   1.00
I804   I     0.02542   0.56664   0.82929   0.00000  Uiso   1.00
I805   I     0.09004   0.43084   0.67138   0.00000  Uiso   1.00
I806   I     0.24329   0.56916   0.82862   0.00000  Uiso   1.00
C807   C     0.50087   0.57979   0.74831   0.00000  Uiso   1.00
C808   C     0.49913   0.42021   0.75169   0.00000  Uiso   1.00
C809   C     0.44571   0.51648   0.55353   0.00000  Uiso   1.00
C810   C     0.55429   0.48352   0.94647   0.00000  Uiso   1.00
C811   C     0.41226   0.52621   0.53469   0.00000  Uiso   1.00
C812   C     0.58774   0.47379   0.96531   0.00000  Uiso   1.00
C813   C     0.54543   0.64567   0.73319   0.00000  Uiso   1.00
C814   C     0.45457   0.35433   0.76681   0.00000  Uiso   1.00
C815   C     0.54307   0.35483   0.73696   0.00000  Uiso   1.00
C816   C     0.45693   0.64517   0.76304   0.00000  Uiso   1.00
C817   C     0.49836   0.37601   0.75271   0.00000  Uiso   1.00
C818   C     0.50164   0.62399   0.74729   0.00000  Uiso   1.00
C819   C     0.65544   0.47392   0.71947   0.00000  Uiso   1.00
C820   C     0.34455   0.52608   0.78053   0.00000  Uiso   1.00
C821   C     0.36975   0.47370   0.71951   0.00000  Uiso   1.00
C822   C     0.63025   0.52630   0.78048   0.00000  Uiso   1.00
C823   C     0.46914   0.49970   0.83815   0.00000  Uiso   1.00
C824   C     0.53086   0.50030   0.66185   0.00000  Uiso   1.00
C825   C     0.44928   0.50118   0.88974   0.00000  Uiso   1.00
C826   C     0.55072   0.49882   0.61026   0.00000  Uiso   1.00
C827   C     0.39331   0.53110   0.96514   0.00000  Uiso   1.00
C828   C     0.60669   0.46890   0.53486   0.00000  Uiso   1.00
C829   C     0.40729   0.52461   0.91670   0.00000  Uiso   1.00
C830   C     0.59271   0.47539   0.58330   0.00000  Uiso   1.00
C831   C     0.47657   0.48345   0.91187   0.00000  Uiso   1.00
C832   C     0.52343   0.51655   0.58813   0.00000  Uiso   1.00
C833   C     0.46950   0.49838   0.95778   0.00000  Uiso   1.00
C834   C     0.53050   0.50162   0.54222   0.00000  Uiso   1.00
C835   C     0.42461   0.51889   0.98616   0.00000  Uiso   1.00
C836   C     0.57539   0.48111   0.51384   0.00000  Uiso   1.00
C837   C     0.50586   0.49477   0.97585   0.00000  Uiso   1.00
C838   C     0.49414   0.50523   0.52415   0.00000  Uiso   1.00
H839   H     0.61502   0.46240   0.59931   0.00000  Uiso   1.00
H840   H     0.38498   0.53760   0.90069   0.00000  Uiso   1.00
H841   H     0.35943   0.54773   0.98510   0.00000  Uiso   1.00
H842   H     0.64057   0.45227   0.51490   0.00000  Uiso   1.00
H843   H     0.43331   0.51830   0.59149   0.00000  Uiso   1.00
H844   H     0.56669   0.48170   0.90851   0.00000  Uiso   1.00
H845   H     0.57675   0.37120   0.72652   0.00000  Uiso   1.00
H846   H     0.42325   0.62880   0.77348   0.00000  Uiso   1.00
N847   N     0.38093   0.50001   0.75001   0.00000  Uiso   1.00
N848   N     0.61907   0.49999   0.74999   0.00000  Uiso   1.00
O849   O     0.46179   0.56108   0.75000   0.00000  Uiso   1.00
O850   O     0.53821   0.43892   0.74999   0.00000  Uiso   1.00
O851   O     0.53823   0.56107   0.75000   0.00000  Uiso   1.00
O852   O     0.46177   0.43893   0.75000   0.00000  Uiso   1.00
O853   O     0.43994   0.50001   0.81612   0.00000  Uiso   1.00
O854   O     0.56006   0.49999   0.68387   0.00000  Uiso   1.00
O855   O     0.51639   0.50000   0.81612   0.00000  Uiso   1.00
O856   O     0.48361   0.50000   0.68388   0.00000  Uiso   1.00
Zn857  Zn    0.44896   0.50001   0.75000   0.00000  Uiso   1.00
Zn858  Zn    0.55104   0.49999   0.75000   0.00000  Uiso   1.00
I859   I     0.34431   0.55189   0.58250   0.00000  Uiso   1.00
I860   I     0.65569   0.44811   0.91750   0.00000  Uiso   1.00
I861   I     0.48758   0.57530   0.61806   0.00000  Uiso   1.00
I862   I     0.51242   0.42470   0.88194   0.00000  Uiso   1.00
I863   I     0.61738   0.61955   0.70237   0.00000  Uiso   1.00
I864   I     0.38262   0.38045   0.79763   0.00000  Uiso   1.00
I865   I     0.64124   0.43336   0.67071   0.00000  Uiso   1.00
I866   I     0.35875   0.56664   0.82929   0.00000  Uiso   1.00
I867   I     0.42337   0.43084   0.67138   0.00000  Uiso   1.00
I868   I     0.57663   0.56916   0.82862   0.00000  Uiso   1.00
C869   C     0.83420   0.57979   0.74831   0.00000  Uiso   1.00
C870   C     0.83246   0.42021   0.75169   0.00000  Uiso   1.00
C871   C     0.77904   0.51648   0.55353   0.00000  Uiso   1.00
C872   C     0.88762   0.48352   0.94647   0.00000  Uiso   1.00
C873   C     0.74560   0.52621   0.53469   0.00000  Uiso   1.00
C874   C     0.92107   0.47379   0.96531   0.00000  Uiso   1.00
C875   C     0.87877   0.64567   0.73319   0.00000  Uiso   1.00
C876   C     0.78790   0.35433   0.76681   0.00000  Uiso   1.00
C877   C     0.87640   0.35483   0.73696   0.00000  Uiso   1.00
C878   C     0.79027   0.64517   0.76304   0.00000  Uiso   1.00
C879   C     0.83169   0.37601   0.75271   0.00000  Uiso   1.00
C880   C     0.83497   0.62399   0.74729   0.00000  Uiso   1.00
C881   C     0.98878   0.47392   0.71947   0.00000  Uiso   1.00
C882   C     0.67789   0.52608   0.78053   0.00000  Uiso   1.00
C883   C     0.70309   0.47370   0.71951   0.00000  Uiso   1.00
C884   C     0.96358   0.52630   0.78048   0.00000  Uiso   1.00
C885   C     0.80248   0.49970   0.83815   0.00000  Uiso   1.00
C886   C     0.86419   0.50030   0.66185   0.00000  Uiso   1.00
C887   C     0.78262   0.50118   0.88974   0.00000  Uiso   1.00
C888   C     0.88405   0.49882   0.61026   0.00000  Uiso   1.00
C889   C     0.72665   0.53110   0.96514   0.00000  Uiso   1.00
C890   C     0.94002   0.46890   0.53486   0.00000  Uiso   1.00
C891   C     0.74063   0.52461   0.91670   0.00000  Uiso   1.00
C892   C     0.92604   0.47539   0.58330   0.00000  Uiso   1.00
C893   C     0.80990   0.48345   0.91187   0.00000  Uiso   1.00
C894   C     0.85676   0.51655   0.58813   0.00000  Uiso   1.00
C895   C     0.80283   0.49838   0.95778   0.00000  Uiso   1.00
C896   C     0.86384   0.50162   0.54222   0.00000  Uiso   1.00
C897   C     0.75794   0.51889   0.98616   0.00000  Uiso   1.00
C898   C     0.90873   0.48111   0.51384   0.00000  Uiso   1.00
C899   C     0.83919   0.49477   0.97585   0.00000  Uiso   1.00
C900   C     0.82747   0.50523   0.52415   0.00000  Uiso   1.00
H901   H     0.94836   0.46240   0.59931   0.00000  Uiso   1.00
H902   H     0.71831   0.53760   0.90069   0.00000  Uiso   1.00
H903   H     0.69276   0.54773   0.98510   0.00000  Uiso   1.00
H904   H     0.97391   0.45227   0.51490   0.00000  Uiso   1.00
H905   H     0.76664   0.51830   0.59149   0.00000  Uiso   1.00
H906   H     0.90003   0.48170   0.90851   0.00000  Uiso   1.00
H907   H     0.91008   0.37120   0.72652   0.00000  Uiso   1.00
H908   H     0.75658   0.62880   0.77348   0.00000  Uiso   1.00
N909   N     0.71426   0.50001   0.75001   0.00000  Uiso   1.00
N910   N     0.95241   0.49999   0.74999   0.00000  Uiso   1.00
O911   O     0.79512   0.56108   0.75000   0.00000  Uiso   1.00
O912   O     0.87154   0.43892   0.74999   0.00000  Uiso   1.00
O913   O     0.87157   0.56107   0.75000   0.00000  Uiso   1.00
O914   O     0.79510   0.43893   0.75000   0.00000  Uiso   1.00
O915   O     0.77328   0.50001   0.81612   0.00000  Uiso   1.00
O916   O     0.89339   0.49999   0.68387   0.00000  Uiso   1.00
O917   O     0.84972   0.50000   0.81612   0.00000  Uiso   1.00
O918   O     0.81695   0.50000   0.68388   0.00000  Uiso   1.00
Zn919  Zn    0.78229   0.50001   0.75000   0.00000  Uiso   1.00
Zn920  Zn    0.88438   0.49999   0.75000   0.00000  Uiso   1.00
I921   I     0.67764   0.55189   0.58250   0.00000  Uiso   1.00
I922   I     0.98902   0.44811   0.91750   0.00000  Uiso   1.00
I923   I     0.82091   0.57530   0.61806   0.00000  Uiso   1.00
I924   I     0.84575   0.42470   0.88194   0.00000  Uiso   1.00
I925   I     0.95071   0.61955   0.70237   0.00000  Uiso   1.00
I926   I     0.71595   0.38045   0.79763   0.00000  Uiso   1.00
I927   I     0.97458   0.43336   0.67071   0.00000  Uiso   1.00
I928   I     0.69209   0.56664   0.82929   0.00000  Uiso   1.00
I929   I     0.75670   0.43084   0.67138   0.00000  Uiso   1.00
I930   I     0.90996   0.56916   0.82862   0.00000  Uiso   1.00
C931   C     0.16754   0.91312   0.74831   0.00000  Uiso   1.00
C932   C     0.16580   0.75355   0.75169   0.00000  Uiso   1.00
C933   C     0.11238   0.84981   0.55353   0.00000  Uiso   1.00
C934   C     0.22096   0.81686   0.94647   0.00000  Uiso   1.00
C935   C     0.07893   0.85955   0.53469   0.00000  Uiso   1.00
C936   C     0.25440   0.80712   0.96531   0.00000  Uiso   1.00
C937   C     0.21210   0.97900   0.73319   0.00000  Uiso   1.00
C938   C     0.12123   0.68767   0.76681   0.00000  Uiso   1.00
C939   C     0.20973   0.68816   0.73696   0.00000  Uiso   1.00
C940   C     0.12360   0.97850   0.76304   0.00000  Uiso   1.00
C941   C     0.16503   0.70934   0.75271   0.00000  Uiso   1.00
C942   C     0.16831   0.95732   0.74729   0.00000  Uiso   1.00
C943   C     0.32211   0.80725   0.71947   0.00000  Uiso   1.00
C944   C     0.01122   0.85941   0.78053   0.00000  Uiso   1.00
C945   C     0.03642   0.80703   0.71951   0.00000  Uiso   1.00
C946   C     0.29691   0.85964   0.78048   0.00000  Uiso   1.00
C947   C     0.13581   0.83303   0.83815   0.00000  Uiso   1.00
C948   C     0.19752   0.83364   0.66185   0.00000  Uiso   1.00
C949   C     0.11595   0.83452   0.88974   0.00000  Uiso   1.00
C950   C     0.21738   0.83215   0.61026   0.00000  Uiso   1.00
C951   C     0.05998   0.86443   0.96514   0.00000  Uiso   1.00
C952   C     0.27335   0.80223   0.53486   0.00000  Uiso   1.00
C953   C     0.07396   0.85794   0.91670   0.00000  Uiso   1.00
C954   C     0.25937   0.80872   0.58330   0.00000  Uiso   1.00
C955   C     0.14324   0.81678   0.91187   0.00000  Uiso   1.00
C956   C     0.19010   0.84989   0.58813   0.00000  Uiso   1.00
C957   C     0.13616   0.83171   0.95778   0.00000  Uiso   1.00
C958   C     0.19717   0.83496   0.54222   0.00000  Uiso   1.00
C959   C     0.09127   0.85222   0.98616   0.00000  Uiso   1.00
C960   C     0.24206   0.81445   0.51384   0.00000  Uiso   1.00
C961   C     0.17253   0.82811   0.97585   0.00000  Uiso   1.00
C962   C     0.16081   0.83856   0.52415   0.00000  Uiso   1.00
H963   H     0.28169   0.79573   0.59931   0.00000  Uiso   1.00
H964   H     0.05164   0.87094   0.90069   0.00000  Uiso   1.00
H965   H     0.02609   0.88106   0.98510   0.00000  Uiso   1.00
H966   H     0.30724   0.78561   0.51490   0.00000  Uiso   1.00
H967   H     0.09997   0.85164   0.59149   0.00000  Uiso   1.00
H968   H     0.23336   0.81503   0.90851   0.00000  Uiso   1.00
H969   H     0.24342   0.70453   0.72652   0.00000  Uiso   1.00
H970   H     0.08992   0.96214   0.77348   0.00000  Uiso   1.00
N971   N     0.04759   0.83334   0.75001   0.00000  Uiso   1.00
N972   N     0.28574   0.83332   0.74999   0.00000  Uiso   1.00
O973   O     0.12846   0.89442   0.75000   0.00000  Uiso   1.00
O974   O     0.20488   0.77225   0.74999   0.00000  Uiso   1.00
O975   O     0.20490   0.89441   0.75000   0.00000  Uiso   1.00
O976   O     0.12843   0.77226   0.75000   0.00000  Uiso   1.00
O977   O     0.10661   0.83334   0.81612   0.00000  Uiso   1.00
O978   O     0.22672   0.83333   0.68387   0.00000  Uiso   1.00
O979   O     0.18305   0.83333   0.81612   0.00000  Uiso   1.00
O980   O     0.15028   0.83334   0.68388   0.00000  Uiso   1.00
Zn981  Zn    0.11562   0.83334   0.75000   0.00000  Uiso   1.00
Zn982  Zn    0.21771   0.83333   0.75000   0.00000  Uiso   1.00
I983   I     0.01098   0.88522   0.58250   0.00000  Uiso   1.00
I984   I     0.32236   0.78145   0.91750   0.00000  Uiso   1.00
I985   I     0.15425   0.90863   0.61806   0.00000  Uiso   1.00
I986   I     0.17909   0.75804   0.88194   0.00000  Uiso   1.00
I987   I     0.28405   0.95288   0.70237   0.00000  Uiso   1.00
I988   I     0.04929   0.71378   0.79763   0.00000  Uiso   1.00
I989   I     0.30791   0.76670   0.67071   0.00000  Uiso   1.00
I990   I     0.02542   0.89997   0.82929   0.00000  Uiso   1.00
I991   I     0.09004   0.76417   0.67138   0.00000  Uiso   1.00
I992   I     0.24329   0.90249   0.82862   0.00000  Uiso   1.00
C993   C     0.50087   0.91312   0.74831   0.00000  Uiso   1.00
C994   C     0.49913   0.75355   0.75169   0.00000  Uiso   1.00
C995   C     0.44571   0.84981   0.55353   0.00000  Uiso   1.00
C996   C     0.55429   0.81686   0.94647   0.00000  Uiso   1.00
C997   C     0.41226   0.85955   0.53469   0.00000  Uiso   1.00
C998   C     0.58774   0.80712   0.96531   0.00000  Uiso   1.00
C999   C     0.54543   0.97900   0.73319   0.00000  Uiso   1.00
C1000  C     0.45457   0.68767   0.76681   0.00000  Uiso   1.00
C1001  C     0.54307   0.68816   0.73696   0.00000  Uiso   1.00
C1002  C     0.45693   0.97850   0.76304   0.00000  Uiso   1.00
C1003  C     0.49836   0.70934   0.75271   0.00000  Uiso   1.00
C1004  C     0.50164   0.95732   0.74729   0.00000  Uiso   1.00
C1005  C     0.65544   0.80725   0.71947   0.00000  Uiso   1.00
C1006  C     0.34455   0.85941   0.78053   0.00000  Uiso   1.00
C1007  C     0.36975   0.80703   0.71951   0.00000  Uiso   1.00
C1008  C     0.63025   0.85964   0.78048   0.00000  Uiso   1.00
C1009  C     0.46914   0.83303   0.83815   0.00000  Uiso   1.00
C1010  C     0.53086   0.83364   0.66185   0.00000  Uiso   1.00
C1011  C     0.44928   0.83452   0.88974   0.00000  Uiso   1.00
C1012  C     0.55072   0.83215   0.61026   0.00000  Uiso   1.00
C1013  C     0.39331   0.86443   0.96514   0.00000  Uiso   1.00
C1014  C     0.60669   0.80223   0.53486   0.00000  Uiso   1.00
C1015  C     0.40729   0.85794   0.91670   0.00000  Uiso   1.00
C1016  C     0.59271   0.80872   0.58330   0.00000  Uiso   1.00
C1017  C     0.47657   0.81678   0.91187   0.00000  Uiso   1.00
C1018  C     0.52343   0.84989   0.58813   0.00000  Uiso   1.00
C1019  C     0.46950   0.83171   0.95778   0.00000  Uiso   1.00
C1020  C     0.53050   0.83496   0.54222   0.00000  Uiso   1.00
C1021  C     0.42461   0.85222   0.98616   0.00000  Uiso   1.00
C1022  C     0.57539   0.81445   0.51384   0.00000  Uiso   1.00
C1023  C     0.50586   0.82811   0.97585   0.00000  Uiso   1.00
C1024  C     0.49414   0.83856   0.52415   0.00000  Uiso   1.00
H1025  H     0.61502   0.79573   0.59931   0.00000  Uiso   1.00
H1026  H     0.38498   0.87094   0.90069   0.00000  Uiso   1.00
H1027  H     0.35943   0.88106   0.98510   0.00000  Uiso   1.00
H1028  H     0.64057   0.78561   0.51490   0.00000  Uiso   1.00
H1029  H     0.43331   0.85164   0.59149   0.00000  Uiso   1.00
H1030  H     0.56669   0.81503   0.90851   0.00000  Uiso   1.00
H1031  H     0.57675   0.70453   0.72652   0.00000  Uiso   1.00
H1032  H     0.42325   0.96214   0.77348   0.00000  Uiso   1.00
N1033  N     0.38093   0.83334   0.75001   0.00000  Uiso   1.00
N1034  N     0.61907   0.83332   0.74999   0.00000  Uiso   1.00
O1035  O     0.46179   0.89442   0.75000   0.00000  Uiso   1.00
O1036  O     0.53821   0.77225   0.74999   0.00000  Uiso   1.00
O1037  O     0.53823   0.89441   0.75000   0.00000  Uiso   1.00
O1038  O     0.46177   0.77226   0.75000   0.00000  Uiso   1.00
O1039  O     0.43994   0.83334   0.81612   0.00000  Uiso   1.00
O1040  O     0.56006   0.83333   0.68387   0.00000  Uiso   1.00
O1041  O     0.51639   0.83333   0.81612   0.00000  Uiso   1.00
O1042  O     0.48361   0.83334   0.68388   0.00000  Uiso   1.00
Zn1043 Zn    0.44896   0.83334   0.75000   0.00000  Uiso   1.00
Zn1044 Zn    0.55104   0.83333   0.75000   0.00000  Uiso   1.00
I1045  I     0.34431   0.88522   0.58250   0.00000  Uiso   1.00
I1046  I     0.65569   0.78145   0.91750   0.00000  Uiso   1.00
I1047  I     0.48758   0.90863   0.61806   0.00000  Uiso   1.00
I1048  I     0.51242   0.75804   0.88194   0.00000  Uiso   1.00
I1049  I     0.61738   0.95288   0.70237   0.00000  Uiso   1.00
I1050  I     0.38262   0.71378   0.79763   0.00000  Uiso   1.00
I1051  I     0.64124   0.76670   0.67071   0.00000  Uiso   1.00
I1052  I     0.35875   0.89997   0.82929   0.00000  Uiso   1.00
I1053  I     0.42337   0.76417   0.67138   0.00000  Uiso   1.00
I1054  I     0.57663   0.90249   0.82862   0.00000  Uiso   1.00
C1055  C     0.83420   0.91312   0.74831   0.00000  Uiso   1.00
C1056  C     0.83246   0.75355   0.75169   0.00000  Uiso   1.00
C1057  C     0.77904   0.84981   0.55353   0.00000  Uiso   1.00
C1058  C     0.88762   0.81686   0.94647   0.00000  Uiso   1.00
C1059  C     0.74560   0.85955   0.53469   0.00000  Uiso   1.00
C1060  C     0.92107   0.80712   0.96531   0.00000  Uiso   1.00
C1061  C     0.87877   0.97900   0.73319   0.00000  Uiso   1.00
C1062  C     0.78790   0.68767   0.76681   0.00000  Uiso   1.00
C1063  C     0.87640   0.68816   0.73696   0.00000  Uiso   1.00
C1064  C     0.79027   0.97850   0.76304   0.00000  Uiso   1.00
C1065  C     0.83169   0.70934   0.75271   0.00000  Uiso   1.00
C1066  C     0.83497   0.95732   0.74729   0.00000  Uiso   1.00
C1067  C     0.98878   0.80725   0.71947   0.00000  Uiso   1.00
C1068  C     0.67789   0.85941   0.78053   0.00000  Uiso   1.00
C1069  C     0.70309   0.80703   0.71951   0.00000  Uiso   1.00
C1070  C     0.96358   0.85964   0.78048   0.00000  Uiso   1.00
C1071  C     0.80248   0.83303   0.83815   0.00000  Uiso   1.00
C1072  C     0.86419   0.83364   0.66185   0.00000  Uiso   1.00
C1073  C     0.78262   0.83452   0.88974   0.00000  Uiso   1.00
C1074  C     0.88405   0.83215   0.61026   0.00000  Uiso   1.00
C1075  C     0.72665   0.86443   0.96514   0.00000  Uiso   1.00
C1076  C     0.94002   0.80223   0.53486   0.00000  Uiso   1.00
C1077  C     0.74063   0.85794   0.91670   0.00000  Uiso   1.00
C1078  C     0.92604   0.80872   0.58330   0.00000  Uiso   1.00
C1079  C     0.80990   0.81678   0.91187   0.00000  Uiso   1.00
C1080  C     0.85676   0.84989   0.58813   0.00000  Uiso   1.00
C1081  C     0.80283   0.83171   0.95778   0.00000  Uiso   1.00
C1082  C     0.86384   0.83496   0.54222   0.00000  Uiso   1.00
C1083  C     0.75794   0.85222   0.98616   0.00000  Uiso   1.00
C1084  C     0.90873   0.81445   0.51384   0.00000  Uiso   1.00
C1085  C     0.83919   0.82811   0.97585   0.00000  Uiso   1.00
C1086  C     0.82747   0.83856   0.52415   0.00000  Uiso   1.00
H1087  H     0.94836   0.79573   0.59931   0.00000  Uiso   1.00
H1088  H     0.71831   0.87094   0.90069   0.00000  Uiso   1.00
H1089  H     0.69276   0.88106   0.98510   0.00000  Uiso   1.00
H1090  H     0.97391   0.78561   0.51490   0.00000  Uiso   1.00
H1091  H     0.76664   0.85164   0.59149   0.00000  Uiso   1.00
H1092  H     0.90003   0.81503   0.90851   0.00000  Uiso   1.00
H1093  H     0.91008   0.70453   0.72652   0.00000  Uiso   1.00
H1094  H     0.75658   0.96214   0.77348   0.00000  Uiso   1.00
N1095  N     0.71426   0.83334   0.75001   0.00000  Uiso   1.00
N1096  N     0.95241   0.83332   0.74999   0.00000  Uiso   1.00
O1097  O     0.79512   0.89442   0.75000   0.00000  Uiso   1.00
O1098  O     0.87154   0.77225   0.74999   0.00000  Uiso   1.00
O1099  O     0.87157   0.89441   0.75000   0.00000  Uiso   1.00
O1100  O     0.79510   0.77226   0.75000   0.00000  Uiso   1.00
O1101  O     0.77328   0.83334   0.81612   0.00000  Uiso   1.00
O1102  O     0.89339   0.83333   0.68387   0.00000  Uiso   1.00
O1103  O     0.84972   0.83333   0.81612   0.00000  Uiso   1.00
O1104  O     0.81695   0.83334   0.68388   0.00000  Uiso   1.00
Zn1105 Zn    0.78229   0.83334   0.75000   0.00000  Uiso   1.00
Zn1106 Zn    0.88438   0.83333   0.75000   0.00000  Uiso   1.00
I1107  I     0.67764   0.88522   0.58250   0.00000  Uiso   1.00
I1108  I     0.98902   0.78145   0.91750   0.00000  Uiso   1.00
I1109  I     0.82091   0.90863   0.61806   0.00000  Uiso   1.00
I1110  I     0.84575   0.75804   0.88194   0.00000  Uiso   1.00
I1111  I     0.95071   0.95288   0.70237   0.00000  Uiso   1.00
I1112  I     0.71595   0.71378   0.79763   0.00000  Uiso   1.00
I1113  I     0.97458   0.76670   0.67071   0.00000  Uiso   1.00
I1114  I     0.69209   0.89997   0.82929   0.00000  Uiso   1.00
I1115  I     0.75670   0.76417   0.67138   0.00000  Uiso   1.00
I1116  I     0.90996   0.90249   0.82862   0.00000  Uiso   1.00
loop_
_geom_bond_atom_site_label_1
_geom_bond_atom_site_label_2
_geom_bond_distance
_geom_bond_site_symmetry_2
_ccdc_geom_bond_type
C1     O45     1.293   .     A
C1     C12     1.428   .     S
C1     O43     1.303   .     A
C2     O46     1.293   .     A
C2     C11     1.428   .     S
C2     O44     1.303   .     A
C3     H37     1.079   .     S
C3     C32     1.408   .     A
C3     C5      1.388   .     A
C4     C6      1.388   .     A
C4     H38     1.079   .     S
C4     C31     1.408   .     A
C5     I53     2.121   .     S
C5     C587    1.402   1_554 S
C6     I54     2.121   .     S
C6     C588    1.402   .     S
C7     C12     1.407   .     A
C7     I57     2.134   .     S
C7     C195    1.370   .     S
C8     I58     2.134   .     S
C8     C11     1.407   .     A
C8     C382    1.370   1_545 S
C9     C11     1.395   .     A
C9     H39     1.078   .     S
C9     C379    1.370   1_545 S
C10    C12     1.395   .     A
C10    H40     1.078   .     S
C10    C194    1.370   .     S
C13    I59     2.120   .     S
C13    N42     1.374   .     A
C13    C77     1.430   .     S
C14    N41     1.374   .     A
C14    I60     2.120   .     S
C14    C140    1.430   1_455 S
C15    I61     2.145   .     S
C15    N41     1.378   .     A
C15    C137    1.430   1_455 S
C16    N42     1.378   .     A
C16    I62     2.145   .     S
C16    C76     1.430   .     S
C17    C19     1.461   .     S
C17    O49     1.305   .     A
C17    O47     1.307   .     A
C18    C20     1.461   .     S
C18    O50     1.305   .     A
C18    O48     1.307   .     A
C19    C23     1.397   .     A
C19    C25     1.396   .     A
C20    C26     1.396   .     A
C20    C24     1.397   .     A
C21    H35     1.081   .     S
C21    C23     1.390   .     A
C21    C29     1.403   .     A
C22    H36     1.081   .     S
C22    C24     1.390   .     A
C22    C30     1.403   .     A
C23    H34     1.074   .     S
C24    H33     1.074   .     S
C25    I56     2.154   .     S
C25    C27     1.409   .     A
C26    I55     2.154   .     S
C26    C28     1.409   .     A
C27    C29     1.421   .     A
C27    C31     1.417   .     A
C28    C30     1.421   .     A
C28    C32     1.417   .     A
C29    C563    1.402   .     S
C30    C564    1.402   1_554 S
C31    C590    1.414   .     S
C32    C589    1.414   1_554 S
N41    Zn51    2.041   .     S
N42    Zn52    2.041   .     S
O43    Zn51    2.008   .     S
O44    Zn52    2.008   .     S
O45    Zn52    2.007   .     S
O46    Zn51    2.007   .     S
O47    Zn51    1.952   .     S
O48    Zn52    1.952   .     S
O49    Zn52    1.887   .     S
O50    Zn51    1.887   .     S
C63    O107    1.293   .     A
C63    C74     1.428   .     S
C63    O105    1.303   .     A
C64    O108    1.293   .     A
C64    C73     1.428   .     S
C64    O106    1.303   .     A
C65    H99     1.079   .     S
C65    C94     1.408   .     A
C65    C67     1.388   .     A
C66    C68     1.388   .     A
C66    H100    1.079   .     S
C66    C93     1.408   .     A
C67    I115    2.121   .     S
C67    C649    1.402   1_554 S
C68    I116    2.121   .     S
C68    C650    1.402   .     S
C69    C74     1.407   .     A
C69    I119    2.134   .     S
C69    C257    1.370   .     S
C70    I120    2.134   .     S
C70    C73     1.407   .     A
C70    C444    1.370   1_545 S
C71    C73     1.395   .     A
C71    H101    1.078   .     S
C71    C441    1.370   1_545 S
C72    C74     1.395   .     A
C72    H102    1.078   .     S
C72    C256    1.370   .     S
C75    I121    2.120   .     S
C75    N104    1.374   .     A
C75    C139    1.430   .     S
C76    N103    1.374   .     A
C76    I122    2.120   .     S
C77    I123    2.145   .     S
C77    N103    1.378   .     A
C78    N104    1.378   .     A
C78    I124    2.145   .     S
C78    C138    1.430   .     S
C79    C81     1.461   .     S
C79    O111    1.305   .     A
C79    O109    1.307   .     A
C80    C82     1.461   .     S
C80    O112    1.305   .     A
C80    O110    1.307   .     A
C81    C85     1.397   .     A
C81    C87     1.396   .     A
C82    C88     1.396   .     A
C82    C86     1.397   .     A
C83    H97     1.081   .     S
C83    C85     1.390   .     A
C83    C91     1.403   .     A
C84    H98     1.081   .     S
C84    C86     1.390   .     A
C84    C92     1.403   .     A
C85    H96     1.074   .     S
C86    H95     1.074   .     S
C87    I118    2.154   .     S
C87    C89     1.409   .     A
C88    I117    2.154   .     S
C88    C90     1.409   .     A
C89    C91     1.421   .     A
C89    C93     1.417   .     A
C90    C92     1.421   .     A
C90    C94     1.417   .     A
C91    C625    1.402   .     S
C92    C626    1.402   1_554 S
C93    C652    1.414   .     S
C94    C651    1.414   1_554 S
N103   Zn113   2.041   .     S
N104   Zn114   2.041   .     S
O105   Zn113   2.008   .     S
O106   Zn114   2.008   .     S
O107   Zn114   2.007   .     S
O108   Zn113   2.007   .     S
O109   Zn113   1.952   .     S
O110   Zn114   1.952   .     S
O111   Zn114   1.887   .     S
O112   Zn113   1.887   .     S
C125   O169    1.293   .     A
C125   C136    1.428   .     S
C125   O167    1.303   .     A
C126   O170    1.293   .     A
C126   C135    1.428   .     S
C126   O168    1.303   .     A
C127   H161    1.079   .     S
C127   C156    1.408   .     A
C127   C129    1.388   .     A
C128   C130    1.388   .     A
C128   H162    1.079   .     S
C128   C155    1.408   .     A
C129   I177    2.121   .     S
C129   C711    1.402   1_554 S
C130   I178    2.121   .     S
C130   C712    1.402   .     S
C131   C136    1.407   .     A
C131   I181    2.134   .     S
C131   C319    1.370   .     S
C132   I182    2.134   .     S
C132   C135    1.407   .     A
C132   C506    1.370   1_545 S
C133   C135    1.395   .     A
C133   H163    1.078   .     S
C133   C503    1.370   1_545 S
C134   C136    1.395   .     A
C134   H164    1.078   .     S
C134   C318    1.370   .     S
C137   I183    2.120   .     S
C137   N166    1.374   .     A
C137   C15     1.430   1_655 S
C138   N165    1.374   .     A
C138   I184    2.120   .     S
C139   I185    2.145   .     S
C139   N165    1.378   .     A
C140   N166    1.378   .     A
C140   I186    2.145   .     S
C140   C14     1.430   1_655 S
C141   C143    1.461   .     S
C141   O173    1.305   .     A
C141   O171    1.307   .     A
C142   C144    1.461   .     S
C142   O174    1.305   .     A
C142   O172    1.307   .     A
C143   C147    1.397   .     A
C143   C149    1.396   .     A
C144   C150    1.396   .     A
C144   C148    1.397   .     A
C145   H159    1.081   .     S
C145   C147    1.390   .     A
C145   C153    1.403   .     A
C146   H160    1.081   .     S
C146   C148    1.390   .     A
C146   C154    1.403   .     A
C147   H158    1.074   .     S
C148   H157    1.074   .     S
C149   I180    2.154   .     S
C149   C151    1.409   .     A
C150   I179    2.154   .     S
C150   C152    1.409   .     A
C151   C153    1.421   .     A
C151   C155    1.417   .     A
C152   C154    1.421   .     A
C152   C156    1.417   .     A
C153   C687    1.402   .     S
C154   C688    1.402   1_554 S
C155   C714    1.414   .     S
C156   C713    1.414   1_554 S
N165   Zn175   2.041   .     S
N166   Zn176   2.041   .     S
O167   Zn175   2.008   .     S
O168   Zn176   2.008   .     S
O169   Zn176   2.007   .     S
O170   Zn175   2.007   .     S
O171   Zn175   1.952   .     S
O172   Zn176   1.952   .     S
O173   Zn176   1.887   .     S
O174   Zn175   1.887   .     S
C187   O231    1.293   .     A
C187   C198    1.428   .     S
C187   O229    1.303   .     A
C188   O232    1.293   .     A
C188   C197    1.428   .     S
C188   O230    1.303   .     A
C189   H223    1.079   .     S
C189   C218    1.408   .     A
C189   C191    1.388   .     A
C190   C192    1.388   .     A
C190   H224    1.079   .     S
C190   C217    1.408   .     A
C191   I239    2.121   .     S
C191   C773    1.402   1_554 S
C192   I240    2.121   .     S
C192   C774    1.402   .     S
C193   C198    1.407   .     A
C193   I243    2.134   .     S
C193   C381    1.370   .     S
C194   I244    2.134   .     S
C194   C197    1.407   .     A
C195   C197    1.395   .     A
C195   H225    1.078   .     S
C196   C198    1.395   .     A
C196   H226    1.078   .     S
C196   C380    1.370   .     S
C199   I245    2.120   .     S
C199   N228    1.374   .     A
C199   C263    1.430   .     S
C200   N227    1.374   .     A
C200   I246    2.120   .     S
C200   C326    1.430   1_455 S
C201   I247    2.145   .     S
C201   N227    1.378   .     A
C201   C323    1.430   1_455 S
C202   N228    1.378   .     A
C202   I248    2.145   .     S
C202   C262    1.430   .     S
C203   C205    1.461   .     S
C203   O235    1.305   .     A
C203   O233    1.307   .     A
C204   C206    1.461   .     S
C204   O236    1.305   .     A
C204   O234    1.307   .     A
C205   C209    1.397   .     A
C205   C211    1.396   .     A
C206   C212    1.396   .     A
C206   C210    1.397   .     A
C207   H221    1.081   .     S
C207   C209    1.390   .     A
C207   C215    1.403   .     A
C208   H222    1.081   .     S
C208   C210    1.390   .     A
C208   C216    1.403   .     A
C209   H220    1.074   .     S
C210   H219    1.074   .     S
C211   I242    2.154   .     S
C211   C213    1.409   .     A
C212   I241    2.154   .     S
C212   C214    1.409   .     A
C213   C215    1.421   .     A
C213   C217    1.417   .     A
C214   C216    1.421   .     A
C214   C218    1.417   .     A
C215   C749    1.402   .     S
C216   C750    1.402   1_554 S
C217   C776    1.414   .     S
C218   C775    1.414   1_554 S
N227   Zn237   2.041   .     S
N228   Zn238   2.041   .     S
O229   Zn237   2.008   .     S
O230   Zn238   2.008   .     S
O231   Zn238   2.007   .     S
O232   Zn237   2.007   .     S
O233   Zn237   1.952   .     S
O234   Zn238   1.952   .     S
O235   Zn238   1.887   .     S
O236   Zn237   1.887   .     S
C249   O293    1.293   .     A
C249   C260    1.428   .     S
C249   O291    1.303   .     A
C250   O294    1.293   .     A
C250   C259    1.428   .     S
C250   O292    1.303   .     A
C251   H285    1.079   .     S
C251   C280    1.408   .     A
C251   C253    1.388   .     A
C252   C254    1.388   .     A
C252   H286    1.079   .     S
C252   C279    1.408   .     A
C253   I301    2.121   .     S
C253   C835    1.402   1_554 S
C254   I302    2.121   .     S
C254   C836    1.402   .     S
C255   C260    1.407   .     A
C255   I305    2.134   .     S
C255   C443    1.370   .     S
C256   I306    2.134   .     S
C256   C259    1.407   .     A
C257   C259    1.395   .     A
C257   H287    1.078   .     S
C258   C260    1.395   .     A
C258   H288    1.078   .     S
C258   C442    1.370   .     S
C261   I307    2.120   .     S
C261   N290    1.374   .     A
C261   C325    1.430   .     S
C262   N289    1.374   .     A
C262   I308    2.120   .     S
C263   I309    2.145   .     S
C263   N289    1.378   .     A
C264   N290    1.378   .     A
C264   I310    2.145   .     S
C264   C324    1.430   .     S
C265   C267    1.461   .     S
C265   O297    1.305   .     A
C265   O295    1.307   .     A
C266   C268    1.461   .     S
C266   O298    1.305   .     A
C266   O296    1.307   .     A
C267   C271    1.397   .     A
C267   C273    1.396   .     A
C268   C274    1.396   .     A
C268   C272    1.397   .     A
C269   H283    1.081   .     S
C269   C271    1.390   .     A
C269   C277    1.403   .     A
C270   H284    1.081   .     S
C270   C272    1.390   .     A
C270   C278    1.403   .     A
C271   H282    1.074   .     S
C272   H281    1.074   .     S
C273   I304    2.154   .     S
C273   C275    1.409   .     A
C274   I303    2.154   .     S
C274   C276    1.409   .     A
C275   C277    1.421   .     A
C275   C279    1.417   .     A
C276   C278    1.421   .     A
C276   C280    1.417   .     A
C277   C811    1.402   .     S
C278   C812    1.402   1_554 S
C279   C838    1.414   .     S
C280   C837    1.414   1_554 S
N289   Zn299   2.041   .     S
N290   Zn300   2.041   .     S
O291   Zn299   2.008   .     S
O292   Zn300   2.008   .     S
O293   Zn300   2.007   .     S
O294   Zn299   2.007   .     S
O295   Zn299   1.952   .     S
O296   Zn300   1.952   .     S
O297   Zn300   1.887   .     S
O298   Zn299   1.887   .     S
C311   O355    1.293   .     A
C311   C322    1.428   .     S
C311   O353    1.303   .     A
C312   O356    1.293   .     A
C312   C321    1.428   .     S
C312   O354    1.303   .     A
C313   H347    1.079   .     S
C313   C342    1.408   .     A
C313   C315    1.388   .     A
C314   C316    1.388   .     A
C314   H348    1.079   .     S
C314   C341    1.408   .     A
C315   I363    2.121   .     S
C315   C897    1.402   1_554 S
C316   I364    2.121   .     S
C316   C898    1.402   .     S
C317   C322    1.407   .     A
C317   I367    2.134   .     S
C317   C505    1.370   .     S
C318   I368    2.134   .     S
C318   C321    1.407   .     A
C319   C321    1.395   .     A
C319   H349    1.078   .     S
C320   C322    1.395   .     A
C320   H350    1.078   .     S
C320   C504    1.370   .     S
C323   I369    2.120   .     S
C323   N352    1.374   .     A
C323   C201    1.430   1_655 S
C324   N351    1.374   .     A
C324   I370    2.120   .     S
C325   I371    2.145   .     S
C325   N351    1.378   .     A
C326   N352    1.378   .     A
C326   I372    2.145   .     S
C326   C200    1.430   1_655 S
C327   C329    1.461   .     S
C327   O359    1.305   .     A
C327   O357    1.307   .     A
C328   C330    1.461   .     S
C328   O360    1.305   .     A
C328   O358    1.307   .     A
C329   C333    1.397   .     A
C329   C335    1.396   .     A
C330   C336    1.396   .     A
C330   C334    1.397   .     A
C331   H345    1.081   .     S
C331   C333    1.390   .     A
C331   C339    1.403   .     A
C332   H346    1.081   .     S
C332   C334    1.390   .     A
C332   C340    1.403   .     A
C333   H344    1.074   .     S
C334   H343    1.074   .     S
C335   I366    2.154   .     S
C335   C337    1.409   .     A
C336   I365    2.154   .     S
C336   C338    1.409   .     A
C337   C339    1.421   .     A
C337   C341    1.417   .     A
C338   C340    1.421   .     A
C338   C342    1.417   .     A
C339   C873    1.402   .     S
C340   C874    1.402   1_554 S
C341   C900    1.414   .     S
C342   C899    1.414   1_554 S
N351   Zn361   2.041   .     S
N352   Zn362   2.041   .     S
O353   Zn361   2.008   .     S
O354   Zn362   2.008   .     S
O355   Zn362   2.007   .     S
O356   Zn361   2.007   .     S
O357   Zn361   1.952   .     S
O358   Zn362   1.952   .     S
O359   Zn362   1.887   .     S
O360   Zn361   1.887   .     S
C373   O417    1.293   .     A
C373   C384    1.428   .     S
C373   O415    1.303   .     A
C374   O418    1.293   .     A
C374   C383    1.428   .     S
C374   O416    1.303   .     A
C375   H409    1.079   .     S
C375   C404    1.408   .     A
C375   C377    1.388   .     A
C376   C378    1.388   .     A
C376   H410    1.079   .     S
C376   C403    1.408   .     A
C377   I425    2.121   .     S
C377   C959    1.402   1_554 S
C378   I426    2.121   .     S
C378   C960    1.402   .     S
C379   C384    1.407   .     A
C379   I429    2.134   .     S
C379   C9      1.370   1_565 S
C380   I430    2.134   .     S
C380   C383    1.407   .     A
C381   C383    1.395   .     A
C381   H411    1.078   .     S
C382   C384    1.395   .     A
C382   H412    1.078   .     S
C382   C8      1.370   1_565 S
C385   I431    2.120   .     S
C385   N414    1.374   .     A
C385   C449    1.430   .     S
C386   N413    1.374   .     A
C386   I432    2.120   .     S
C386   C512    1.430   1_455 S
C387   I433    2.145   .     S
C387   N413    1.378   .     A
C387   C509    1.430   1_455 S
C388   N414    1.378   .     A
C388   I434    2.145   .     S
C388   C448    1.430   .     S
C389   C391    1.461   .     S
C389   O421    1.305   .     A
C389   O419    1.307   .     A
C390   C392    1.461   .     S
C390   O422    1.305   .     A
C390   O420    1.307   .     A
C391   C395    1.397   .     A
C391   C397    1.396   .     A
C392   C398    1.396   .     A
C392   C396    1.397   .     A
C393   H407    1.081   .     S
C393   C395    1.390   .     A
C393   C401    1.403   .     A
C394   H408    1.081   .     S
C394   C396    1.390   .     A
C394   C402    1.403   .     A
C395   H406    1.074   .     S
C396   H405    1.074   .     S
C397   I428    2.154   .     S
C397   C399    1.409   .     A
C398   I427    2.154   .     S
C398   C400    1.409   .     A
C399   C401    1.421   .     A
C399   C403    1.417   .     A
C400   C402    1.421   .     A
C400   C404    1.417   .     A
C401   C935    1.402   .     S
C402   C936    1.402   1_554 S
C403   C962    1.414   .     S
C404   C961    1.414   1_554 S
N413   Zn423   2.041   .     S
N414   Zn424   2.041   .     S
O415   Zn423   2.008   .     S
O416   Zn424   2.008   .     S
O417   Zn424   2.007   .     S
O418   Zn423   2.007   .     S
O419   Zn423   1.952   .     S
O420   Zn424   1.952   .     S
O421   Zn424   1.887   .     S
O422   Zn423   1.887   .     S
C435   O479    1.293   .     A
C435   C446    1.428   .     S
C435   O477    1.303   .     A
C436   O480    1.293   .     A
C436   C445    1.428   .     S
C436   O478    1.303   .     A
C437   H471    1.079   .     S
C437   C466    1.408   .     A
C437   C439    1.388   .     A
C438   C440    1.388   .     A
C438   H472    1.079   .     S
C438   C465    1.408   .     A
C439   I487    2.121   .     S
C439   C1021   1.402   1_554 S
C440   I488    2.121   .     S
C440   C1022   1.402   .     S
C441   C446    1.407   .     A
C441   I491    2.134   .     S
C441   C71     1.370   1_565 S
C442   I492    2.134   .     S
C442   C445    1.407   .     A
C443   C445    1.395   .     A
C443   H473    1.078   .     S
C444   C446    1.395   .     A
C444   H474    1.078   .     S
C444   C70     1.370   1_565 S
C447   I493    2.120   .     S
C447   N476    1.374   .     A
C447   C511    1.430   .     S
C448   N475    1.374   .     A
C448   I494    2.120   .     S
C449   I495    2.145   .     S
C449   N475    1.378   .     A
C450   N476    1.378   .     A
C450   I496    2.145   .     S
C450   C510    1.430   .     S
C451   C453    1.461   .     S
C451   O483    1.305   .     A
C451   O481    1.307   .     A
C452   C454    1.461   .     S
C452   O484    1.305   .     A
C452   O482    1.307   .     A
C453   C457    1.397   .     A
C453   C459    1.396   .     A
C454   C460    1.396   .     A
C454   C458    1.397   .     A
C455   H469    1.081   .     S
C455   C457    1.390   .     A
C455   C463    1.403   .     A
C456   H470    1.081   .     S
C456   C458    1.390   .     A
C456   C464    1.403   .     A
C457   H468    1.074   .     S
C458   H467    1.074   .     S
C459   I490    2.154   .     S
C459   C461    1.409   .     A
C460   I489    2.154   .     S
C460   C462    1.409   .     A
C461   C463    1.421   .     A
C461   C465    1.417   .     A
C462   C464    1.421   .     A
C462   C466    1.417   .     A
C463   C997    1.402   .     S
C464   C998    1.402   1_554 S
C465   C1024   1.414   .     S
C466   C1023   1.414   1_554 S
N475   Zn485   2.041   .     S
N476   Zn486   2.041   .     S
O477   Zn485   2.008   .     S
O478   Zn486   2.008   .     S
O479   Zn486   2.007   .     S
O480   Zn485   2.007   .     S
O481   Zn485   1.952   .     S
O482   Zn486   1.952   .     S
O483   Zn486   1.887   .     S
O484   Zn485   1.887   .     S
C497   O541    1.293   .     A
C497   C508    1.428   .     S
C497   O539    1.303   .     A
C498   O542    1.293   .     A
C498   C507    1.428   .     S
C498   O540    1.303   .     A
C499   H533    1.079   .     S
C499   C528    1.408   .     A
C499   C501    1.388   .     A
C500   C502    1.388   .     A
C500   H534    1.079   .     S
C500   C527    1.408   .     A
C501   I549    2.121   .     S
C501   C1083   1.402   1_554 S
C502   I550    2.121   .     S
C502   C1084   1.402   .     S
C503   C508    1.407   .     A
C503   I553    2.134   .     S
C503   C133    1.370   1_565 S
C504   I554    2.134   .     S
C504   C507    1.407   .     A
C505   C507    1.395   .     A
C505   H535    1.078   .     S
C506   C508    1.395   .     A
C506   H536    1.078   .     S
C506   C132    1.370   1_565 S
C509   I555    2.120   .     S
C509   N538    1.374   .     A
C509   C387    1.430   1_655 S
C510   N537    1.374   .     A
C510   I556    2.120   .     S
C511   I557    2.145   .     S
C511   N537    1.378   .     A
C512   N538    1.378   .     A
C512   I558    2.145   .     S
C512   C386    1.430   1_655 S
C513   C515    1.461   .     S
C513   O545    1.305   .     A
C513   O543    1.307   .     A
C514   C516    1.461   .     S
C514   O546    1.305   .     A
C514   O544    1.307   .     A
C515   C519    1.397   .     A
C515   C521    1.396   .     A
C516   C522    1.396   .     A
C516   C520    1.397   .     A
C517   H531    1.081   .     S
C517   C519    1.390   .     A
C517   C525    1.403   .     A
C518   H532    1.081   .     S
C518   C520    1.390   .     A
C518   C526    1.403   .     A
C519   H530    1.074   .     S
C520   H529    1.074   .     S
C521   I552    2.154   .     S
C521   C523    1.409   .     A
C522   I551    2.154   .     S
C522   C524    1.409   .     A
C523   C525    1.421   .     A
C523   C527    1.417   .     A
C524   C526    1.421   .     A
C524   C528    1.417   .     A
C525   C1059   1.402   .     S
C526   C1060   1.402   1_554 S
C527   C1086   1.414   .     S
C528   C1085   1.414   1_554 S
N537   Zn547   2.041   .     S
N538   Zn548   2.041   .     S
O539   Zn547   2.008   .     S
O540   Zn548   2.008   .     S
O541   Zn548   2.007   .     S
O542   Zn547   2.007   .     S
O543   Zn547   1.952   .     S
O544   Zn548   1.952   .     S
O545   Zn548   1.887   .     S
O546   Zn547   1.887   .     S
C559   O603    1.293   .     A
C559   C570    1.428   .     S
C559   O601    1.303   .     A
C560   O604    1.293   .     A
C560   C569    1.428   .     S
C560   O602    1.303   .     A
C561   H595    1.079   .     S
C561   C590    1.408   .     A
C561   C563    1.388   .     A
C562   C564    1.388   .     A
C562   H596    1.079   .     S
C562   C589    1.408   .     A
C563   I611    2.121   .     S
C564   I612    2.121   .     S
C564   C30     1.402   1_556 S
C565   C570    1.407   .     A
C565   I615    2.134   .     S
C565   C753    1.370   .     S
C566   I616    2.134   .     S
C566   C569    1.407   .     A
C566   C940    1.370   1_545 S
C567   C569    1.395   .     A
C567   H597    1.078   .     S
C567   C937    1.370   1_545 S
C568   C570    1.395   .     A
C568   H598    1.078   .     S
C568   C752    1.370   .     S
C571   I617    2.120   .     S
C571   N600    1.374   .     A
C571   C635    1.430   .     S
C572   N599    1.374   .     A
C572   I618    2.120   .     S
C572   C698    1.430   1_455 S
C573   I619    2.145   .     S
C573   N599    1.378   .     A
C573   C695    1.430   1_455 S
C574   N600    1.378   .     A
C574   I620    2.145   .     S
C574   C634    1.430   .     S
C575   C577    1.461   .     S
C575   O607    1.305   .     A
C575   O605    1.307   .     A
C576   C578    1.461   .     S
C576   O608    1.305   .     A
C576   O606    1.307   .     A
C577   C581    1.397   .     A
C577   C583    1.396   .     A
C578   C584    1.396   .     A
C578   C582    1.397   .     A
C579   H593    1.081   .     S
C579   C581    1.390   .     A
C579   C587    1.403   .     A
C580   H594    1.081   .     S
C580   C582    1.390   .     A
C580   C588    1.403   .     A
C581   H592    1.074   .     S
C582   H591    1.074   .     S
C583   I614    2.154   .     S
C583   C585    1.409   .     A
C584   I613    2.154   .     S
C584   C586    1.409   .     A
C585   C587    1.421   .     A
C585   C589    1.417   .     A
C586   C588    1.421   .     A
C586   C590    1.417   .     A
C587   C5      1.402   1_556 S
C589   C32     1.414   1_556 S
N599   Zn609   2.041   .     S
N600   Zn610   2.041   .     S
O601   Zn609   2.008   .     S
O602   Zn610   2.008   .     S
O603   Zn610   2.007   .     S
O604   Zn609   2.007   .     S
O605   Zn609   1.952   .     S
O606   Zn610   1.952   .     S
O607   Zn610   1.887   .     S
O608   Zn609   1.887   .     S
C621   O665    1.293   .     A
C621   C632    1.428   .     S
C621   O663    1.303   .     A
C622   O666    1.293   .     A
C622   C631    1.428   .     S
C622   O664    1.303   .     A
C623   H657    1.079   .     S
C623   C652    1.408   .     A
C623   C625    1.388   .     A
C624   C626    1.388   .     A
C624   H658    1.079   .     S
C624   C651    1.408   .     A
C625   I673    2.121   .     S
C626   I674    2.121   .     S
C626   C92     1.402   1_556 S
C627   C632    1.407   .     A
C627   I677    2.134   .     S
C627   C815    1.370   .     S
C628   I678    2.134   .     S
C628   C631    1.407   .     A
C628   C1002   1.370   1_545 S
C629   C631    1.395   .     A
C629   H659    1.078   .     S
C629   C999    1.370   1_545 S
C630   C632    1.395   .     A
C630   H660    1.078   .     S
C630   C814    1.370   .     S
C633   I679    2.120   .     S
C633   N662    1.374   .     A
C633   C697    1.430   .     S
C634   N661    1.374   .     A
C634   I680    2.120   .     S
C635   I681    2.145   .     S
C635   N661    1.378   .     A
C636   N662    1.378   .     A
C636   I682    2.145   .     S
C636   C696    1.430   .     S
C637   C639    1.461   .     S
C637   O669    1.305   .     A
C637   O667    1.307   .     A
C638   C640    1.461   .     S
C638   O670    1.305   .     A
C638   O668    1.307   .     A
C639   C643    1.397   .     A
C639   C645    1.396   .     A
C640   C646    1.396   .     A
C640   C644    1.397   .     A
C641   H655    1.081   .     S
C641   C643    1.390   .     A
C641   C649    1.403   .     A
C642   H656    1.081   .     S
C642   C644    1.390   .     A
C642   C650    1.403   .     A
C643   H654    1.074   .     S
C644   H653    1.074   .     S
C645   I676    2.154   .     S
C645   C647    1.409   .     A
C646   I675    2.154   .     S
C646   C648    1.409   .     A
C647   C649    1.421   .     A
C647   C651    1.417   .     A
C648   C650    1.421   .     A
C648   C652    1.417   .     A
C649   C67     1.402   1_556 S
C651   C94     1.414   1_556 S
N661   Zn671   2.041   .     S
N662   Zn672   2.041   .     S
O663   Zn671   2.008   .     S
O664   Zn672   2.008   .     S
O665   Zn672   2.007   .     S
O666   Zn671   2.007   .     S
O667   Zn671   1.952   .     S
O668   Zn672   1.952   .     S
O669   Zn672   1.887   .     S
O670   Zn671   1.887   .     S
C683   O727    1.293   .     A
C683   C694    1.428   .     S
C683   O725    1.303   .     A
C684   O728    1.293   .     A
C684   C693    1.428   .     S
C684   O726    1.303   .     A
C685   H719    1.079   .     S
C685   C714    1.408   .     A
C685   C687    1.388   .     A
C686   C688    1.388   .     A
C686   H720    1.079   .     S
C686   C713    1.408   .     A
C687   I735    2.121   .     S
C688   I736    2.121   .     S
C688   C154    1.402   1_556 S
C689   C694    1.407   .     A
C689   I739    2.134   .     S
C689   C877    1.370   .     S
C690   I740    2.134   .     S
C690   C693    1.407   .     A
C690   C1064   1.370   1_545 S
C691   C693    1.395   .     A
C691   H721    1.078   .     S
C691   C1061   1.370   1_545 S
C692   C694    1.395   .     A
C692   H722    1.078   .     S
C692   C876    1.370   .     S
C695   I741    2.120   .     S
C695   N724    1.374   .     A
C695   C573    1.430   1_655 S
C696   N723    1.374   .     A
C696   I742    2.120   .     S
C697   I743    2.145   .     S
C697   N723    1.378   .     A
C698   N724    1.378   .     A
C698   I744    2.145   .     S
C698   C572    1.430   1_655 S
C699   C701    1.461   .     S
C699   O731    1.305   .     A
C699   O729    1.307   .     A
C700   C702    1.461   .     S
C700   O732    1.305   .     A
C700   O730    1.307   .     A
C701   C705    1.397   .     A
C701   C707    1.396   .     A
C702   C708    1.396   .     A
C702   C706    1.397   .     A
C703   H717    1.081   .     S
C703   C705    1.390   .     A
C703   C711    1.403   .     A
C704   H718    1.081   .     S
C704   C706    1.390   .     A
C704   C712    1.403   .     A
C705   H716    1.074   .     S
C706   H715    1.074   .     S
C707   I738    2.154   .     S
C707   C709    1.409   .     A
C708   I737    2.154   .     S
C708   C710    1.409   .     A
C709   C711    1.421   .     A
C709   C713    1.417   .     A
C710   C712    1.421   .     A
C710   C714    1.417   .     A
C711   C129    1.402   1_556 S
C713   C156    1.414   1_556 S
N723   Zn733   2.041   .     S
N724   Zn734   2.041   .     S
O725   Zn733   2.008   .     S
O726   Zn734   2.008   .     S
O727   Zn734   2.007   .     S
O728   Zn733   2.007   .     S
O729   Zn733   1.952   .     S
O730   Zn734   1.952   .     S
O731   Zn734   1.887   .     S
O732   Zn733   1.887   .     S
C745   O789    1.293   .     A
C745   C756    1.428   .     S
C745   O787    1.303   .     A
C746   O790    1.293   .     A
C746   C755    1.428   .     S
C746   O788    1.303   .     A
C747   H781    1.079   .     S
C747   C776    1.408   .     A
C747   C749    1.388   .     A
C748   C750    1.388   .     A
C748   H782    1.079   .     S
C748   C775    1.408   .     A
C749   I797    2.121   .     S
C750   I798    2.121   .     S
C750   C216    1.402   1_556 S
C751   C756    1.407   .     A
C751   I801    2.134   .     S
C751   C939    1.370   .     S
C752   I802    2.134   .     S
C752   C755    1.407   .     A
C753   C755    1.395   .     A
C753   H783    1.078   .     S
C754   C756    1.395   .     A
C754   H784    1.078   .     S
C754   C938    1.370   .     S
C757   I803    2.120   .     S
C757   N786    1.374   .     A
C757   C821    1.430   .     S
C758   N785    1.374   .     A
C758   I804    2.120   .     S
C758   C884    1.430   1_455 S
C759   I805    2.145   .     S
C759   N785    1.378   .     A
C759   C881    1.430   1_455 S
C760   N786    1.378   .     A
C760   I806    2.145   .     S
C760   C820    1.430   .     S
C761   C763    1.461   .     S
C761   O793    1.305   .     A
C761   O791    1.307   .     A
C762   C764    1.461   .     S
C762   O794    1.305   .     A
C762   O792    1.307   .     A
C763   C767    1.397   .     A
C763   C769    1.396   .     A
C764   C770    1.396   .     A
C764   C768    1.397   .     A
C765   H779    1.081   .     S
C765   C767    1.390   .     A
C765   C773    1.403   .     A
C766   H780    1.081   .     S
C766   C768    1.390   .     A
C766   C774    1.403   .     A
C767   H778    1.074   .     S
C768   H777    1.074   .     S
C769   I800    2.154   .     S
C769   C771    1.409   .     A
C770   I799    2.154   .     S
C770   C772    1.409   .     A
C771   C773    1.421   .     A
C771   C775    1.417   .     A
C772   C774    1.421   .     A
C772   C776    1.417   .     A
C773   C191    1.402   1_556 S
C775   C218    1.414   1_556 S
N785   Zn795   2.041   .     S
N786   Zn796   2.041   .     S
O787   Zn795   2.008   .     S
O788   Zn796   2.008   .     S
O789   Zn796   2.007   .     S
O790   Zn795   2.007   .     S
O791   Zn795   1.952   .     S
O792   Zn796   1.952   .     S
O793   Zn796   1.887   .     S
O794   Zn795   1.887   .     S
C807   O851    1.293   .     A
C807   C818    1.428   .     S
C807   O849    1.303   .     A
C808   O852    1.293   .     A
C808   C817    1.428   .     S
C808   O850    1.303   .     A
C809   H843    1.079   .     S
C809   C838    1.408   .     A
C809   C811    1.388   .     A
C810   C812    1.388   .     A
C810   H844    1.079   .     S
C810   C837    1.408   .     A
C811   I859    2.121   .     S
C812   I860    2.121   .     S
C812   C278    1.402   1_556 S
C813   C818    1.407   .     A
C813   I863    2.134   .     S
C813   C1001   1.370   .     S
C814   I864    2.134   .     S
C814   C817    1.407   .     A
C815   C817    1.395   .     A
C815   H845    1.078   .     S
C816   C818    1.395   .     A
C816   H846    1.078   .     S
C816   C1000   1.370   .     S
C819   I865    2.120   .     S
C819   N848    1.374   .     A
C819   C883    1.430   .     S
C820   N847    1.374   .     A
C820   I866    2.120   .     S
C821   I867    2.145   .     S
C821   N847    1.378   .     A
C822   N848    1.378   .     A
C822   I868    2.145   .     S
C822   C882    1.430   .     S
C823   C825    1.461   .     S
C823   O855    1.305   .     A
C823   O853    1.307   .     A
C824   C826    1.461   .     S
C824   O856    1.305   .     A
C824   O854    1.307   .     A
C825   C829    1.397   .     A
C825   C831    1.396   .     A
C826   C832    1.396   .     A
C826   C830    1.397   .     A
C827   H841    1.081   .     S
C827   C829    1.390   .     A
C827   C835    1.403   .     A
C828   H842    1.081   .     S
C828   C830    1.390   .     A
C828   C836    1.403   .     A
C829   H840    1.074   .     S
C830   H839    1.074   .     S
C831   I862    2.154   .     S
C831   C833    1.409   .     A
C832   I861    2.154   .     S
C832   C834    1.409   .     A
C833   C835    1.421   .     A
C833   C837    1.417   .     A
C834   C836    1.421   .     A
C834   C838    1.417   .     A
C835   C253    1.402   1_556 S
C837   C280    1.414   1_556 S
N847   Zn857   2.041   .     S
N848   Zn858   2.041   .     S
O849   Zn857   2.008   .     S
O850   Zn858   2.008   .     S
O851   Zn858   2.007   .     S
O852   Zn857   2.007   .     S
O853   Zn857   1.952   .     S
O854   Zn858   1.952   .     S
O855   Zn858   1.887   .     S
O856   Zn857   1.887   .     S
C869   O913    1.293   .     A
C869   C880    1.428   .     S
C869   O911    1.303   .     A
C870   O914    1.293   .     A
C870   C879    1.428   .     S
C870   O912    1.303   .     A
C871   H905    1.079   .     S
C871   C900    1.408   .     A
C871   C873    1.388   .     A
C872   C874    1.388   .     A
C872   H906    1.079   .     S
C872   C899    1.408   .     A
C873   I921    2.121   .     S
C874   I922    2.121   .     S
C874   C340    1.402   1_556 S
C875   C880    1.407   .     A
C875   I925    2.134   .     S
C875   C1063   1.370   .     S
C876   I926    2.134   .     S
C876   C879    1.407   .     A
C877   C879    1.395   .     A
C877   H907    1.078   .     S
C878   C880    1.395   .     A
C878   H908    1.078   .     S
C878   C1062   1.370   .     S
C881   I927    2.120   .     S
C881   N910    1.374   .     A
C881   C759    1.430   1_655 S
C882   N909    1.374   .     A
C882   I928    2.120   .     S
C883   I929    2.145   .     S
C883   N909    1.378   .     A
C884   N910    1.378   .     A
C884   I930    2.145   .     S
C884   C758    1.430   1_655 S
C885   C887    1.461   .     S
C885   O917    1.305   .     A
C885   O915    1.307   .     A
C886   C888    1.461   .     S
C886   O918    1.305   .     A
C886   O916    1.307   .     A
C887   C891    1.397   .     A
C887   C893    1.396   .     A
C888   C894    1.396   .     A
C888   C892    1.397   .     A
C889   H903    1.081   .     S
C889   C891    1.390   .     A
C889   C897    1.403   .     A
C890   H904    1.081   .     S
C890   C892    1.390   .     A
C890   C898    1.403   .     A
C891   H902    1.074   .     S
C892   H901    1.074   .     S
C893   I924    2.154   .     S
C893   C895    1.409   .     A
C894   I923    2.154   .     S
C894   C896    1.409   .     A
C895   C897    1.421   .     A
C895   C899    1.417   .     A
C896   C898    1.421   .     A
C896   C900    1.417   .     A
C897   C315    1.402   1_556 S
C899   C342    1.414   1_556 S
N909   Zn919   2.041   .     S
N910   Zn920   2.041   .     S
O911   Zn919   2.008   .     S
O912   Zn920   2.008   .     S
O913   Zn920   2.007   .     S
O914   Zn919   2.007   .     S
O915   Zn919   1.952   .     S
O916   Zn920   1.952   .     S
O917   Zn920   1.887   .     S
O918   Zn919   1.887   .     S
C931   O975    1.293   .     A
C931   C942    1.428   .     S
C931   O973    1.303   .     A
C932   O976    1.293   .     A
C932   C941    1.428   .     S
C932   O974    1.303   .     A
C933   H967    1.079   .     S
C933   C962    1.408   .     A
C933   C935    1.388   .     A
C934   C936    1.388   .     A
C934   H968    1.079   .     S
C934   C961    1.408   .     A
C935   I983    2.121   .     S
C936   I984    2.121   .     S
C936   C402    1.402   1_556 S
C937   C942    1.407   .     A
C937   I987    2.134   .     S
C937   C567    1.370   1_565 S
C938   I988    2.134   .     S
C938   C941    1.407   .     A
C939   C941    1.395   .     A
C939   H969    1.078   .     S
C940   C942    1.395   .     A
C940   H970    1.078   .     S
C940   C566    1.370   1_565 S
C943   I989    2.120   .     S
C943   N972    1.374   .     A
C943   C1007   1.430   .     S
C944   N971    1.374   .     A
C944   I990    2.120   .     S
C944   C1070   1.430   1_455 S
C945   I991    2.145   .     S
C945   N971    1.378   .     A
C945   C1067   1.430   1_455 S
C946   N972    1.378   .     A
C946   I992    2.145   .     S
C946   C1006   1.430   .     S
C947   C949    1.461   .     S
C947   O979    1.305   .     A
C947   O977    1.307   .     A
C948   C950    1.461   .     S
C948   O980    1.305   .     A
C948   O978    1.307   .     A
C949   C953    1.397   .     A
C949   C955    1.396   .     A
C950   C956    1.396   .     A
C950   C954    1.397   .     A
C951   H965    1.081   .     S
C951   C953    1.390   .     A
C951   C959    1.403   .     A
C952   H966    1.081   .     S
C952   C954    1.390   .     A
C952   C960    1.403   .     A
C953   H964    1.074   .     S
C954   H963    1.074   .     S
C955   I986    2.154   .     S
C955   C957    1.409   .     A
C956   I985    2.154   .     S
C956   C958    1.409   .     A
C957   C959    1.421   .     A
C957   C961    1.417   .     A
C958   C960    1.421   .     A
C958   C962    1.417   .     A
C959   C377    1.402   1_556 S
C961   C404    1.414   1_556 S
N971   Zn981   2.041   .     S
N972   Zn982   2.041   .     S
O973   Zn981   2.008   .     S
O974   Zn982   2.008   .     S
O975   Zn982   2.007   .     S
O976   Zn981   2.007   .     S
O977   Zn981   1.952   .     S
O978   Zn982   1.952   .     S
O979   Zn982   1.887   .     S
O980   Zn981   1.887   .     S
C993   O1037   1.293   .     A
C993   C1004   1.428   .     S
C993   O1035   1.303   .     A
C994   O1038   1.293   .     A
C994   C1003   1.428   .     S
C994   O1036   1.303   .     A
C995   H1029   1.079   .     S
C995   C1024   1.408   .     A
C995   C997    1.388   .     A
C996   C998    1.388   .     A
C996   H1030   1.079   .     S
C996   C1023   1.408   .     A
C997   I1045   2.121   .     S
C998   I1046   2.121   .     S
C998   C464    1.402   1_556 S
C999   C1004   1.407   .     A
C999   I1049   2.134   .     S
C999   C629    1.370   1_565 S
C1000  I1050   2.134   .     S
C1000  C1003   1.407   .     A
C1001  C1003   1.395   .     A
C1001  H1031   1.078   .     S
C1002  C1004   1.395   .     A
C1002  H1032   1.078   .     S
C1002  C628    1.370   1_565 S
C1005  I1051   2.120   .     S
C1005  N1034   1.374   .     A
C1005  C1069   1.430   .     S
C1006  N1033   1.374   .     A
C1006  I1052   2.120   .     S
C1007  I1053   2.145   .     S
C1007  N1033   1.378   .     A
C1008  N1034   1.378   .     A
C1008  I1054   2.145   .     S
C1008  C1068   1.430   .     S
C1009  C1011   1.461   .     S
C1009  O1041   1.305   .     A
C1009  O1039   1.307   .     A
C1010  C1012   1.461   .     S
C1010  O1042   1.305   .     A
C1010  O1040   1.307   .     A
C1011  C1015   1.397   .     A
C1011  C1017   1.396   .     A
C1012  C1018   1.396   .     A
C1012  C1016   1.397   .     A
C1013  H1027   1.081   .     S
C1013  C1015   1.390   .     A
C1013  C1021   1.403   .     A
C1014  H1028   1.081   .     S
C1014  C1016   1.390   .     A
C1014  C1022   1.403   .     A
C1015  H1026   1.074   .     S
C1016  H1025   1.074   .     S
C1017  I1048   2.154   .     S
C1017  C1019   1.409   .     A
C1018  I1047   2.154   .     S
C1018  C1020   1.409   .     A
C1019  C1021   1.421   .     A
C1019  C1023   1.417   .     A
C1020  C1022   1.421   .     A
C1020  C1024   1.417   .     A
C1021  C439    1.402   1_556 S
C1023  C466    1.414   1_556 S
N1033  Zn1043  2.041   .     S
N1034  Zn1044  2.041   .     S
O1035  Zn1043  2.008   .     S
O1036  Zn1044  2.008   .     S
O1037  Zn1044  2.007   .     S
O1038  Zn1043  2.007   .     S
O1039  Zn1043  1.952   .     S
O1040  Zn1044  1.952   .     S
O1041  Zn1044  1.887   .     S
O1042  Zn1043  1.887   .     S
C1055  O1099   1.293   .     A
C1055  C1066   1.428   .     S
C1055  O1097   1.303   .     A
C1056  O1100   1.293   .     A
C1056  C1065   1.428   .     S
C1056  O1098   1.303   .     A
C1057  H1091   1.079   .     S
C1057  C1086   1.408   .     A
C1057  C1059   1.388   .     A
C1058  C1060   1.388   .     A
C1058  H1092   1.079   .     S
C1058  C1085   1.408   .     A
C1059  I1107   2.121   .     S
C1060  I1108   2.121   .     S
C1060  C526    1.402   1_556 S
C1061  C1066   1.407   .     A
C1061  I1111   2.134   .     S
C1061  C691    1.370   1_565 S
C1062  I1112   2.134   .     S
C1062  C1065   1.407   .     A
C1063  C1065   1.395   .     A
C1063  H1093   1.078   .     S
C1064  C1066   1.395   .     A
C1064  H1094   1.078   .     S
C1064  C690    1.370   1_565 S
C1067  I1113   2.120   .     S
C1067  N1096   1.374   .     A
C1067  C945    1.430   1_655 S
C1068  N1095   1.374   .     A
C1068  I1114   2.120   .     S
C1069  I1115   2.145   .     S
C1069  N1095   1.378   .     A
C1070  N1096   1.378   .     A
C1070  I1116   2.145   .     S
C1070  C944    1.430   1_655 S
C1071  C1073   1.461   .     S
C1071  O1103   1.305   .     A
C1071  O1101   1.307   .     A
C1072  C1074   1.461   .     S
C1072  O1104   1.305   .     A
C1072  O1102   1.307   .     A
C1073  C1077   1.397   .     A
C1073  C1079   1.396   .     A
C1074  C1080   1.396   .     A
C1074  C1078   1.397   .     A
C1075  H1089   1.081   .     S
C1075  C1077   1.390   .     A
C1075  C1083   1.403   .     A
C1076  H1090   1.081   .     S
C1076  C1078   1.390   .     A
C1076  C1084   1.403   .     A
C1077  H1088   1.074   .     S
C1078  H1087   1.074   .     S
C1079  I1110   2.154   .     S
C1079  C1081   1.409   .     A
C1080  I1109   2.154   .     S
C1080  C1082   1.409   .     A
C1081  C1083   1.421   .     A
C1081  C1085   1.417   .     A
C1082  C1084   1.421   .     A
C1082  C1086   1.417   .     A
C1083  C501    1.402   1_556 S
C1085  C528    1.414   1_556 S
N1095  Zn1105  2.041   .     S
N1096  Zn1106  2.041   .     S
O1097  Zn1105  2.008   .     S
O1098  Zn1106  2.008   .     S
O1099  Zn1106  2.007   .     S
O1100  Zn1105  2.007   .     S
O1101  Zn1105  1.952   .     S
O1102  Zn1106  1.952   .     S
O1103  Zn1106  1.887   .     S
O1104  Zn1105  1.887   .     S
