data_str_m3_o2_o10_pcu_sym.51
_audit_creation_date              2020-01-03
_audit_creation_method            'Materials Studio'
_symmetry_space_group_name_H-M    'P1'
_symmetry_Int_Tables_number       1
_symmetry_cell_setting            triclinic
loop_
_symmetry_equiv_pos_as_xyz
  x,y,z
_cell_length_a                    25.9487
_cell_length_b                    29.8894
_cell_length_c                    28.4355
_cell_angle_alpha                 91.4523
_cell_angle_beta                  98.8342
_cell_angle_gamma                 90.6428
loop_
_atom_site_label
_atom_site_type_symbol
_atom_site_fract_x
_atom_site_fract_y
_atom_site_fract_z
_atom_site_U_iso_or_equiv
_atom_site_adp_type
_atom_site_occupancy
C1     C     0.16615   0.16380   0.24939   0.00000  Uiso   1.00
C2     C     0.14604   0.21482   0.44405   0.00000  Uiso   1.00
C3     C     0.16405   0.25236   0.02632   0.00000  Uiso   1.00
C4     C     0.16428   0.25249   0.47307   0.00000  Uiso   1.00
C5     C     0.06716   0.24910   0.23768   0.00000  Uiso   1.00
C6     C     0.26617   0.25090   0.26233   0.00000  Uiso   1.00
C7     C     0.01238   0.24257   0.23216   0.00000  Uiso   1.00
C8     C     0.32094   0.25741   0.26791   0.00000  Uiso   1.00
C9     C     0.20731   0.05038   0.28736   0.00000  Uiso   1.00
C10    C     0.20568   0.45033   0.21916   0.00000  Uiso   1.00
C11    C     0.20062   0.09611   0.28732   0.00000  Uiso   1.00
C12    C     0.16697   0.33629   0.25067   0.00000  Uiso   1.00
C13    C     0.20035   0.40432   0.21970   0.00000  Uiso   1.00
C14    C     0.16959   0.11570   0.24879   0.00000  Uiso   1.00
C15    C     0.17258   0.38449   0.25260   0.00000  Uiso   1.00
C16    C     0.14510   0.08911   0.20963   0.00000  Uiso   1.00
C17    C     0.15075   0.41125   0.28597   0.00000  Uiso   1.00
C18    C     0.15399   0.04351   0.20929   0.00000  Uiso   1.00
C19    C     0.15607   0.45728   0.28478   0.00000  Uiso   1.00
C20    C     0.18389   0.02433   0.24844   0.00000  Uiso   1.00
C21    C     0.18349   0.47652   0.25168   0.00000  Uiso   1.00
C22    C     0.12011   0.23760   0.04605   0.00000  Uiso   1.00
C23    C     0.18386   0.28932   0.45046   0.00000  Uiso   1.00
C24    C     0.12383   0.23380   0.09569   0.00000  Uiso   1.00
C25    C     0.18787   0.28595   0.40168   0.00000  Uiso   1.00
C26    C     0.20875   0.26578   0.10801   0.00000  Uiso   1.00
C27    C     0.14607   0.21481   0.39453   0.00000  Uiso   1.00
C28    C     0.20883   0.26586   0.05849   0.00000  Uiso   1.00
H29    H     0.22990   0.03515   0.31790   0.00000  Uiso   1.00
H30    H     0.13130   0.18552   0.45958   0.00000  Uiso   1.00
H31    H     0.01244   0.20587   0.17402   0.00000  Uiso   1.00
H32    H     0.32094   0.29332   0.32664   0.00000  Uiso   1.00
H33    H     0.09327   0.13193   0.18483   0.00000  Uiso   1.00
H34    H     0.14356   0.37432   0.33848   0.00000  Uiso   1.00
H35    H     0.06997   0.24208   0.48823   0.00000  Uiso   1.00
H36    H     0.18157   0.33257   0.00222   0.00000  Uiso   1.00
H37    H     0.09883   0.19646   0.14064   0.00000  Uiso   1.00
H38    H     0.23077   0.30658   0.35750   0.00000  Uiso   1.00
H39    H     0.22629   0.46556   0.19314   0.00000  Uiso   1.00
H40    H     0.21977   0.11621   0.31737   0.00000  Uiso   1.00
H41    H     0.21775   0.38421   0.19422   0.00000  Uiso   1.00
H42    H     0.13454   0.02256   0.18005   0.00000  Uiso   1.00
H43    H     0.13777   0.47820   0.30901   0.00000  Uiso   1.00
H44    H     0.24288   0.27778   0.13186   0.00000  Uiso   1.00
H45    H     0.13025   0.18618   0.37283   0.00000  Uiso   1.00
H46    H     0.24375   0.27689   0.04536   0.00000  Uiso   1.00
N47    N     0.16667   0.24999   0.12623   0.00000  Uiso   1.00
N48    N     0.16667   0.25001   0.37376   0.00000  Uiso   1.00
O49    O     0.16667   0.18453   0.28974   0.00000  Uiso   1.00
O50    O     0.01317   0.28246   0.30658   0.00000  Uiso   1.00
O51    O     0.11070   0.10576   0.17260   0.00000  Uiso   1.00
O52    O     0.12070   0.39391   0.31715   0.00000  Uiso   1.00
O53    O     0.07307   0.22599   0.01850   0.00000  Uiso   1.00
O54    O     0.19999   0.32903   0.47438   0.00000  Uiso   1.00
O55    O     0.08328   0.21290   0.11245   0.00000  Uiso   1.00
O56    O     0.21386   0.31993   0.38315   0.00000  Uiso   1.00
O57    O     0.16666   0.31547   0.21026   0.00000  Uiso   1.00
O58    O     0.16667   0.18453   0.21026   0.00000  Uiso   1.00
O59    O     0.16666   0.31547   0.28974   0.00000  Uiso   1.00
O60    O     0.09058   0.25000   0.28044   0.00000  Uiso   1.00
O61    O     0.24275   0.25000   0.21955   0.00000  Uiso   1.00
O62    O     0.09058   0.25000   0.20096   0.00000  Uiso   1.00
O63    O     0.24275   0.25000   0.29903   0.00000  Uiso   1.00
O64    O     0.32013   0.21736   0.19363   0.00000  Uiso   1.00
Zn65   Zn    0.16667   0.25000   0.30307   0.00000  Uiso   1.00
Zn66   Zn    0.16667   0.24999   0.19693   0.00000  Uiso   1.00
C67    C     0.49949   0.16380   0.24939   0.00000  Uiso   1.00
C68    C     0.47937   0.21482   0.44405   0.00000  Uiso   1.00
C69    C     0.49739   0.25236   0.02632   0.00000  Uiso   1.00
C70    C     0.49761   0.25249   0.47307   0.00000  Uiso   1.00
C71    C     0.40049   0.24910   0.23768   0.00000  Uiso   1.00
C72    C     0.59950   0.25090   0.26233   0.00000  Uiso   1.00
C73    C     0.34571   0.24257   0.23216   0.00000  Uiso   1.00
C74    C     0.65428   0.25741   0.26791   0.00000  Uiso   1.00
C75    C     0.54064   0.05038   0.28736   0.00000  Uiso   1.00
C76    C     0.53901   0.45033   0.21916   0.00000  Uiso   1.00
C77    C     0.53395   0.09611   0.28732   0.00000  Uiso   1.00
C78    C     0.50031   0.33629   0.25067   0.00000  Uiso   1.00
C79    C     0.53369   0.40432   0.21970   0.00000  Uiso   1.00
C80    C     0.50293   0.11570   0.24879   0.00000  Uiso   1.00
C81    C     0.50592   0.38449   0.25260   0.00000  Uiso   1.00
C82    C     0.47843   0.08911   0.20963   0.00000  Uiso   1.00
C83    C     0.48409   0.41125   0.28597   0.00000  Uiso   1.00
C84    C     0.48732   0.04351   0.20929   0.00000  Uiso   1.00
C85    C     0.48940   0.45728   0.28478   0.00000  Uiso   1.00
C86    C     0.51722   0.02433   0.24844   0.00000  Uiso   1.00
C87    C     0.51682   0.47652   0.25168   0.00000  Uiso   1.00
C88    C     0.45345   0.23760   0.04605   0.00000  Uiso   1.00
C89    C     0.51719   0.28932   0.45046   0.00000  Uiso   1.00
C90    C     0.45716   0.23380   0.09569   0.00000  Uiso   1.00
C91    C     0.52120   0.28595   0.40168   0.00000  Uiso   1.00
C92    C     0.54208   0.26578   0.10801   0.00000  Uiso   1.00
C93    C     0.47941   0.21481   0.39453   0.00000  Uiso   1.00
C94    C     0.54216   0.26586   0.05849   0.00000  Uiso   1.00
H95    H     0.56323   0.03515   0.31790   0.00000  Uiso   1.00
H96    H     0.46463   0.18552   0.45958   0.00000  Uiso   1.00
H97    H     0.34577   0.20587   0.17402   0.00000  Uiso   1.00
H98    H     0.65428   0.29332   0.32664   0.00000  Uiso   1.00
H99    H     0.42661   0.13193   0.18483   0.00000  Uiso   1.00
H100   H     0.47689   0.37432   0.33848   0.00000  Uiso   1.00
H101   H     0.40330   0.24208   0.48823   0.00000  Uiso   1.00
H102   H     0.51491   0.33257   0.00222   0.00000  Uiso   1.00
H103   H     0.43216   0.19646   0.14064   0.00000  Uiso   1.00
H104   H     0.56410   0.30658   0.35750   0.00000  Uiso   1.00
H105   H     0.55962   0.46556   0.19314   0.00000  Uiso   1.00
H106   H     0.55310   0.11621   0.31737   0.00000  Uiso   1.00
H107   H     0.55108   0.38421   0.19422   0.00000  Uiso   1.00
H108   H     0.46787   0.02256   0.18005   0.00000  Uiso   1.00
H109   H     0.47110   0.47820   0.30901   0.00000  Uiso   1.00
H110   H     0.57622   0.27778   0.13186   0.00000  Uiso   1.00
H111   H     0.46359   0.18618   0.37283   0.00000  Uiso   1.00
H112   H     0.57708   0.27689   0.04536   0.00000  Uiso   1.00
N113   N     0.50000   0.24999   0.12623   0.00000  Uiso   1.00
N114   N     0.50000   0.25001   0.37376   0.00000  Uiso   1.00
O115   O     0.50000   0.18453   0.28974   0.00000  Uiso   1.00
O116   O     0.34651   0.28246   0.30658   0.00000  Uiso   1.00
O117   O     0.44403   0.10576   0.17260   0.00000  Uiso   1.00
O118   O     0.45404   0.39391   0.31715   0.00000  Uiso   1.00
O119   O     0.40641   0.22599   0.01850   0.00000  Uiso   1.00
O120   O     0.53332   0.32903   0.47438   0.00000  Uiso   1.00
O121   O     0.41661   0.21290   0.11245   0.00000  Uiso   1.00
O122   O     0.54720   0.31993   0.38315   0.00000  Uiso   1.00
O123   O     0.50000   0.31547   0.21026   0.00000  Uiso   1.00
O124   O     0.50000   0.18453   0.21026   0.00000  Uiso   1.00
O125   O     0.50000   0.31547   0.28974   0.00000  Uiso   1.00
O126   O     0.42392   0.25000   0.28044   0.00000  Uiso   1.00
O127   O     0.57608   0.25000   0.21955   0.00000  Uiso   1.00
O128   O     0.42392   0.25000   0.20096   0.00000  Uiso   1.00
O129   O     0.57608   0.25000   0.29903   0.00000  Uiso   1.00
O130   O     0.65347   0.21736   0.19363   0.00000  Uiso   1.00
Zn131  Zn    0.50000   0.25000   0.30307   0.00000  Uiso   1.00
Zn132  Zn    0.50000   0.24999   0.19693   0.00000  Uiso   1.00
C133   C     0.83282   0.16380   0.24939   0.00000  Uiso   1.00
C134   C     0.81271   0.21482   0.44405   0.00000  Uiso   1.00
C135   C     0.83072   0.25236   0.02632   0.00000  Uiso   1.00
C136   C     0.83095   0.25249   0.47307   0.00000  Uiso   1.00
C137   C     0.73383   0.24910   0.23768   0.00000  Uiso   1.00
C138   C     0.93284   0.25090   0.26233   0.00000  Uiso   1.00
C139   C     0.67905   0.24257   0.23216   0.00000  Uiso   1.00
C140   C     0.98761   0.25741   0.26791   0.00000  Uiso   1.00
C141   C     0.87398   0.05038   0.28736   0.00000  Uiso   1.00
C142   C     0.87234   0.45033   0.21916   0.00000  Uiso   1.00
C143   C     0.86729   0.09611   0.28732   0.00000  Uiso   1.00
C144   C     0.83364   0.33629   0.25067   0.00000  Uiso   1.00
C145   C     0.86702   0.40432   0.21970   0.00000  Uiso   1.00
C146   C     0.83626   0.11570   0.24879   0.00000  Uiso   1.00
C147   C     0.83925   0.38449   0.25260   0.00000  Uiso   1.00
C148   C     0.81177   0.08911   0.20963   0.00000  Uiso   1.00
C149   C     0.81742   0.41125   0.28597   0.00000  Uiso   1.00
C150   C     0.82065   0.04351   0.20929   0.00000  Uiso   1.00
C151   C     0.82274   0.45728   0.28478   0.00000  Uiso   1.00
C152   C     0.85056   0.02433   0.24844   0.00000  Uiso   1.00
C153   C     0.85016   0.47652   0.25168   0.00000  Uiso   1.00
C154   C     0.78678   0.23760   0.04605   0.00000  Uiso   1.00
C155   C     0.85052   0.28932   0.45046   0.00000  Uiso   1.00
C156   C     0.79049   0.23380   0.09569   0.00000  Uiso   1.00
C157   C     0.85454   0.28595   0.40168   0.00000  Uiso   1.00
C158   C     0.87541   0.26578   0.10801   0.00000  Uiso   1.00
C159   C     0.81274   0.21481   0.39453   0.00000  Uiso   1.00
C160   C     0.87549   0.26586   0.05849   0.00000  Uiso   1.00
H161   H     0.89656   0.03515   0.31790   0.00000  Uiso   1.00
H162   H     0.79796   0.18552   0.45958   0.00000  Uiso   1.00
H163   H     0.67910   0.20587   0.17402   0.00000  Uiso   1.00
H164   H     0.98761   0.29332   0.32664   0.00000  Uiso   1.00
H165   H     0.75994   0.13193   0.18483   0.00000  Uiso   1.00
H166   H     0.81023   0.37432   0.33848   0.00000  Uiso   1.00
H167   H     0.73664   0.24208   0.48823   0.00000  Uiso   1.00
H168   H     0.84824   0.33257   0.00222   0.00000  Uiso   1.00
H169   H     0.76550   0.19646   0.14064   0.00000  Uiso   1.00
H170   H     0.89743   0.30658   0.35750   0.00000  Uiso   1.00
H171   H     0.89296   0.46556   0.19314   0.00000  Uiso   1.00
H172   H     0.88643   0.11621   0.31737   0.00000  Uiso   1.00
H173   H     0.88442   0.38421   0.19422   0.00000  Uiso   1.00
H174   H     0.80120   0.02256   0.18005   0.00000  Uiso   1.00
H175   H     0.80444   0.47820   0.30901   0.00000  Uiso   1.00
H176   H     0.90955   0.27778   0.13186   0.00000  Uiso   1.00
H177   H     0.79692   0.18618   0.37283   0.00000  Uiso   1.00
H178   H     0.91041   0.27689   0.04536   0.00000  Uiso   1.00
N179   N     0.83333   0.24999   0.12623   0.00000  Uiso   1.00
N180   N     0.83333   0.25001   0.37376   0.00000  Uiso   1.00
O181   O     0.83334   0.18453   0.28974   0.00000  Uiso   1.00
O182   O     0.67984   0.28246   0.30658   0.00000  Uiso   1.00
O183   O     0.77737   0.10576   0.17260   0.00000  Uiso   1.00
O184   O     0.78737   0.39391   0.31715   0.00000  Uiso   1.00
O185   O     0.73974   0.22599   0.01850   0.00000  Uiso   1.00
O186   O     0.86666   0.32903   0.47438   0.00000  Uiso   1.00
O187   O     0.74995   0.21290   0.11245   0.00000  Uiso   1.00
O188   O     0.88053   0.31993   0.38315   0.00000  Uiso   1.00
O189   O     0.83333   0.31547   0.21026   0.00000  Uiso   1.00
O190   O     0.83334   0.18453   0.21026   0.00000  Uiso   1.00
O191   O     0.83333   0.31547   0.28974   0.00000  Uiso   1.00
O192   O     0.75725   0.25000   0.28044   0.00000  Uiso   1.00
O193   O     0.90942   0.25000   0.21955   0.00000  Uiso   1.00
O194   O     0.75725   0.25000   0.20096   0.00000  Uiso   1.00
O195   O     0.90942   0.25000   0.29903   0.00000  Uiso   1.00
O196   O     0.98680   0.21736   0.19363   0.00000  Uiso   1.00
Zn197  Zn    0.83333   0.25000   0.30307   0.00000  Uiso   1.00
Zn198  Zn    0.83333   0.24999   0.19693   0.00000  Uiso   1.00
C199   C     0.16615   0.66380   0.24939   0.00000  Uiso   1.00
C200   C     0.14604   0.71482   0.44405   0.00000  Uiso   1.00
C201   C     0.16405   0.75236   0.02632   0.00000  Uiso   1.00
C202   C     0.16428   0.75249   0.47307   0.00000  Uiso   1.00
C203   C     0.06716   0.74910   0.23768   0.00000  Uiso   1.00
C204   C     0.26617   0.75090   0.26233   0.00000  Uiso   1.00
C205   C     0.01238   0.74257   0.23216   0.00000  Uiso   1.00
C206   C     0.32094   0.75741   0.26791   0.00000  Uiso   1.00
C207   C     0.20731   0.55038   0.28736   0.00000  Uiso   1.00
C208   C     0.20568   0.95033   0.21916   0.00000  Uiso   1.00
C209   C     0.20062   0.59611   0.28732   0.00000  Uiso   1.00
C210   C     0.16697   0.83629   0.25067   0.00000  Uiso   1.00
C211   C     0.20035   0.90432   0.21970   0.00000  Uiso   1.00
C212   C     0.16959   0.61570   0.24879   0.00000  Uiso   1.00
C213   C     0.17258   0.88449   0.25260   0.00000  Uiso   1.00
C214   C     0.14510   0.58911   0.20963   0.00000  Uiso   1.00
C215   C     0.15075   0.91125   0.28597   0.00000  Uiso   1.00
C216   C     0.15399   0.54351   0.20929   0.00000  Uiso   1.00
C217   C     0.15607   0.95728   0.28478   0.00000  Uiso   1.00
C218   C     0.18389   0.52433   0.24844   0.00000  Uiso   1.00
C219   C     0.18349   0.97652   0.25168   0.00000  Uiso   1.00
C220   C     0.12011   0.73760   0.04605   0.00000  Uiso   1.00
C221   C     0.18386   0.78932   0.45046   0.00000  Uiso   1.00
C222   C     0.12383   0.73380   0.09569   0.00000  Uiso   1.00
C223   C     0.18787   0.78595   0.40168   0.00000  Uiso   1.00
C224   C     0.20875   0.76578   0.10801   0.00000  Uiso   1.00
C225   C     0.14607   0.71481   0.39453   0.00000  Uiso   1.00
C226   C     0.20883   0.76586   0.05849   0.00000  Uiso   1.00
H227   H     0.22990   0.53515   0.31790   0.00000  Uiso   1.00
H228   H     0.13130   0.68552   0.45958   0.00000  Uiso   1.00
H229   H     0.01244   0.70587   0.17402   0.00000  Uiso   1.00
H230   H     0.32094   0.79332   0.32664   0.00000  Uiso   1.00
H231   H     0.09327   0.63193   0.18483   0.00000  Uiso   1.00
H232   H     0.14356   0.87432   0.33848   0.00000  Uiso   1.00
H233   H     0.06997   0.74208   0.48823   0.00000  Uiso   1.00
H234   H     0.18157   0.83257   0.00222   0.00000  Uiso   1.00
H235   H     0.09883   0.69646   0.14064   0.00000  Uiso   1.00
H236   H     0.23077   0.80658   0.35750   0.00000  Uiso   1.00
H237   H     0.22629   0.96556   0.19314   0.00000  Uiso   1.00
H238   H     0.21977   0.61621   0.31737   0.00000  Uiso   1.00
H239   H     0.21775   0.88421   0.19422   0.00000  Uiso   1.00
H240   H     0.13454   0.52256   0.18005   0.00000  Uiso   1.00
H241   H     0.13777   0.97820   0.30901   0.00000  Uiso   1.00
H242   H     0.24288   0.77778   0.13186   0.00000  Uiso   1.00
H243   H     0.13025   0.68618   0.37283   0.00000  Uiso   1.00
H244   H     0.24375   0.77689   0.04536   0.00000  Uiso   1.00
N245   N     0.16667   0.74999   0.12623   0.00000  Uiso   1.00
N246   N     0.16667   0.75001   0.37376   0.00000  Uiso   1.00
O247   O     0.16667   0.68453   0.28974   0.00000  Uiso   1.00
O248   O     0.01317   0.78246   0.30658   0.00000  Uiso   1.00
O249   O     0.11070   0.60576   0.17260   0.00000  Uiso   1.00
O250   O     0.12070   0.89391   0.31715   0.00000  Uiso   1.00
O251   O     0.07307   0.72599   0.01850   0.00000  Uiso   1.00
O252   O     0.19999   0.82903   0.47438   0.00000  Uiso   1.00
O253   O     0.08328   0.71290   0.11245   0.00000  Uiso   1.00
O254   O     0.21386   0.81993   0.38315   0.00000  Uiso   1.00
O255   O     0.16666   0.81547   0.21026   0.00000  Uiso   1.00
O256   O     0.16667   0.68453   0.21026   0.00000  Uiso   1.00
O257   O     0.16666   0.81547   0.28974   0.00000  Uiso   1.00
O258   O     0.09058   0.75000   0.28044   0.00000  Uiso   1.00
O259   O     0.24275   0.75000   0.21955   0.00000  Uiso   1.00
O260   O     0.09058   0.75000   0.20096   0.00000  Uiso   1.00
O261   O     0.24275   0.75000   0.29903   0.00000  Uiso   1.00
O262   O     0.32013   0.71736   0.19363   0.00000  Uiso   1.00
Zn263  Zn    0.16667   0.75000   0.30307   0.00000  Uiso   1.00
Zn264  Zn    0.16667   0.74999   0.19693   0.00000  Uiso   1.00
C265   C     0.49949   0.66380   0.24939   0.00000  Uiso   1.00
C266   C     0.47937   0.71482   0.44405   0.00000  Uiso   1.00
C267   C     0.49739   0.75236   0.02632   0.00000  Uiso   1.00
C268   C     0.49761   0.75249   0.47307   0.00000  Uiso   1.00
C269   C     0.40049   0.74910   0.23768   0.00000  Uiso   1.00
C270   C     0.59950   0.75090   0.26233   0.00000  Uiso   1.00
C271   C     0.34571   0.74257   0.23216   0.00000  Uiso   1.00
C272   C     0.65428   0.75741   0.26791   0.00000  Uiso   1.00
C273   C     0.54064   0.55038   0.28736   0.00000  Uiso   1.00
C274   C     0.53901   0.95033   0.21916   0.00000  Uiso   1.00
C275   C     0.53395   0.59611   0.28732   0.00000  Uiso   1.00
C276   C     0.50031   0.83629   0.25067   0.00000  Uiso   1.00
C277   C     0.53369   0.90432   0.21970   0.00000  Uiso   1.00
C278   C     0.50293   0.61570   0.24879   0.00000  Uiso   1.00
C279   C     0.50592   0.88449   0.25260   0.00000  Uiso   1.00
C280   C     0.47843   0.58911   0.20963   0.00000  Uiso   1.00
C281   C     0.48409   0.91125   0.28597   0.00000  Uiso   1.00
C282   C     0.48732   0.54351   0.20929   0.00000  Uiso   1.00
C283   C     0.48940   0.95728   0.28478   0.00000  Uiso   1.00
C284   C     0.51722   0.52433   0.24844   0.00000  Uiso   1.00
C285   C     0.51682   0.97652   0.25168   0.00000  Uiso   1.00
C286   C     0.45345   0.73760   0.04605   0.00000  Uiso   1.00
C287   C     0.51719   0.78932   0.45046   0.00000  Uiso   1.00
C288   C     0.45716   0.73380   0.09569   0.00000  Uiso   1.00
C289   C     0.52120   0.78595   0.40168   0.00000  Uiso   1.00
C290   C     0.54208   0.76578   0.10801   0.00000  Uiso   1.00
C291   C     0.47941   0.71481   0.39453   0.00000  Uiso   1.00
C292   C     0.54216   0.76586   0.05849   0.00000  Uiso   1.00
H293   H     0.56323   0.53515   0.31790   0.00000  Uiso   1.00
H294   H     0.46463   0.68552   0.45958   0.00000  Uiso   1.00
H295   H     0.34577   0.70587   0.17402   0.00000  Uiso   1.00
H296   H     0.65428   0.79332   0.32664   0.00000  Uiso   1.00
H297   H     0.42661   0.63193   0.18483   0.00000  Uiso   1.00
H298   H     0.47689   0.87432   0.33848   0.00000  Uiso   1.00
H299   H     0.40330   0.74208   0.48823   0.00000  Uiso   1.00
H300   H     0.51491   0.83257   0.00222   0.00000  Uiso   1.00
H301   H     0.43216   0.69646   0.14064   0.00000  Uiso   1.00
H302   H     0.56410   0.80658   0.35750   0.00000  Uiso   1.00
H303   H     0.55962   0.96556   0.19314   0.00000  Uiso   1.00
H304   H     0.55310   0.61621   0.31737   0.00000  Uiso   1.00
H305   H     0.55108   0.88421   0.19422   0.00000  Uiso   1.00
H306   H     0.46787   0.52256   0.18005   0.00000  Uiso   1.00
H307   H     0.47110   0.97820   0.30901   0.00000  Uiso   1.00
H308   H     0.57622   0.77778   0.13186   0.00000  Uiso   1.00
H309   H     0.46359   0.68618   0.37283   0.00000  Uiso   1.00
H310   H     0.57708   0.77689   0.04536   0.00000  Uiso   1.00
N311   N     0.50000   0.74999   0.12623   0.00000  Uiso   1.00
N312   N     0.50000   0.75001   0.37376   0.00000  Uiso   1.00
O313   O     0.50000   0.68453   0.28974   0.00000  Uiso   1.00
O314   O     0.34651   0.78246   0.30658   0.00000  Uiso   1.00
O315   O     0.44403   0.60576   0.17260   0.00000  Uiso   1.00
O316   O     0.45404   0.89391   0.31715   0.00000  Uiso   1.00
O317   O     0.40641   0.72599   0.01850   0.00000  Uiso   1.00
O318   O     0.53332   0.82903   0.47438   0.00000  Uiso   1.00
O319   O     0.41661   0.71290   0.11245   0.00000  Uiso   1.00
O320   O     0.54720   0.81993   0.38315   0.00000  Uiso   1.00
O321   O     0.50000   0.81547   0.21026   0.00000  Uiso   1.00
O322   O     0.50000   0.68453   0.21026   0.00000  Uiso   1.00
O323   O     0.50000   0.81547   0.28974   0.00000  Uiso   1.00
O324   O     0.42392   0.75000   0.28044   0.00000  Uiso   1.00
O325   O     0.57608   0.75000   0.21955   0.00000  Uiso   1.00
O326   O     0.42392   0.75000   0.20096   0.00000  Uiso   1.00
O327   O     0.57608   0.75000   0.29903   0.00000  Uiso   1.00
O328   O     0.65347   0.71736   0.19363   0.00000  Uiso   1.00
Zn329  Zn    0.50000   0.75000   0.30307   0.00000  Uiso   1.00
Zn330  Zn    0.50000   0.74999   0.19693   0.00000  Uiso   1.00
C331   C     0.83282   0.66380   0.24939   0.00000  Uiso   1.00
C332   C     0.81271   0.71482   0.44405   0.00000  Uiso   1.00
C333   C     0.83072   0.75236   0.02632   0.00000  Uiso   1.00
C334   C     0.83095   0.75249   0.47307   0.00000  Uiso   1.00
C335   C     0.73383   0.74910   0.23768   0.00000  Uiso   1.00
C336   C     0.93284   0.75090   0.26233   0.00000  Uiso   1.00
C337   C     0.67905   0.74257   0.23216   0.00000  Uiso   1.00
C338   C     0.98761   0.75741   0.26791   0.00000  Uiso   1.00
C339   C     0.87398   0.55038   0.28736   0.00000  Uiso   1.00
C340   C     0.87234   0.95033   0.21916   0.00000  Uiso   1.00
C341   C     0.86729   0.59611   0.28732   0.00000  Uiso   1.00
C342   C     0.83364   0.83629   0.25067   0.00000  Uiso   1.00
C343   C     0.86702   0.90432   0.21970   0.00000  Uiso   1.00
C344   C     0.83626   0.61570   0.24879   0.00000  Uiso   1.00
C345   C     0.83925   0.88449   0.25260   0.00000  Uiso   1.00
C346   C     0.81177   0.58911   0.20963   0.00000  Uiso   1.00
C347   C     0.81742   0.91125   0.28597   0.00000  Uiso   1.00
C348   C     0.82065   0.54351   0.20929   0.00000  Uiso   1.00
C349   C     0.82274   0.95728   0.28478   0.00000  Uiso   1.00
C350   C     0.85056   0.52433   0.24844   0.00000  Uiso   1.00
C351   C     0.85016   0.97652   0.25168   0.00000  Uiso   1.00
C352   C     0.78678   0.73760   0.04605   0.00000  Uiso   1.00
C353   C     0.85052   0.78932   0.45046   0.00000  Uiso   1.00
C354   C     0.79049   0.73380   0.09569   0.00000  Uiso   1.00
C355   C     0.85454   0.78595   0.40168   0.00000  Uiso   1.00
C356   C     0.87541   0.76578   0.10801   0.00000  Uiso   1.00
C357   C     0.81274   0.71481   0.39453   0.00000  Uiso   1.00
C358   C     0.87549   0.76586   0.05849   0.00000  Uiso   1.00
H359   H     0.89656   0.53515   0.31790   0.00000  Uiso   1.00
H360   H     0.79796   0.68552   0.45958   0.00000  Uiso   1.00
H361   H     0.67910   0.70587   0.17402   0.00000  Uiso   1.00
H362   H     0.98761   0.79332   0.32664   0.00000  Uiso   1.00
H363   H     0.75994   0.63193   0.18483   0.00000  Uiso   1.00
H364   H     0.81023   0.87432   0.33848   0.00000  Uiso   1.00
H365   H     0.73664   0.74208   0.48823   0.00000  Uiso   1.00
H366   H     0.84824   0.83257   0.00222   0.00000  Uiso   1.00
H367   H     0.76550   0.69646   0.14064   0.00000  Uiso   1.00
H368   H     0.89743   0.80658   0.35750   0.00000  Uiso   1.00
H369   H     0.89296   0.96556   0.19314   0.00000  Uiso   1.00
H370   H     0.88643   0.61621   0.31737   0.00000  Uiso   1.00
H371   H     0.88442   0.88421   0.19422   0.00000  Uiso   1.00
H372   H     0.80120   0.52256   0.18005   0.00000  Uiso   1.00
H373   H     0.80444   0.97820   0.30901   0.00000  Uiso   1.00
H374   H     0.90955   0.77778   0.13186   0.00000  Uiso   1.00
H375   H     0.79692   0.68618   0.37283   0.00000  Uiso   1.00
H376   H     0.91041   0.77689   0.04536   0.00000  Uiso   1.00
N377   N     0.83333   0.74999   0.12623   0.00000  Uiso   1.00
N378   N     0.83333   0.75001   0.37376   0.00000  Uiso   1.00
O379   O     0.83334   0.68453   0.28974   0.00000  Uiso   1.00
O380   O     0.67984   0.78246   0.30658   0.00000  Uiso   1.00
O381   O     0.77737   0.60576   0.17260   0.00000  Uiso   1.00
O382   O     0.78737   0.89391   0.31715   0.00000  Uiso   1.00
O383   O     0.73974   0.72599   0.01850   0.00000  Uiso   1.00
O384   O     0.86666   0.82903   0.47438   0.00000  Uiso   1.00
O385   O     0.74995   0.71290   0.11245   0.00000  Uiso   1.00
O386   O     0.88053   0.81993   0.38315   0.00000  Uiso   1.00
O387   O     0.83333   0.81547   0.21026   0.00000  Uiso   1.00
O388   O     0.83334   0.68453   0.21026   0.00000  Uiso   1.00
O389   O     0.83333   0.81547   0.28974   0.00000  Uiso   1.00
O390   O     0.75725   0.75000   0.28044   0.00000  Uiso   1.00
O391   O     0.90942   0.75000   0.21955   0.00000  Uiso   1.00
O392   O     0.75725   0.75000   0.20096   0.00000  Uiso   1.00
O393   O     0.90942   0.75000   0.29903   0.00000  Uiso   1.00
O394   O     0.98680   0.71736   0.19363   0.00000  Uiso   1.00
Zn395  Zn    0.83333   0.75000   0.30307   0.00000  Uiso   1.00
Zn396  Zn    0.83333   0.74999   0.19693   0.00000  Uiso   1.00
C397   C     0.16615   0.16380   0.74939   0.00000  Uiso   1.00
C398   C     0.14604   0.21482   0.94405   0.00000  Uiso   1.00
C399   C     0.16405   0.25236   0.52632   0.00000  Uiso   1.00
C400   C     0.16428   0.25249   0.97307   0.00000  Uiso   1.00
C401   C     0.06716   0.24910   0.73768   0.00000  Uiso   1.00
C402   C     0.26617   0.25090   0.76233   0.00000  Uiso   1.00
C403   C     0.01238   0.24257   0.73216   0.00000  Uiso   1.00
C404   C     0.32094   0.25741   0.76791   0.00000  Uiso   1.00
C405   C     0.20731   0.05038   0.78736   0.00000  Uiso   1.00
C406   C     0.20568   0.45033   0.71916   0.00000  Uiso   1.00
C407   C     0.20062   0.09611   0.78732   0.00000  Uiso   1.00
C408   C     0.16697   0.33629   0.75067   0.00000  Uiso   1.00
C409   C     0.20035   0.40432   0.71970   0.00000  Uiso   1.00
C410   C     0.16959   0.11570   0.74879   0.00000  Uiso   1.00
C411   C     0.17258   0.38449   0.75260   0.00000  Uiso   1.00
C412   C     0.14510   0.08911   0.70963   0.00000  Uiso   1.00
C413   C     0.15075   0.41125   0.78597   0.00000  Uiso   1.00
C414   C     0.15399   0.04351   0.70929   0.00000  Uiso   1.00
C415   C     0.15607   0.45728   0.78478   0.00000  Uiso   1.00
C416   C     0.18389   0.02433   0.74844   0.00000  Uiso   1.00
C417   C     0.18349   0.47652   0.75168   0.00000  Uiso   1.00
C418   C     0.12011   0.23760   0.54605   0.00000  Uiso   1.00
C419   C     0.18386   0.28932   0.95046   0.00000  Uiso   1.00
C420   C     0.12383   0.23380   0.59569   0.00000  Uiso   1.00
C421   C     0.18787   0.28595   0.90168   0.00000  Uiso   1.00
C422   C     0.20875   0.26578   0.60801   0.00000  Uiso   1.00
C423   C     0.14607   0.21481   0.89453   0.00000  Uiso   1.00
C424   C     0.20883   0.26586   0.55849   0.00000  Uiso   1.00
H425   H     0.22990   0.03515   0.81790   0.00000  Uiso   1.00
H426   H     0.13130   0.18552   0.95958   0.00000  Uiso   1.00
H427   H     0.01244   0.20587   0.67402   0.00000  Uiso   1.00
H428   H     0.32094   0.29332   0.82664   0.00000  Uiso   1.00
H429   H     0.09327   0.13193   0.68483   0.00000  Uiso   1.00
H430   H     0.14356   0.37432   0.83848   0.00000  Uiso   1.00
H431   H     0.06997   0.24208   0.98823   0.00000  Uiso   1.00
H432   H     0.18157   0.33257   0.50222   0.00000  Uiso   1.00
H433   H     0.09883   0.19646   0.64064   0.00000  Uiso   1.00
H434   H     0.23077   0.30658   0.85750   0.00000  Uiso   1.00
H435   H     0.22629   0.46556   0.69314   0.00000  Uiso   1.00
H436   H     0.21977   0.11621   0.81737   0.00000  Uiso   1.00
H437   H     0.21775   0.38421   0.69422   0.00000  Uiso   1.00
H438   H     0.13454   0.02256   0.68005   0.00000  Uiso   1.00
H439   H     0.13777   0.47820   0.80901   0.00000  Uiso   1.00
H440   H     0.24288   0.27778   0.63186   0.00000  Uiso   1.00
H441   H     0.13025   0.18618   0.87283   0.00000  Uiso   1.00
H442   H     0.24375   0.27689   0.54536   0.00000  Uiso   1.00
N443   N     0.16667   0.24999   0.62623   0.00000  Uiso   1.00
N444   N     0.16667   0.25001   0.87376   0.00000  Uiso   1.00
O445   O     0.16667   0.18453   0.78974   0.00000  Uiso   1.00
O446   O     0.01317   0.28246   0.80658   0.00000  Uiso   1.00
O447   O     0.11070   0.10576   0.67260   0.00000  Uiso   1.00
O448   O     0.12070   0.39391   0.81715   0.00000  Uiso   1.00
O449   O     0.07307   0.22599   0.51850   0.00000  Uiso   1.00
O450   O     0.19999   0.32903   0.97438   0.00000  Uiso   1.00
O451   O     0.08328   0.21290   0.61245   0.00000  Uiso   1.00
O452   O     0.21386   0.31993   0.88315   0.00000  Uiso   1.00
O453   O     0.16666   0.31547   0.71026   0.00000  Uiso   1.00
O454   O     0.16667   0.18453   0.71026   0.00000  Uiso   1.00
O455   O     0.16666   0.31547   0.78974   0.00000  Uiso   1.00
O456   O     0.09058   0.25000   0.78044   0.00000  Uiso   1.00
O457   O     0.24275   0.25000   0.71955   0.00000  Uiso   1.00
O458   O     0.09058   0.25000   0.70096   0.00000  Uiso   1.00
O459   O     0.24275   0.25000   0.79903   0.00000  Uiso   1.00
O460   O     0.32013   0.21736   0.69363   0.00000  Uiso   1.00
Zn461  Zn    0.16667   0.25000   0.80307   0.00000  Uiso   1.00
Zn462  Zn    0.16667   0.24999   0.69693   0.00000  Uiso   1.00
C463   C     0.49949   0.16380   0.74939   0.00000  Uiso   1.00
C464   C     0.47937   0.21482   0.94405   0.00000  Uiso   1.00
C465   C     0.49739   0.25236   0.52632   0.00000  Uiso   1.00
C466   C     0.49761   0.25249   0.97307   0.00000  Uiso   1.00
C467   C     0.40049   0.24910   0.73768   0.00000  Uiso   1.00
C468   C     0.59950   0.25090   0.76233   0.00000  Uiso   1.00
C469   C     0.34571   0.24257   0.73216   0.00000  Uiso   1.00
C470   C     0.65428   0.25741   0.76791   0.00000  Uiso   1.00
C471   C     0.54064   0.05038   0.78736   0.00000  Uiso   1.00
C472   C     0.53901   0.45033   0.71916   0.00000  Uiso   1.00
C473   C     0.53395   0.09611   0.78732   0.00000  Uiso   1.00
C474   C     0.50031   0.33629   0.75067   0.00000  Uiso   1.00
C475   C     0.53369   0.40432   0.71970   0.00000  Uiso   1.00
C476   C     0.50293   0.11570   0.74879   0.00000  Uiso   1.00
C477   C     0.50592   0.38449   0.75260   0.00000  Uiso   1.00
C478   C     0.47843   0.08911   0.70963   0.00000  Uiso   1.00
C479   C     0.48409   0.41125   0.78597   0.00000  Uiso   1.00
C480   C     0.48732   0.04351   0.70929   0.00000  Uiso   1.00
C481   C     0.48940   0.45728   0.78478   0.00000  Uiso   1.00
C482   C     0.51722   0.02433   0.74844   0.00000  Uiso   1.00
C483   C     0.51682   0.47652   0.75168   0.00000  Uiso   1.00
C484   C     0.45345   0.23760   0.54605   0.00000  Uiso   1.00
C485   C     0.51719   0.28932   0.95046   0.00000  Uiso   1.00
C486   C     0.45716   0.23380   0.59569   0.00000  Uiso   1.00
C487   C     0.52120   0.28595   0.90168   0.00000  Uiso   1.00
C488   C     0.54208   0.26578   0.60801   0.00000  Uiso   1.00
C489   C     0.47941   0.21481   0.89453   0.00000  Uiso   1.00
C490   C     0.54216   0.26586   0.55849   0.00000  Uiso   1.00
H491   H     0.56323   0.03515   0.81790   0.00000  Uiso   1.00
H492   H     0.46463   0.18552   0.95958   0.00000  Uiso   1.00
H493   H     0.34577   0.20587   0.67402   0.00000  Uiso   1.00
H494   H     0.65428   0.29332   0.82664   0.00000  Uiso   1.00
H495   H     0.42661   0.13193   0.68483   0.00000  Uiso   1.00
H496   H     0.47689   0.37432   0.83848   0.00000  Uiso   1.00
H497   H     0.40330   0.24208   0.98823   0.00000  Uiso   1.00
H498   H     0.51491   0.33257   0.50222   0.00000  Uiso   1.00
H499   H     0.43216   0.19646   0.64064   0.00000  Uiso   1.00
H500   H     0.56410   0.30658   0.85750   0.00000  Uiso   1.00
H501   H     0.55962   0.46556   0.69314   0.00000  Uiso   1.00
H502   H     0.55310   0.11621   0.81737   0.00000  Uiso   1.00
H503   H     0.55108   0.38421   0.69422   0.00000  Uiso   1.00
H504   H     0.46787   0.02256   0.68005   0.00000  Uiso   1.00
H505   H     0.47110   0.47820   0.80901   0.00000  Uiso   1.00
H506   H     0.57622   0.27778   0.63186   0.00000  Uiso   1.00
H507   H     0.46359   0.18618   0.87283   0.00000  Uiso   1.00
H508   H     0.57708   0.27689   0.54536   0.00000  Uiso   1.00
N509   N     0.50000   0.24999   0.62623   0.00000  Uiso   1.00
N510   N     0.50000   0.25001   0.87376   0.00000  Uiso   1.00
O511   O     0.50000   0.18453   0.78974   0.00000  Uiso   1.00
O512   O     0.34651   0.28246   0.80658   0.00000  Uiso   1.00
O513   O     0.44403   0.10576   0.67260   0.00000  Uiso   1.00
O514   O     0.45404   0.39391   0.81715   0.00000  Uiso   1.00
O515   O     0.40641   0.22599   0.51850   0.00000  Uiso   1.00
O516   O     0.53332   0.32903   0.97438   0.00000  Uiso   1.00
O517   O     0.41661   0.21290   0.61245   0.00000  Uiso   1.00
O518   O     0.54720   0.31993   0.88315   0.00000  Uiso   1.00
O519   O     0.50000   0.31547   0.71026   0.00000  Uiso   1.00
O520   O     0.50000   0.18453   0.71026   0.00000  Uiso   1.00
O521   O     0.50000   0.31547   0.78974   0.00000  Uiso   1.00
O522   O     0.42392   0.25000   0.78044   0.00000  Uiso   1.00
O523   O     0.57608   0.25000   0.71955   0.00000  Uiso   1.00
O524   O     0.42392   0.25000   0.70096   0.00000  Uiso   1.00
O525   O     0.57608   0.25000   0.79903   0.00000  Uiso   1.00
O526   O     0.65347   0.21736   0.69363   0.00000  Uiso   1.00
Zn527  Zn    0.50000   0.25000   0.80307   0.00000  Uiso   1.00
Zn528  Zn    0.50000   0.24999   0.69693   0.00000  Uiso   1.00
C529   C     0.83282   0.16380   0.74939   0.00000  Uiso   1.00
C530   C     0.81271   0.21482   0.94405   0.00000  Uiso   1.00
C531   C     0.83072   0.25236   0.52632   0.00000  Uiso   1.00
C532   C     0.83095   0.25249   0.97307   0.00000  Uiso   1.00
C533   C     0.73383   0.24910   0.73768   0.00000  Uiso   1.00
C534   C     0.93284   0.25090   0.76233   0.00000  Uiso   1.00
C535   C     0.67905   0.24257   0.73216   0.00000  Uiso   1.00
C536   C     0.98761   0.25741   0.76791   0.00000  Uiso   1.00
C537   C     0.87398   0.05038   0.78736   0.00000  Uiso   1.00
C538   C     0.87234   0.45033   0.71916   0.00000  Uiso   1.00
C539   C     0.86729   0.09611   0.78732   0.00000  Uiso   1.00
C540   C     0.83364   0.33629   0.75067   0.00000  Uiso   1.00
C541   C     0.86702   0.40432   0.71970   0.00000  Uiso   1.00
C542   C     0.83626   0.11570   0.74879   0.00000  Uiso   1.00
C543   C     0.83925   0.38449   0.75260   0.00000  Uiso   1.00
C544   C     0.81177   0.08911   0.70963   0.00000  Uiso   1.00
C545   C     0.81742   0.41125   0.78597   0.00000  Uiso   1.00
C546   C     0.82065   0.04351   0.70929   0.00000  Uiso   1.00
C547   C     0.82274   0.45728   0.78478   0.00000  Uiso   1.00
C548   C     0.85056   0.02433   0.74844   0.00000  Uiso   1.00
C549   C     0.85016   0.47652   0.75168   0.00000  Uiso   1.00
C550   C     0.78678   0.23760   0.54605   0.00000  Uiso   1.00
C551   C     0.85052   0.28932   0.95046   0.00000  Uiso   1.00
C552   C     0.79049   0.23380   0.59569   0.00000  Uiso   1.00
C553   C     0.85454   0.28595   0.90168   0.00000  Uiso   1.00
C554   C     0.87541   0.26578   0.60801   0.00000  Uiso   1.00
C555   C     0.81274   0.21481   0.89453   0.00000  Uiso   1.00
C556   C     0.87549   0.26586   0.55849   0.00000  Uiso   1.00
H557   H     0.89656   0.03515   0.81790   0.00000  Uiso   1.00
H558   H     0.79796   0.18552   0.95958   0.00000  Uiso   1.00
H559   H     0.67910   0.20587   0.67402   0.00000  Uiso   1.00
H560   H     0.98761   0.29332   0.82664   0.00000  Uiso   1.00
H561   H     0.75994   0.13193   0.68483   0.00000  Uiso   1.00
H562   H     0.81023   0.37432   0.83848   0.00000  Uiso   1.00
H563   H     0.73664   0.24208   0.98823   0.00000  Uiso   1.00
H564   H     0.84824   0.33257   0.50222   0.00000  Uiso   1.00
H565   H     0.76550   0.19646   0.64064   0.00000  Uiso   1.00
H566   H     0.89743   0.30658   0.85750   0.00000  Uiso   1.00
H567   H     0.89296   0.46556   0.69314   0.00000  Uiso   1.00
H568   H     0.88643   0.11621   0.81737   0.00000  Uiso   1.00
H569   H     0.88442   0.38421   0.69422   0.00000  Uiso   1.00
H570   H     0.80120   0.02256   0.68005   0.00000  Uiso   1.00
H571   H     0.80444   0.47820   0.80901   0.00000  Uiso   1.00
H572   H     0.90955   0.27778   0.63186   0.00000  Uiso   1.00
H573   H     0.79692   0.18618   0.87283   0.00000  Uiso   1.00
H574   H     0.91041   0.27689   0.54536   0.00000  Uiso   1.00
N575   N     0.83333   0.24999   0.62623   0.00000  Uiso   1.00
N576   N     0.83333   0.25001   0.87376   0.00000  Uiso   1.00
O577   O     0.83334   0.18453   0.78974   0.00000  Uiso   1.00
O578   O     0.67984   0.28246   0.80658   0.00000  Uiso   1.00
O579   O     0.77737   0.10576   0.67260   0.00000  Uiso   1.00
O580   O     0.78737   0.39391   0.81715   0.00000  Uiso   1.00
O581   O     0.73974   0.22599   0.51850   0.00000  Uiso   1.00
O582   O     0.86666   0.32903   0.97438   0.00000  Uiso   1.00
O583   O     0.74995   0.21290   0.61245   0.00000  Uiso   1.00
O584   O     0.88053   0.31993   0.88315   0.00000  Uiso   1.00
O585   O     0.83333   0.31547   0.71026   0.00000  Uiso   1.00
O586   O     0.83334   0.18453   0.71026   0.00000  Uiso   1.00
O587   O     0.83333   0.31547   0.78974   0.00000  Uiso   1.00
O588   O     0.75725   0.25000   0.78044   0.00000  Uiso   1.00
O589   O     0.90942   0.25000   0.71955   0.00000  Uiso   1.00
O590   O     0.75725   0.25000   0.70096   0.00000  Uiso   1.00
O591   O     0.90942   0.25000   0.79903   0.00000  Uiso   1.00
O592   O     0.98680   0.21736   0.69363   0.00000  Uiso   1.00
Zn593  Zn    0.83333   0.25000   0.80307   0.00000  Uiso   1.00
Zn594  Zn    0.83333   0.24999   0.69693   0.00000  Uiso   1.00
C595   C     0.16615   0.66380   0.74939   0.00000  Uiso   1.00
C596   C     0.14604   0.71482   0.94405   0.00000  Uiso   1.00
C597   C     0.16405   0.75236   0.52632   0.00000  Uiso   1.00
C598   C     0.16428   0.75249   0.97307   0.00000  Uiso   1.00
C599   C     0.06716   0.74910   0.73768   0.00000  Uiso   1.00
C600   C     0.26617   0.75090   0.76233   0.00000  Uiso   1.00
C601   C     0.01238   0.74257   0.73216   0.00000  Uiso   1.00
C602   C     0.32094   0.75741   0.76791   0.00000  Uiso   1.00
C603   C     0.20731   0.55038   0.78736   0.00000  Uiso   1.00
C604   C     0.20568   0.95033   0.71916   0.00000  Uiso   1.00
C605   C     0.20062   0.59611   0.78732   0.00000  Uiso   1.00
C606   C     0.16697   0.83629   0.75067   0.00000  Uiso   1.00
C607   C     0.20035   0.90432   0.71970   0.00000  Uiso   1.00
C608   C     0.16959   0.61570   0.74879   0.00000  Uiso   1.00
C609   C     0.17258   0.88449   0.75260   0.00000  Uiso   1.00
C610   C     0.14510   0.58911   0.70963   0.00000  Uiso   1.00
C611   C     0.15075   0.91125   0.78597   0.00000  Uiso   1.00
C612   C     0.15399   0.54351   0.70929   0.00000  Uiso   1.00
C613   C     0.15607   0.95728   0.78478   0.00000  Uiso   1.00
C614   C     0.18389   0.52433   0.74844   0.00000  Uiso   1.00
C615   C     0.18349   0.97652   0.75168   0.00000  Uiso   1.00
C616   C     0.12011   0.73760   0.54605   0.00000  Uiso   1.00
C617   C     0.18386   0.78932   0.95046   0.00000  Uiso   1.00
C618   C     0.12383   0.73380   0.59569   0.00000  Uiso   1.00
C619   C     0.18787   0.78595   0.90168   0.00000  Uiso   1.00
C620   C     0.20875   0.76578   0.60801   0.00000  Uiso   1.00
C621   C     0.14607   0.71481   0.89453   0.00000  Uiso   1.00
C622   C     0.20883   0.76586   0.55849   0.00000  Uiso   1.00
H623   H     0.22990   0.53515   0.81790   0.00000  Uiso   1.00
H624   H     0.13130   0.68552   0.95958   0.00000  Uiso   1.00
H625   H     0.01244   0.70587   0.67402   0.00000  Uiso   1.00
H626   H     0.32094   0.79332   0.82664   0.00000  Uiso   1.00
H627   H     0.09327   0.63193   0.68483   0.00000  Uiso   1.00
H628   H     0.14356   0.87432   0.83848   0.00000  Uiso   1.00
H629   H     0.06997   0.74208   0.98823   0.00000  Uiso   1.00
H630   H     0.18157   0.83257   0.50222   0.00000  Uiso   1.00
H631   H     0.09883   0.69646   0.64064   0.00000  Uiso   1.00
H632   H     0.23077   0.80658   0.85750   0.00000  Uiso   1.00
H633   H     0.22629   0.96556   0.69314   0.00000  Uiso   1.00
H634   H     0.21977   0.61621   0.81737   0.00000  Uiso   1.00
H635   H     0.21775   0.88421   0.69422   0.00000  Uiso   1.00
H636   H     0.13454   0.52256   0.68005   0.00000  Uiso   1.00
H637   H     0.13777   0.97820   0.80901   0.00000  Uiso   1.00
H638   H     0.24288   0.77778   0.63186   0.00000  Uiso   1.00
H639   H     0.13025   0.68618   0.87283   0.00000  Uiso   1.00
H640   H     0.24375   0.77689   0.54536   0.00000  Uiso   1.00
N641   N     0.16667   0.74999   0.62623   0.00000  Uiso   1.00
N642   N     0.16667   0.75001   0.87376   0.00000  Uiso   1.00
O643   O     0.16667   0.68453   0.78974   0.00000  Uiso   1.00
O644   O     0.01317   0.78246   0.80658   0.00000  Uiso   1.00
O645   O     0.11070   0.60576   0.67260   0.00000  Uiso   1.00
O646   O     0.12070   0.89391   0.81715   0.00000  Uiso   1.00
O647   O     0.07307   0.72599   0.51850   0.00000  Uiso   1.00
O648   O     0.19999   0.82903   0.97438   0.00000  Uiso   1.00
O649   O     0.08328   0.71290   0.61245   0.00000  Uiso   1.00
O650   O     0.21386   0.81993   0.88315   0.00000  Uiso   1.00
O651   O     0.16666   0.81547   0.71026   0.00000  Uiso   1.00
O652   O     0.16667   0.68453   0.71026   0.00000  Uiso   1.00
O653   O     0.16666   0.81547   0.78974   0.00000  Uiso   1.00
O654   O     0.09058   0.75000   0.78044   0.00000  Uiso   1.00
O655   O     0.24275   0.75000   0.71955   0.00000  Uiso   1.00
O656   O     0.09058   0.75000   0.70096   0.00000  Uiso   1.00
O657   O     0.24275   0.75000   0.79903   0.00000  Uiso   1.00
O658   O     0.32013   0.71736   0.69363   0.00000  Uiso   1.00
Zn659  Zn    0.16667   0.75000   0.80307   0.00000  Uiso   1.00
Zn660  Zn    0.16667   0.74999   0.69693   0.00000  Uiso   1.00
C661   C     0.49949   0.66380   0.74939   0.00000  Uiso   1.00
C662   C     0.47937   0.71482   0.94405   0.00000  Uiso   1.00
C663   C     0.49739   0.75236   0.52632   0.00000  Uiso   1.00
C664   C     0.49761   0.75249   0.97307   0.00000  Uiso   1.00
C665   C     0.40049   0.74910   0.73768   0.00000  Uiso   1.00
C666   C     0.59950   0.75090   0.76233   0.00000  Uiso   1.00
C667   C     0.34571   0.74257   0.73216   0.00000  Uiso   1.00
C668   C     0.65428   0.75741   0.76791   0.00000  Uiso   1.00
C669   C     0.54064   0.55038   0.78736   0.00000  Uiso   1.00
C670   C     0.53901   0.95033   0.71916   0.00000  Uiso   1.00
C671   C     0.53395   0.59611   0.78732   0.00000  Uiso   1.00
C672   C     0.50031   0.83629   0.75067   0.00000  Uiso   1.00
C673   C     0.53369   0.90432   0.71970   0.00000  Uiso   1.00
C674   C     0.50293   0.61570   0.74879   0.00000  Uiso   1.00
C675   C     0.50592   0.88449   0.75260   0.00000  Uiso   1.00
C676   C     0.47843   0.58911   0.70963   0.00000  Uiso   1.00
C677   C     0.48409   0.91125   0.78597   0.00000  Uiso   1.00
C678   C     0.48732   0.54351   0.70929   0.00000  Uiso   1.00
C679   C     0.48940   0.95728   0.78478   0.00000  Uiso   1.00
C680   C     0.51722   0.52433   0.74844   0.00000  Uiso   1.00
C681   C     0.51682   0.97652   0.75168   0.00000  Uiso   1.00
C682   C     0.45345   0.73760   0.54605   0.00000  Uiso   1.00
C683   C     0.51719   0.78932   0.95046   0.00000  Uiso   1.00
C684   C     0.45716   0.73380   0.59569   0.00000  Uiso   1.00
C685   C     0.52120   0.78595   0.90168   0.00000  Uiso   1.00
C686   C     0.54208   0.76578   0.60801   0.00000  Uiso   1.00
C687   C     0.47941   0.71481   0.89453   0.00000  Uiso   1.00
C688   C     0.54216   0.76586   0.55849   0.00000  Uiso   1.00
H689   H     0.56323   0.53515   0.81790   0.00000  Uiso   1.00
H690   H     0.46463   0.68552   0.95958   0.00000  Uiso   1.00
H691   H     0.34577   0.70587   0.67402   0.00000  Uiso   1.00
H692   H     0.65428   0.79332   0.82664   0.00000  Uiso   1.00
H693   H     0.42661   0.63193   0.68483   0.00000  Uiso   1.00
H694   H     0.47689   0.87432   0.83848   0.00000  Uiso   1.00
H695   H     0.40330   0.74208   0.98823   0.00000  Uiso   1.00
H696   H     0.51491   0.83257   0.50222   0.00000  Uiso   1.00
H697   H     0.43216   0.69646   0.64064   0.00000  Uiso   1.00
H698   H     0.56410   0.80658   0.85750   0.00000  Uiso   1.00
H699   H     0.55962   0.96556   0.69314   0.00000  Uiso   1.00
H700   H     0.55310   0.61621   0.81737   0.00000  Uiso   1.00
H701   H     0.55108   0.88421   0.69422   0.00000  Uiso   1.00
H702   H     0.46787   0.52256   0.68005   0.00000  Uiso   1.00
H703   H     0.47110   0.97820   0.80901   0.00000  Uiso   1.00
H704   H     0.57622   0.77778   0.63186   0.00000  Uiso   1.00
H705   H     0.46359   0.68618   0.87283   0.00000  Uiso   1.00
H706   H     0.57708   0.77689   0.54536   0.00000  Uiso   1.00
N707   N     0.50000   0.74999   0.62623   0.00000  Uiso   1.00
N708   N     0.50000   0.75001   0.87376   0.00000  Uiso   1.00
O709   O     0.50000   0.68453   0.78974   0.00000  Uiso   1.00
O710   O     0.34651   0.78246   0.80658   0.00000  Uiso   1.00
O711   O     0.44403   0.60576   0.67260   0.00000  Uiso   1.00
O712   O     0.45404   0.89391   0.81715   0.00000  Uiso   1.00
O713   O     0.40641   0.72599   0.51850   0.00000  Uiso   1.00
O714   O     0.53332   0.82903   0.97438   0.00000  Uiso   1.00
O715   O     0.41661   0.71290   0.61245   0.00000  Uiso   1.00
O716   O     0.54720   0.81993   0.88315   0.00000  Uiso   1.00
O717   O     0.50000   0.81547   0.71026   0.00000  Uiso   1.00
O718   O     0.50000   0.68453   0.71026   0.00000  Uiso   1.00
O719   O     0.50000   0.81547   0.78974   0.00000  Uiso   1.00
O720   O     0.42392   0.75000   0.78044   0.00000  Uiso   1.00
O721   O     0.57608   0.75000   0.71955   0.00000  Uiso   1.00
O722   O     0.42392   0.75000   0.70096   0.00000  Uiso   1.00
O723   O     0.57608   0.75000   0.79903   0.00000  Uiso   1.00
O724   O     0.65347   0.71736   0.69363   0.00000  Uiso   1.00
Zn725  Zn    0.50000   0.75000   0.80307   0.00000  Uiso   1.00
Zn726  Zn    0.50000   0.74999   0.69693   0.00000  Uiso   1.00
C727   C     0.83282   0.66380   0.74939   0.00000  Uiso   1.00
C728   C     0.81271   0.71482   0.94405   0.00000  Uiso   1.00
C729   C     0.83072   0.75236   0.52632   0.00000  Uiso   1.00
C730   C     0.83095   0.75249   0.97307   0.00000  Uiso   1.00
C731   C     0.73383   0.74910   0.73768   0.00000  Uiso   1.00
C732   C     0.93284   0.75090   0.76233   0.00000  Uiso   1.00
C733   C     0.67905   0.74257   0.73216   0.00000  Uiso   1.00
C734   C     0.98761   0.75741   0.76791   0.00000  Uiso   1.00
C735   C     0.87398   0.55038   0.78736   0.00000  Uiso   1.00
C736   C     0.87234   0.95033   0.71916   0.00000  Uiso   1.00
C737   C     0.86729   0.59611   0.78732   0.00000  Uiso   1.00
C738   C     0.83364   0.83629   0.75067   0.00000  Uiso   1.00
C739   C     0.86702   0.90432   0.71970   0.00000  Uiso   1.00
C740   C     0.83626   0.61570   0.74879   0.00000  Uiso   1.00
C741   C     0.83925   0.88449   0.75260   0.00000  Uiso   1.00
C742   C     0.81177   0.58911   0.70963   0.00000  Uiso   1.00
C743   C     0.81742   0.91125   0.78597   0.00000  Uiso   1.00
C744   C     0.82065   0.54351   0.70929   0.00000  Uiso   1.00
C745   C     0.82274   0.95728   0.78478   0.00000  Uiso   1.00
C746   C     0.85056   0.52433   0.74844   0.00000  Uiso   1.00
C747   C     0.85016   0.97652   0.75168   0.00000  Uiso   1.00
C748   C     0.78678   0.73760   0.54605   0.00000  Uiso   1.00
C749   C     0.85052   0.78932   0.95046   0.00000  Uiso   1.00
C750   C     0.79049   0.73380   0.59569   0.00000  Uiso   1.00
C751   C     0.85454   0.78595   0.90168   0.00000  Uiso   1.00
C752   C     0.87541   0.76578   0.60801   0.00000  Uiso   1.00
C753   C     0.81274   0.71481   0.89453   0.00000  Uiso   1.00
C754   C     0.87549   0.76586   0.55849   0.00000  Uiso   1.00
H755   H     0.89656   0.53515   0.81790   0.00000  Uiso   1.00
H756   H     0.79796   0.68552   0.95958   0.00000  Uiso   1.00
H757   H     0.67910   0.70587   0.67402   0.00000  Uiso   1.00
H758   H     0.98761   0.79332   0.82664   0.00000  Uiso   1.00
H759   H     0.75994   0.63193   0.68483   0.00000  Uiso   1.00
H760   H     0.81023   0.87432   0.83848   0.00000  Uiso   1.00
H761   H     0.73664   0.74208   0.98823   0.00000  Uiso   1.00
H762   H     0.84824   0.83257   0.50222   0.00000  Uiso   1.00
H763   H     0.76550   0.69646   0.64064   0.00000  Uiso   1.00
H764   H     0.89743   0.80658   0.85750   0.00000  Uiso   1.00
H765   H     0.89296   0.96556   0.69314   0.00000  Uiso   1.00
H766   H     0.88643   0.61621   0.81737   0.00000  Uiso   1.00
H767   H     0.88442   0.88421   0.69422   0.00000  Uiso   1.00
H768   H     0.80120   0.52256   0.68005   0.00000  Uiso   1.00
H769   H     0.80444   0.97820   0.80901   0.00000  Uiso   1.00
H770   H     0.90955   0.77778   0.63186   0.00000  Uiso   1.00
H771   H     0.79692   0.68618   0.87283   0.00000  Uiso   1.00
H772   H     0.91041   0.77689   0.54536   0.00000  Uiso   1.00
N773   N     0.83333   0.74999   0.62623   0.00000  Uiso   1.00
N774   N     0.83333   0.75001   0.87376   0.00000  Uiso   1.00
O775   O     0.83334   0.68453   0.78974   0.00000  Uiso   1.00
O776   O     0.67984   0.78246   0.80658   0.00000  Uiso   1.00
O777   O     0.77737   0.60576   0.67260   0.00000  Uiso   1.00
O778   O     0.78737   0.89391   0.81715   0.00000  Uiso   1.00
O779   O     0.73974   0.72599   0.51850   0.00000  Uiso   1.00
O780   O     0.86666   0.82903   0.97438   0.00000  Uiso   1.00
O781   O     0.74995   0.71290   0.61245   0.00000  Uiso   1.00
O782   O     0.88053   0.81993   0.88315   0.00000  Uiso   1.00
O783   O     0.83333   0.81547   0.71026   0.00000  Uiso   1.00
O784   O     0.83334   0.68453   0.71026   0.00000  Uiso   1.00
O785   O     0.83333   0.81547   0.78974   0.00000  Uiso   1.00
O786   O     0.75725   0.75000   0.78044   0.00000  Uiso   1.00
O787   O     0.90942   0.75000   0.71955   0.00000  Uiso   1.00
O788   O     0.75725   0.75000   0.70096   0.00000  Uiso   1.00
O789   O     0.90942   0.75000   0.79903   0.00000  Uiso   1.00
O790   O     0.98680   0.71736   0.69363   0.00000  Uiso   1.00
Zn791  Zn    0.83333   0.75000   0.80307   0.00000  Uiso   1.00
Zn792  Zn    0.83333   0.74999   0.69693   0.00000  Uiso   1.00
loop_
_geom_bond_atom_site_label_1
_geom_bond_atom_site_label_2
_geom_bond_distance
_geom_bond_site_symmetry_2
_ccdc_geom_bond_type
C1     O58     1.289   .     A
C1     C14     1.441   .     S
C1     O49     1.288   .     A
C2     C4      1.412   .     A
C2     C27     1.408   .     A
C2     H30     1.083   .     S
C3     C28     1.412   .     A
C3     C22     1.417   .     A
C3     C400    1.515   1_554 S
C4     C23     1.417   .     A
C4     C399    1.515   .     S
C5     O62     1.287   .     A
C5     C7      1.417   .     S
C5     O60     1.273   .     A
C6     O63     1.286   .     A
C6     O61     1.273   .     A
C6     C8      1.416   .     S
C7     C140    1.352   1_455 S
C7     O196    1.390   1_455 S
C8     C73     1.352   .     S
C8     O116    1.390   .     S
C9     H29     1.084   .     S
C9     C11     1.380   .     A
C9     C20     1.393   .     A
C10    C21     1.391   .     A
C10    H39     1.084   .     S
C10    C13     1.381   .     A
C11    H40     1.084   .     S
C11    C14     1.401   .     A
C12    C15     1.445   .     S
C12    O57     1.292   .     A
C12    O59     1.288   .     A
C13    H41     1.084   .     S
C13    C15     1.404   .     A
C14    C16     1.415   .     A
C15    C17     1.413   .     A
C16    O51     1.379   .     S
C16    C18     1.385   .     A
C17    C19     1.383   .     A
C17    O52     1.375   .     S
C18    C20     1.395   .     A
C18    H42     1.084   .     S
C19    H43     1.084   .     S
C19    C21     1.395   .     A
C20    C219    1.434   1_545 S
C21    C218    1.434   .     S
C22    C24     1.408   .     A
C22    O53     1.381   .     S
C23    C25     1.408   .     A
C23    O54     1.381   .     S
C24    O55     1.371   .     S
C24    N47     1.376   .     A
C25    N48     1.377   .     A
C25    O56     1.373   .     S
C26    C28     1.409   .     A
C26    H44     1.081   .     S
C26    N47     1.363   .     A
C27    N48     1.363   .     A
C27    H45     1.081   .     S
C28    H46     1.083   .     S
H31    O196    0.990   1_455 S
H32    O116    0.991   .     S
H33    O51     0.990   .     S
H34    O52     0.989   .     S
H35    O449    0.990   .     S
H36    O450    0.990   1_554 S
H37    O55     0.986   .     S
H38    O56     0.985   .     S
N47    Zn66    2.010   .     S
N48    Zn65    2.010   .     S
O49    Zn65    1.984   .     S
O50    H164    0.991   1_455 S
O50    C140    1.390   1_455 S
O53    H431    0.990   1_554 S
O54    H432    0.990   .     S
O57    Zn66    1.984   .     S
O58    Zn66    2.002   .     S
O59    Zn65    2.002   .     S
O60    Zn65    1.980   .     S
O61    Zn66    1.980   .     S
O62    Zn66    1.995   .     S
O63    Zn65    1.995   .     S
O64    C73     1.390   .     S
O64    H97     0.990   .     S
C67    O124    1.289   .     A
C67    C80     1.441   .     S
C67    O115    1.288   .     A
C68    C70     1.412   .     A
C68    C93     1.408   .     A
C68    H96     1.083   .     S
C69    C94     1.412   .     A
C69    C88     1.417   .     A
C69    C466    1.515   1_554 S
C70    C89     1.417   .     A
C70    C465    1.515   .     S
C71    O128    1.287   .     A
C71    C73     1.417   .     S
C71    O126    1.273   .     A
C72    O129    1.286   .     A
C72    O127    1.273   .     A
C72    C74     1.416   .     S
C74    C139    1.352   .     S
C74    O182    1.390   .     S
C75    H95     1.084   .     S
C75    C77     1.380   .     A
C75    C86     1.393   .     A
C76    C87     1.391   .     A
C76    H105    1.084   .     S
C76    C79     1.381   .     A
C77    H106    1.084   .     S
C77    C80     1.401   .     A
C78    C81     1.445   .     S
C78    O123    1.292   .     A
C78    O125    1.288   .     A
C79    H107    1.084   .     S
C79    C81     1.404   .     A
C80    C82     1.415   .     A
C81    C83     1.413   .     A
C82    O117    1.379   .     S
C82    C84     1.385   .     A
C83    C85     1.383   .     A
C83    O118    1.375   .     S
C84    C86     1.395   .     A
C84    H108    1.084   .     S
C85    H109    1.084   .     S
C85    C87     1.395   .     A
C86    C285    1.434   1_545 S
C87    C284    1.434   .     S
C88    C90     1.408   .     A
C88    O119    1.381   .     S
C89    C91     1.408   .     A
C89    O120    1.381   .     S
C90    O121    1.371   .     S
C90    N113    1.376   .     A
C91    N114    1.377   .     A
C91    O122    1.373   .     S
C92    C94     1.409   .     A
C92    H110    1.081   .     S
C92    N113    1.363   .     A
C93    N114    1.363   .     A
C93    H111    1.081   .     S
C94    H112    1.083   .     S
H98    O182    0.991   .     S
H99    O117    0.990   .     S
H100   O118    0.989   .     S
H101   O515    0.990   .     S
H102   O516    0.990   1_554 S
H103   O121    0.986   .     S
H104   O122    0.985   .     S
N113   Zn132   2.010   .     S
N114   Zn131   2.010   .     S
O115   Zn131   1.984   .     S
O119   H497    0.990   1_554 S
O120   H498    0.990   .     S
O123   Zn132   1.984   .     S
O124   Zn132   2.002   .     S
O125   Zn131   2.002   .     S
O126   Zn131   1.980   .     S
O127   Zn132   1.980   .     S
O128   Zn132   1.995   .     S
O129   Zn131   1.995   .     S
O130   C139    1.390   .     S
O130   H163    0.990   .     S
C133   O190    1.289   .     A
C133   C146    1.441   .     S
C133   O181    1.288   .     A
C134   C136    1.412   .     A
C134   C159    1.408   .     A
C134   H162    1.083   .     S
C135   C160    1.412   .     A
C135   C154    1.417   .     A
C135   C532    1.515   1_554 S
C136   C155    1.417   .     A
C136   C531    1.515   .     S
C137   O194    1.287   .     A
C137   C139    1.417   .     S
C137   O192    1.273   .     A
C138   O195    1.286   .     A
C138   O193    1.273   .     A
C138   C140    1.416   .     S
C140   C7      1.352   1_655 S
C140   O50     1.390   1_655 S
C141   H161    1.084   .     S
C141   C143    1.380   .     A
C141   C152    1.393   .     A
C142   C153    1.391   .     A
C142   H171    1.084   .     S
C142   C145    1.381   .     A
C143   H172    1.084   .     S
C143   C146    1.401   .     A
C144   C147    1.445   .     S
C144   O189    1.292   .     A
C144   O191    1.288   .     A
C145   H173    1.084   .     S
C145   C147    1.404   .     A
C146   C148    1.415   .     A
C147   C149    1.413   .     A
C148   O183    1.379   .     S
C148   C150    1.385   .     A
C149   C151    1.383   .     A
C149   O184    1.375   .     S
C150   C152    1.395   .     A
C150   H174    1.084   .     S
C151   H175    1.084   .     S
C151   C153    1.395   .     A
C152   C351    1.434   1_545 S
C153   C350    1.434   .     S
C154   C156    1.408   .     A
C154   O185    1.381   .     S
C155   C157    1.408   .     A
C155   O186    1.381   .     S
C156   O187    1.371   .     S
C156   N179    1.376   .     A
C157   N180    1.377   .     A
C157   O188    1.373   .     S
C158   C160    1.409   .     A
C158   H176    1.081   .     S
C158   N179    1.363   .     A
C159   N180    1.363   .     A
C159   H177    1.081   .     S
C160   H178    1.083   .     S
H164   O50     0.991   1_655 S
H165   O183    0.990   .     S
H166   O184    0.989   .     S
H167   O581    0.990   .     S
H168   O582    0.990   1_554 S
H169   O187    0.986   .     S
H170   O188    0.985   .     S
N179   Zn198   2.010   .     S
N180   Zn197   2.010   .     S
O181   Zn197   1.984   .     S
O185   H563    0.990   1_554 S
O186   H564    0.990   .     S
O189   Zn198   1.984   .     S
O190   Zn198   2.002   .     S
O191   Zn197   2.002   .     S
O192   Zn197   1.980   .     S
O193   Zn198   1.980   .     S
O194   Zn198   1.995   .     S
O195   Zn197   1.995   .     S
O196   C7      1.390   1_655 S
O196   H31     0.990   1_655 S
C199   O256    1.289   .     A
C199   C212    1.441   .     S
C199   O247    1.288   .     A
C200   C202    1.412   .     A
C200   C225    1.408   .     A
C200   H228    1.083   .     S
C201   C226    1.412   .     A
C201   C220    1.417   .     A
C201   C598    1.515   1_554 S
C202   C221    1.417   .     A
C202   C597    1.515   .     S
C203   O260    1.287   .     A
C203   C205    1.417   .     S
C203   O258    1.273   .     A
C204   O261    1.286   .     A
C204   O259    1.273   .     A
C204   C206    1.416   .     S
C205   C338    1.352   1_455 S
C205   O394    1.390   1_455 S
C206   C271    1.352   .     S
C206   O314    1.390   .     S
C207   H227    1.084   .     S
C207   C209    1.380   .     A
C207   C218    1.393   .     A
C208   C219    1.391   .     A
C208   H237    1.084   .     S
C208   C211    1.381   .     A
C209   H238    1.084   .     S
C209   C212    1.401   .     A
C210   C213    1.445   .     S
C210   O255    1.292   .     A
C210   O257    1.288   .     A
C211   H239    1.084   .     S
C211   C213    1.404   .     A
C212   C214    1.415   .     A
C213   C215    1.413   .     A
C214   O249    1.379   .     S
C214   C216    1.385   .     A
C215   C217    1.383   .     A
C215   O250    1.375   .     S
C216   C218    1.395   .     A
C216   H240    1.084   .     S
C217   H241    1.084   .     S
C217   C219    1.395   .     A
C219   C20     1.434   1_565 S
C220   C222    1.408   .     A
C220   O251    1.381   .     S
C221   C223    1.408   .     A
C221   O252    1.381   .     S
C222   O253    1.371   .     S
C222   N245    1.376   .     A
C223   N246    1.377   .     A
C223   O254    1.373   .     S
C224   C226    1.409   .     A
C224   H242    1.081   .     S
C224   N245    1.363   .     A
C225   N246    1.363   .     A
C225   H243    1.081   .     S
C226   H244    1.083   .     S
H229   O394    0.990   1_455 S
H230   O314    0.991   .     S
H231   O249    0.990   .     S
H232   O250    0.989   .     S
H233   O647    0.990   .     S
H234   O648    0.990   1_554 S
H235   O253    0.986   .     S
H236   O254    0.985   .     S
N245   Zn264   2.010   .     S
N246   Zn263   2.010   .     S
O247   Zn263   1.984   .     S
O248   H362    0.991   1_455 S
O248   C338    1.390   1_455 S
O251   H629    0.990   1_554 S
O252   H630    0.990   .     S
O255   Zn264   1.984   .     S
O256   Zn264   2.002   .     S
O257   Zn263   2.002   .     S
O258   Zn263   1.980   .     S
O259   Zn264   1.980   .     S
O260   Zn264   1.995   .     S
O261   Zn263   1.995   .     S
O262   C271    1.390   .     S
O262   H295    0.990   .     S
C265   O322    1.289   .     A
C265   C278    1.441   .     S
C265   O313    1.288   .     A
C266   C268    1.412   .     A
C266   C291    1.408   .     A
C266   H294    1.083   .     S
C267   C292    1.412   .     A
C267   C286    1.417   .     A
C267   C664    1.515   1_554 S
C268   C287    1.417   .     A
C268   C663    1.515   .     S
C269   O326    1.287   .     A
C269   C271    1.417   .     S
C269   O324    1.273   .     A
C270   O327    1.286   .     A
C270   O325    1.273   .     A
C270   C272    1.416   .     S
C272   C337    1.352   .     S
C272   O380    1.390   .     S
C273   H293    1.084   .     S
C273   C275    1.380   .     A
C273   C284    1.393   .     A
C274   C285    1.391   .     A
C274   H303    1.084   .     S
C274   C277    1.381   .     A
C275   H304    1.084   .     S
C275   C278    1.401   .     A
C276   C279    1.445   .     S
C276   O321    1.292   .     A
C276   O323    1.288   .     A
C277   H305    1.084   .     S
C277   C279    1.404   .     A
C278   C280    1.415   .     A
C279   C281    1.413   .     A
C280   O315    1.379   .     S
C280   C282    1.385   .     A
C281   C283    1.383   .     A
C281   O316    1.375   .     S
C282   C284    1.395   .     A
C282   H306    1.084   .     S
C283   H307    1.084   .     S
C283   C285    1.395   .     A
C285   C86     1.434   1_565 S
C286   C288    1.408   .     A
C286   O317    1.381   .     S
C287   C289    1.408   .     A
C287   O318    1.381   .     S
C288   O319    1.371   .     S
C288   N311    1.376   .     A
C289   N312    1.377   .     A
C289   O320    1.373   .     S
C290   C292    1.409   .     A
C290   H308    1.081   .     S
C290   N311    1.363   .     A
C291   N312    1.363   .     A
C291   H309    1.081   .     S
C292   H310    1.083   .     S
H296   O380    0.991   .     S
H297   O315    0.990   .     S
H298   O316    0.989   .     S
H299   O713    0.990   .     S
H300   O714    0.990   1_554 S
H301   O319    0.986   .     S
H302   O320    0.985   .     S
N311   Zn330   2.010   .     S
N312   Zn329   2.010   .     S
O313   Zn329   1.984   .     S
O317   H695    0.990   1_554 S
O318   H696    0.990   .     S
O321   Zn330   1.984   .     S
O322   Zn330   2.002   .     S
O323   Zn329   2.002   .     S
O324   Zn329   1.980   .     S
O325   Zn330   1.980   .     S
O326   Zn330   1.995   .     S
O327   Zn329   1.995   .     S
O328   C337    1.390   .     S
O328   H361    0.990   .     S
C331   O388    1.289   .     A
C331   C344    1.441   .     S
C331   O379    1.288   .     A
C332   C334    1.412   .     A
C332   C357    1.408   .     A
C332   H360    1.083   .     S
C333   C358    1.412   .     A
C333   C352    1.417   .     A
C333   C730    1.515   1_554 S
C334   C353    1.417   .     A
C334   C729    1.515   .     S
C335   O392    1.287   .     A
C335   C337    1.417   .     S
C335   O390    1.273   .     A
C336   O393    1.286   .     A
C336   O391    1.273   .     A
C336   C338    1.416   .     S
C338   C205    1.352   1_655 S
C338   O248    1.390   1_655 S
C339   H359    1.084   .     S
C339   C341    1.380   .     A
C339   C350    1.393   .     A
C340   C351    1.391   .     A
C340   H369    1.084   .     S
C340   C343    1.381   .     A
C341   H370    1.084   .     S
C341   C344    1.401   .     A
C342   C345    1.445   .     S
C342   O387    1.292   .     A
C342   O389    1.288   .     A
C343   H371    1.084   .     S
C343   C345    1.404   .     A
C344   C346    1.415   .     A
C345   C347    1.413   .     A
C346   O381    1.379   .     S
C346   C348    1.385   .     A
C347   C349    1.383   .     A
C347   O382    1.375   .     S
C348   C350    1.395   .     A
C348   H372    1.084   .     S
C349   H373    1.084   .     S
C349   C351    1.395   .     A
C351   C152    1.434   1_565 S
C352   C354    1.408   .     A
C352   O383    1.381   .     S
C353   C355    1.408   .     A
C353   O384    1.381   .     S
C354   O385    1.371   .     S
C354   N377    1.376   .     A
C355   N378    1.377   .     A
C355   O386    1.373   .     S
C356   C358    1.409   .     A
C356   H374    1.081   .     S
C356   N377    1.363   .     A
C357   N378    1.363   .     A
C357   H375    1.081   .     S
C358   H376    1.083   .     S
H362   O248    0.991   1_655 S
H363   O381    0.990   .     S
H364   O382    0.989   .     S
H365   O779    0.990   .     S
H366   O780    0.990   1_554 S
H367   O385    0.986   .     S
H368   O386    0.985   .     S
N377   Zn396   2.010   .     S
N378   Zn395   2.010   .     S
O379   Zn395   1.984   .     S
O383   H761    0.990   1_554 S
O384   H762    0.990   .     S
O387   Zn396   1.984   .     S
O388   Zn396   2.002   .     S
O389   Zn395   2.002   .     S
O390   Zn395   1.980   .     S
O391   Zn396   1.980   .     S
O392   Zn396   1.995   .     S
O393   Zn395   1.995   .     S
O394   C205    1.390   1_655 S
O394   H229    0.990   1_655 S
C397   O454    1.289   .     A
C397   C410    1.441   .     S
C397   O445    1.288   .     A
C398   C400    1.412   .     A
C398   C423    1.408   .     A
C398   H426    1.083   .     S
C399   C424    1.412   .     A
C399   C418    1.417   .     A
C400   C419    1.417   .     A
C400   C3      1.515   1_556 S
C401   O458    1.287   .     A
C401   C403    1.417   .     S
C401   O456    1.273   .     A
C402   O459    1.286   .     A
C402   O457    1.273   .     A
C402   C404    1.416   .     S
C403   C536    1.352   1_455 S
C403   O592    1.390   1_455 S
C404   C469    1.352   .     S
C404   O512    1.390   .     S
C405   H425    1.084   .     S
C405   C407    1.380   .     A
C405   C416    1.393   .     A
C406   C417    1.391   .     A
C406   H435    1.084   .     S
C406   C409    1.381   .     A
C407   H436    1.084   .     S
C407   C410    1.401   .     A
C408   C411    1.445   .     S
C408   O453    1.292   .     A
C408   O455    1.288   .     A
C409   H437    1.084   .     S
C409   C411    1.404   .     A
C410   C412    1.415   .     A
C411   C413    1.413   .     A
C412   O447    1.379   .     S
C412   C414    1.385   .     A
C413   C415    1.383   .     A
C413   O448    1.375   .     S
C414   C416    1.395   .     A
C414   H438    1.084   .     S
C415   H439    1.084   .     S
C415   C417    1.395   .     A
C416   C615    1.434   1_545 S
C417   C614    1.434   .     S
C418   C420    1.408   .     A
C418   O449    1.381   .     S
C419   C421    1.408   .     A
C419   O450    1.381   .     S
C420   O451    1.371   .     S
C420   N443    1.376   .     A
C421   N444    1.377   .     A
C421   O452    1.373   .     S
C422   C424    1.409   .     A
C422   H440    1.081   .     S
C422   N443    1.363   .     A
C423   N444    1.363   .     A
C423   H441    1.081   .     S
C424   H442    1.083   .     S
H427   O592    0.990   1_455 S
H428   O512    0.991   .     S
H429   O447    0.990   .     S
H430   O448    0.989   .     S
H431   O53     0.990   1_556 S
H433   O451    0.986   .     S
H434   O452    0.985   .     S
N443   Zn462   2.010   .     S
N444   Zn461   2.010   .     S
O445   Zn461   1.984   .     S
O446   H560    0.991   1_455 S
O446   C536    1.390   1_455 S
O450   H36     0.990   1_556 S
O453   Zn462   1.984   .     S
O454   Zn462   2.002   .     S
O455   Zn461   2.002   .     S
O456   Zn461   1.980   .     S
O457   Zn462   1.980   .     S
O458   Zn462   1.995   .     S
O459   Zn461   1.995   .     S
O460   C469    1.390   .     S
O460   H493    0.990   .     S
C463   O520    1.289   .     A
C463   C476    1.441   .     S
C463   O511    1.288   .     A
C464   C466    1.412   .     A
C464   C489    1.408   .     A
C464   H492    1.083   .     S
C465   C490    1.412   .     A
C465   C484    1.417   .     A
C466   C485    1.417   .     A
C466   C69     1.515   1_556 S
C467   O524    1.287   .     A
C467   C469    1.417   .     S
C467   O522    1.273   .     A
C468   O525    1.286   .     A
C468   O523    1.273   .     A
C468   C470    1.416   .     S
C470   C535    1.352   .     S
C470   O578    1.390   .     S
C471   H491    1.084   .     S
C471   C473    1.380   .     A
C471   C482    1.393   .     A
C472   C483    1.391   .     A
C472   H501    1.084   .     S
C472   C475    1.381   .     A
C473   H502    1.084   .     S
C473   C476    1.401   .     A
C474   C477    1.445   .     S
C474   O519    1.292   .     A
C474   O521    1.288   .     A
C475   H503    1.084   .     S
C475   C477    1.404   .     A
C476   C478    1.415   .     A
C477   C479    1.413   .     A
C478   O513    1.379   .     S
C478   C480    1.385   .     A
C479   C481    1.383   .     A
C479   O514    1.375   .     S
C480   C482    1.395   .     A
C480   H504    1.084   .     S
C481   H505    1.084   .     S
C481   C483    1.395   .     A
C482   C681    1.434   1_545 S
C483   C680    1.434   .     S
C484   C486    1.408   .     A
C484   O515    1.381   .     S
C485   C487    1.408   .     A
C485   O516    1.381   .     S
C486   O517    1.371   .     S
C486   N509    1.376   .     A
C487   N510    1.377   .     A
C487   O518    1.373   .     S
C488   C490    1.409   .     A
C488   H506    1.081   .     S
C488   N509    1.363   .     A
C489   N510    1.363   .     A
C489   H507    1.081   .     S
C490   H508    1.083   .     S
H494   O578    0.991   .     S
H495   O513    0.990   .     S
H496   O514    0.989   .     S
H497   O119    0.990   1_556 S
H499   O517    0.986   .     S
H500   O518    0.985   .     S
N509   Zn528   2.010   .     S
N510   Zn527   2.010   .     S
O511   Zn527   1.984   .     S
O516   H102    0.990   1_556 S
O519   Zn528   1.984   .     S
O520   Zn528   2.002   .     S
O521   Zn527   2.002   .     S
O522   Zn527   1.980   .     S
O523   Zn528   1.980   .     S
O524   Zn528   1.995   .     S
O525   Zn527   1.995   .     S
O526   C535    1.390   .     S
O526   H559    0.990   .     S
C529   O586    1.289   .     A
C529   C542    1.441   .     S
C529   O577    1.288   .     A
C530   C532    1.412   .     A
C530   C555    1.408   .     A
C530   H558    1.083   .     S
C531   C556    1.412   .     A
C531   C550    1.417   .     A
C532   C551    1.417   .     A
C532   C135    1.515   1_556 S
C533   O590    1.287   .     A
C533   C535    1.417   .     S
C533   O588    1.273   .     A
C534   O591    1.286   .     A
C534   O589    1.273   .     A
C534   C536    1.416   .     S
C536   C403    1.352   1_655 S
C536   O446    1.390   1_655 S
C537   H557    1.084   .     S
C537   C539    1.380   .     A
C537   C548    1.393   .     A
C538   C549    1.391   .     A
C538   H567    1.084   .     S
C538   C541    1.381   .     A
C539   H568    1.084   .     S
C539   C542    1.401   .     A
C540   C543    1.445   .     S
C540   O585    1.292   .     A
C540   O587    1.288   .     A
C541   H569    1.084   .     S
C541   C543    1.404   .     A
C542   C544    1.415   .     A
C543   C545    1.413   .     A
C544   O579    1.379   .     S
C544   C546    1.385   .     A
C545   C547    1.383   .     A
C545   O580    1.375   .     S
C546   C548    1.395   .     A
C546   H570    1.084   .     S
C547   H571    1.084   .     S
C547   C549    1.395   .     A
C548   C747    1.434   1_545 S
C549   C746    1.434   .     S
C550   C552    1.408   .     A
C550   O581    1.381   .     S
C551   C553    1.408   .     A
C551   O582    1.381   .     S
C552   O583    1.371   .     S
C552   N575    1.376   .     A
C553   N576    1.377   .     A
C553   O584    1.373   .     S
C554   C556    1.409   .     A
C554   H572    1.081   .     S
C554   N575    1.363   .     A
C555   N576    1.363   .     A
C555   H573    1.081   .     S
C556   H574    1.083   .     S
H560   O446    0.991   1_655 S
H561   O579    0.990   .     S
H562   O580    0.989   .     S
H563   O185    0.990   1_556 S
H565   O583    0.986   .     S
H566   O584    0.985   .     S
N575   Zn594   2.010   .     S
N576   Zn593   2.010   .     S
O577   Zn593   1.984   .     S
O582   H168    0.990   1_556 S
O585   Zn594   1.984   .     S
O586   Zn594   2.002   .     S
O587   Zn593   2.002   .     S
O588   Zn593   1.980   .     S
O589   Zn594   1.980   .     S
O590   Zn594   1.995   .     S
O591   Zn593   1.995   .     S
O592   C403    1.390   1_655 S
O592   H427    0.990   1_655 S
C595   O652    1.289   .     A
C595   C608    1.441   .     S
C595   O643    1.288   .     A
C596   C598    1.412   .     A
C596   C621    1.408   .     A
C596   H624    1.083   .     S
C597   C622    1.412   .     A
C597   C616    1.417   .     A
C598   C617    1.417   .     A
C598   C201    1.515   1_556 S
C599   O656    1.287   .     A
C599   C601    1.417   .     S
C599   O654    1.273   .     A
C600   O657    1.286   .     A
C600   O655    1.273   .     A
C600   C602    1.416   .     S
C601   C734    1.352   1_455 S
C601   O790    1.390   1_455 S
C602   C667    1.352   .     S
C602   O710    1.390   .     S
C603   H623    1.084   .     S
C603   C605    1.380   .     A
C603   C614    1.393   .     A
C604   C615    1.391   .     A
C604   H633    1.084   .     S
C604   C607    1.381   .     A
C605   H634    1.084   .     S
C605   C608    1.401   .     A
C606   C609    1.445   .     S
C606   O651    1.292   .     A
C606   O653    1.288   .     A
C607   H635    1.084   .     S
C607   C609    1.404   .     A
C608   C610    1.415   .     A
C609   C611    1.413   .     A
C610   O645    1.379   .     S
C610   C612    1.385   .     A
C611   C613    1.383   .     A
C611   O646    1.375   .     S
C612   C614    1.395   .     A
C612   H636    1.084   .     S
C613   H637    1.084   .     S
C613   C615    1.395   .     A
C615   C416    1.434   1_565 S
C616   C618    1.408   .     A
C616   O647    1.381   .     S
C617   C619    1.408   .     A
C617   O648    1.381   .     S
C618   O649    1.371   .     S
C618   N641    1.376   .     A
C619   N642    1.377   .     A
C619   O650    1.373   .     S
C620   C622    1.409   .     A
C620   H638    1.081   .     S
C620   N641    1.363   .     A
C621   N642    1.363   .     A
C621   H639    1.081   .     S
C622   H640    1.083   .     S
H625   O790    0.990   1_455 S
H626   O710    0.991   .     S
H627   O645    0.990   .     S
H628   O646    0.989   .     S
H629   O251    0.990   1_556 S
H631   O649    0.986   .     S
H632   O650    0.985   .     S
N641   Zn660   2.010   .     S
N642   Zn659   2.010   .     S
O643   Zn659   1.984   .     S
O644   H758    0.991   1_455 S
O644   C734    1.390   1_455 S
O648   H234    0.990   1_556 S
O651   Zn660   1.984   .     S
O652   Zn660   2.002   .     S
O653   Zn659   2.002   .     S
O654   Zn659   1.980   .     S
O655   Zn660   1.980   .     S
O656   Zn660   1.995   .     S
O657   Zn659   1.995   .     S
O658   C667    1.390   .     S
O658   H691    0.990   .     S
C661   O718    1.289   .     A
C661   C674    1.441   .     S
C661   O709    1.288   .     A
C662   C664    1.412   .     A
C662   C687    1.408   .     A
C662   H690    1.083   .     S
C663   C688    1.412   .     A
C663   C682    1.417   .     A
C664   C683    1.417   .     A
C664   C267    1.515   1_556 S
C665   O722    1.287   .     A
C665   C667    1.417   .     S
C665   O720    1.273   .     A
C666   O723    1.286   .     A
C666   O721    1.273   .     A
C666   C668    1.416   .     S
C668   C733    1.352   .     S
C668   O776    1.390   .     S
C669   H689    1.084   .     S
C669   C671    1.380   .     A
C669   C680    1.393   .     A
C670   C681    1.391   .     A
C670   H699    1.084   .     S
C670   C673    1.381   .     A
C671   H700    1.084   .     S
C671   C674    1.401   .     A
C672   C675    1.445   .     S
C672   O717    1.292   .     A
C672   O719    1.288   .     A
C673   H701    1.084   .     S
C673   C675    1.404   .     A
C674   C676    1.415   .     A
C675   C677    1.413   .     A
C676   O711    1.379   .     S
C676   C678    1.385   .     A
C677   C679    1.383   .     A
C677   O712    1.375   .     S
C678   C680    1.395   .     A
C678   H702    1.084   .     S
C679   H703    1.084   .     S
C679   C681    1.395   .     A
C681   C482    1.434   1_565 S
C682   C684    1.408   .     A
C682   O713    1.381   .     S
C683   C685    1.408   .     A
C683   O714    1.381   .     S
C684   O715    1.371   .     S
C684   N707    1.376   .     A
C685   N708    1.377   .     A
C685   O716    1.373   .     S
C686   C688    1.409   .     A
C686   H704    1.081   .     S
C686   N707    1.363   .     A
C687   N708    1.363   .     A
C687   H705    1.081   .     S
C688   H706    1.083   .     S
H692   O776    0.991   .     S
H693   O711    0.990   .     S
H694   O712    0.989   .     S
H695   O317    0.990   1_556 S
H697   O715    0.986   .     S
H698   O716    0.985   .     S
N707   Zn726   2.010   .     S
N708   Zn725   2.010   .     S
O709   Zn725   1.984   .     S
O714   H300    0.990   1_556 S
O717   Zn726   1.984   .     S
O718   Zn726   2.002   .     S
O719   Zn725   2.002   .     S
O720   Zn725   1.980   .     S
O721   Zn726   1.980   .     S
O722   Zn726   1.995   .     S
O723   Zn725   1.995   .     S
O724   C733    1.390   .     S
O724   H757    0.990   .     S
C727   O784    1.289   .     A
C727   C740    1.441   .     S
C727   O775    1.288   .     A
C728   C730    1.412   .     A
C728   C753    1.408   .     A
C728   H756    1.083   .     S
C729   C754    1.412   .     A
C729   C748    1.417   .     A
C730   C749    1.417   .     A
C730   C333    1.515   1_556 S
C731   O788    1.287   .     A
C731   C733    1.417   .     S
C731   O786    1.273   .     A
C732   O789    1.286   .     A
C732   O787    1.273   .     A
C732   C734    1.416   .     S
C734   C601    1.352   1_655 S
C734   O644    1.390   1_655 S
C735   H755    1.084   .     S
C735   C737    1.380   .     A
C735   C746    1.393   .     A
C736   C747    1.391   .     A
C736   H765    1.084   .     S
C736   C739    1.381   .     A
C737   H766    1.084   .     S
C737   C740    1.401   .     A
C738   C741    1.445   .     S
C738   O783    1.292   .     A
C738   O785    1.288   .     A
C739   H767    1.084   .     S
C739   C741    1.404   .     A
C740   C742    1.415   .     A
C741   C743    1.413   .     A
C742   O777    1.379   .     S
C742   C744    1.385   .     A
C743   C745    1.383   .     A
C743   O778    1.375   .     S
C744   C746    1.395   .     A
C744   H768    1.084   .     S
C745   H769    1.084   .     S
C745   C747    1.395   .     A
C747   C548    1.434   1_565 S
C748   C750    1.408   .     A
C748   O779    1.381   .     S
C749   C751    1.408   .     A
C749   O780    1.381   .     S
C750   O781    1.371   .     S
C750   N773    1.376   .     A
C751   N774    1.377   .     A
C751   O782    1.373   .     S
C752   C754    1.409   .     A
C752   H770    1.081   .     S
C752   N773    1.363   .     A
C753   N774    1.363   .     A
C753   H771    1.081   .     S
C754   H772    1.083   .     S
H758   O644    0.991   1_655 S
H759   O777    0.990   .     S
H760   O778    0.989   .     S
H761   O383    0.990   1_556 S
H763   O781    0.986   .     S
H764   O782    0.985   .     S
N773   Zn792   2.010   .     S
N774   Zn791   2.010   .     S
O775   Zn791   1.984   .     S
O780   H366    0.990   1_556 S
O783   Zn792   1.984   .     S
O784   Zn792   2.002   .     S
O785   Zn791   2.002   .     S
O786   Zn791   1.980   .     S
O787   Zn792   1.980   .     S
O788   Zn792   1.995   .     S
O789   Zn791   1.995   .     S
O790   C601    1.390   1_655 S
O790   H625    0.990   1_655 S
