data_str_m3_o10_o17_pcu_sym.220
_audit_creation_date              2020-01-03
_audit_creation_method            'Materials Studio'
_symmetry_space_group_name_H-M    'P1'
_symmetry_Int_Tables_number       1
_symmetry_cell_setting            triclinic
loop_
_symmetry_equiv_pos_as_xyz
  x,y,z
_cell_length_a                    23.3518
_cell_length_b                    25.6975
_cell_length_c                    29.9008
_cell_angle_alpha                 91.6189
_cell_angle_beta                  85.1461
_cell_angle_gamma                 93.6807
loop_
_atom_site_label
_atom_site_type_symbol
_atom_site_fract_x
_atom_site_fract_y
_atom_site_fract_z
_atom_site_U_iso_or_equiv
_atom_site_adp_type
_atom_site_occupancy
C1     C     0.18191   0.26490   0.24885   0.00000  Uiso   1.00
C2     C     0.15142   0.06844   0.25115   0.00000  Uiso   1.00
C3     C     0.26743   0.20048   0.47124   0.00000  Uiso   1.00
C4     C     0.06590   0.13285   0.02876   0.00000  Uiso   1.00
C5     C     0.18995   0.31939   0.24816   0.00000  Uiso   1.00
C6     C     0.14339   0.01394   0.25184   0.00000  Uiso   1.00
C7     C     0.16699   0.16645   0.33656   0.00000  Uiso   1.00
C8     C     0.16634   0.16689   0.16344   0.00000  Uiso   1.00
C9     C     0.11571   0.15117   0.09575   0.00000  Uiso   1.00
C10    C     0.21762   0.18216   0.40425   0.00000  Uiso   1.00
C11    C     0.16591   0.16762   0.11563   0.00000  Uiso   1.00
C12    C     0.16742   0.16571   0.38437   0.00000  Uiso   1.00
C13    C     0.21616   0.18417   0.08995   0.00000  Uiso   1.00
C14    C     0.11718   0.14916   0.41005   0.00000  Uiso   1.00
C15    C     0.21673   0.18421   0.04372   0.00000  Uiso   1.00
C16    C     0.11660   0.14913   0.45628   0.00000  Uiso   1.00
C17    C     0.16639   0.16698   0.02328   0.00000  Uiso   1.00
C18    C     0.16694   0.16635   0.47672   0.00000  Uiso   1.00
C19    C     0.11556   0.15033   0.04942   0.00000  Uiso   1.00
C20    C     0.21777   0.18301   0.45058   0.00000  Uiso   1.00
C21    C     0.26679   0.20105   0.01773   0.00000  Uiso   1.00
C22    C     0.06655   0.13228   0.48227   0.00000  Uiso   1.00
H23    H     0.30538   0.21458   0.03341   0.00000  Uiso   1.00
H24    H     0.02795   0.11875   0.46659   0.00000  Uiso   1.00
H25    H     0.23393   0.00306   0.24465   0.00000  Uiso   1.00
H26    H     0.09940   0.33027   0.25535   0.00000  Uiso   1.00
N27    N     0.31678   0.15265   0.23783   0.00000  Uiso   1.00
N28    N     0.01656   0.18068   0.26217   0.00000  Uiso   1.00
O29    O     0.12975   0.24619   0.25298   0.00000  Uiso   1.00
O30    O     0.20358   0.08714   0.24701   0.00000  Uiso   1.00
O31    O     0.22613   0.23721   0.24518   0.00000  Uiso   1.00
O32    O     0.10720   0.09613   0.25481   0.00000  Uiso   1.00
O33    O     0.11847   0.17117   0.31997   0.00000  Uiso   1.00
O34    O     0.21486   0.16216   0.18002   0.00000  Uiso   1.00
O35    O     0.21485   0.16219   0.31217   0.00000  Uiso   1.00
O36    O     0.11848   0.17115   0.18782   0.00000  Uiso   1.00
Zn37   Zn    0.10231   0.17266   0.25521   0.00000  Uiso   1.00
Zn38   Zn    0.23102   0.16067   0.24479   0.00000  Uiso   1.00
H39    H     0.07732   0.13817   0.11640   0.00000  Uiso   1.00
H40    H     0.25602   0.19516   0.38360   0.00000  Uiso   1.00
H41    H     0.25466   0.19732   0.10600   0.00000  Uiso   1.00
H42    H     0.07867   0.13601   0.39400   0.00000  Uiso   1.00
F43    F     0.31638   0.21707   0.44656   0.00000  Uiso   1.00
F44    F     0.01695   0.11626   0.05344   0.00000  Uiso   1.00
F45    F     0.01012   0.11897   0.20972   0.00000  Uiso   1.00
F46    F     0.32322   0.21436   0.29028   0.00000  Uiso   1.00
C47    C     0.51525   0.26490   0.24885   0.00000  Uiso   1.00
C48    C     0.48475   0.06844   0.25115   0.00000  Uiso   1.00
C49    C     0.60077   0.20048   0.47124   0.00000  Uiso   1.00
C50    C     0.39923   0.13285   0.02876   0.00000  Uiso   1.00
C51    C     0.52328   0.31939   0.24816   0.00000  Uiso   1.00
C52    C     0.47672   0.01394   0.25184   0.00000  Uiso   1.00
C53    C     0.50032   0.16645   0.33656   0.00000  Uiso   1.00
C54    C     0.49968   0.16689   0.16344   0.00000  Uiso   1.00
C55    C     0.44905   0.15117   0.09575   0.00000  Uiso   1.00
C56    C     0.55095   0.18216   0.40425   0.00000  Uiso   1.00
C57    C     0.49925   0.16762   0.11563   0.00000  Uiso   1.00
C58    C     0.50075   0.16571   0.38437   0.00000  Uiso   1.00
C59    C     0.54949   0.18417   0.08995   0.00000  Uiso   1.00
C60    C     0.45051   0.14916   0.41005   0.00000  Uiso   1.00
C61    C     0.55007   0.18421   0.04372   0.00000  Uiso   1.00
C62    C     0.44993   0.14913   0.45628   0.00000  Uiso   1.00
C63    C     0.49973   0.16698   0.02328   0.00000  Uiso   1.00
C64    C     0.50027   0.16635   0.47672   0.00000  Uiso   1.00
C65    C     0.44889   0.15033   0.04942   0.00000  Uiso   1.00
C66    C     0.55110   0.18301   0.45058   0.00000  Uiso   1.00
C67    C     0.60012   0.20105   0.01773   0.00000  Uiso   1.00
C68    C     0.39988   0.13228   0.48227   0.00000  Uiso   1.00
H69    H     0.63871   0.21458   0.03341   0.00000  Uiso   1.00
H70    H     0.36129   0.11875   0.46659   0.00000  Uiso   1.00
H71    H     0.56726   0.00306   0.24465   0.00000  Uiso   1.00
H72    H     0.43274   0.33027   0.25535   0.00000  Uiso   1.00
N73    N     0.65011   0.15265   0.23783   0.00000  Uiso   1.00
N74    N     0.34989   0.18068   0.26217   0.00000  Uiso   1.00
O75    O     0.46308   0.24619   0.25298   0.00000  Uiso   1.00
O76    O     0.53692   0.08714   0.24701   0.00000  Uiso   1.00
O77    O     0.55946   0.23721   0.24518   0.00000  Uiso   1.00
O78    O     0.44054   0.09613   0.25481   0.00000  Uiso   1.00
O79    O     0.45181   0.17117   0.31997   0.00000  Uiso   1.00
O80    O     0.54819   0.16216   0.18002   0.00000  Uiso   1.00
O81    O     0.54819   0.16219   0.31217   0.00000  Uiso   1.00
O82    O     0.45181   0.17115   0.18782   0.00000  Uiso   1.00
Zn83   Zn    0.43565   0.17266   0.25521   0.00000  Uiso   1.00
Zn84   Zn    0.56435   0.16067   0.24479   0.00000  Uiso   1.00
H85    H     0.41065   0.13817   0.11640   0.00000  Uiso   1.00
H86    H     0.58935   0.19516   0.38360   0.00000  Uiso   1.00
H87    H     0.58800   0.19732   0.10600   0.00000  Uiso   1.00
H88    H     0.41200   0.13601   0.39400   0.00000  Uiso   1.00
F89    F     0.64971   0.21707   0.44656   0.00000  Uiso   1.00
F90    F     0.35029   0.11626   0.05344   0.00000  Uiso   1.00
F91    F     0.34345   0.11897   0.20972   0.00000  Uiso   1.00
F92    F     0.65655   0.21436   0.29028   0.00000  Uiso   1.00
C93    C     0.84858   0.26490   0.24885   0.00000  Uiso   1.00
C94    C     0.81809   0.06844   0.25115   0.00000  Uiso   1.00
C95    C     0.93410   0.20048   0.47124   0.00000  Uiso   1.00
C96    C     0.73257   0.13285   0.02876   0.00000  Uiso   1.00
C97    C     0.85661   0.31939   0.24816   0.00000  Uiso   1.00
C98    C     0.81005   0.01394   0.25184   0.00000  Uiso   1.00
C99    C     0.83365   0.16645   0.33656   0.00000  Uiso   1.00
C100   C     0.83301   0.16689   0.16344   0.00000  Uiso   1.00
C101   C     0.78238   0.15117   0.09575   0.00000  Uiso   1.00
C102   C     0.88428   0.18216   0.40425   0.00000  Uiso   1.00
C103   C     0.83258   0.16762   0.11563   0.00000  Uiso   1.00
C104   C     0.83409   0.16571   0.38437   0.00000  Uiso   1.00
C105   C     0.88282   0.18417   0.08995   0.00000  Uiso   1.00
C106   C     0.78384   0.14916   0.41005   0.00000  Uiso   1.00
C107   C     0.88340   0.18421   0.04372   0.00000  Uiso   1.00
C108   C     0.78327   0.14913   0.45628   0.00000  Uiso   1.00
C109   C     0.83306   0.16698   0.02328   0.00000  Uiso   1.00
C110   C     0.83361   0.16635   0.47672   0.00000  Uiso   1.00
C111   C     0.78223   0.15033   0.04942   0.00000  Uiso   1.00
C112   C     0.88444   0.18301   0.45058   0.00000  Uiso   1.00
C113   C     0.93345   0.20105   0.01773   0.00000  Uiso   1.00
C114   C     0.73321   0.13228   0.48227   0.00000  Uiso   1.00
H115   H     0.97205   0.21458   0.03341   0.00000  Uiso   1.00
H116   H     0.69462   0.11875   0.46659   0.00000  Uiso   1.00
H117   H     0.90060   0.00306   0.24465   0.00000  Uiso   1.00
H118   H     0.76607   0.33027   0.25535   0.00000  Uiso   1.00
N119   N     0.98344   0.15265   0.23783   0.00000  Uiso   1.00
N120   N     0.68322   0.18068   0.26217   0.00000  Uiso   1.00
O121   O     0.79642   0.24619   0.25298   0.00000  Uiso   1.00
O122   O     0.87025   0.08714   0.24701   0.00000  Uiso   1.00
O123   O     0.89280   0.23721   0.24518   0.00000  Uiso   1.00
O124   O     0.77387   0.09613   0.25481   0.00000  Uiso   1.00
O125   O     0.78514   0.17117   0.31997   0.00000  Uiso   1.00
O126   O     0.88153   0.16216   0.18002   0.00000  Uiso   1.00
O127   O     0.88152   0.16219   0.31217   0.00000  Uiso   1.00
O128   O     0.78515   0.17115   0.18782   0.00000  Uiso   1.00
Zn129  Zn    0.76898   0.17266   0.25521   0.00000  Uiso   1.00
Zn130  Zn    0.89769   0.16067   0.24479   0.00000  Uiso   1.00
H131   H     0.74398   0.13817   0.11640   0.00000  Uiso   1.00
H132   H     0.92268   0.19516   0.38360   0.00000  Uiso   1.00
H133   H     0.92133   0.19732   0.10600   0.00000  Uiso   1.00
H134   H     0.74534   0.13601   0.39400   0.00000  Uiso   1.00
F135   F     0.98305   0.21707   0.44656   0.00000  Uiso   1.00
F136   F     0.68362   0.11626   0.05344   0.00000  Uiso   1.00
F137   F     0.67678   0.11897   0.20972   0.00000  Uiso   1.00
F138   F     0.98988   0.21436   0.29028   0.00000  Uiso   1.00
C139   C     0.18191   0.59823   0.24885   0.00000  Uiso   1.00
C140   C     0.15142   0.40177   0.25115   0.00000  Uiso   1.00
C141   C     0.26743   0.53381   0.47124   0.00000  Uiso   1.00
C142   C     0.06590   0.46619   0.02876   0.00000  Uiso   1.00
C143   C     0.18995   0.65273   0.24816   0.00000  Uiso   1.00
C144   C     0.14339   0.34727   0.25184   0.00000  Uiso   1.00
C145   C     0.16699   0.49978   0.33656   0.00000  Uiso   1.00
C146   C     0.16634   0.50022   0.16344   0.00000  Uiso   1.00
C147   C     0.11571   0.48451   0.09575   0.00000  Uiso   1.00
C148   C     0.21762   0.51549   0.40425   0.00000  Uiso   1.00
C149   C     0.16591   0.50095   0.11563   0.00000  Uiso   1.00
C150   C     0.16742   0.49905   0.38437   0.00000  Uiso   1.00
C151   C     0.21616   0.51751   0.08995   0.00000  Uiso   1.00
C152   C     0.11718   0.48249   0.41005   0.00000  Uiso   1.00
C153   C     0.21673   0.51754   0.04372   0.00000  Uiso   1.00
C154   C     0.11660   0.48246   0.45628   0.00000  Uiso   1.00
C155   C     0.16639   0.50031   0.02328   0.00000  Uiso   1.00
C156   C     0.16694   0.49969   0.47672   0.00000  Uiso   1.00
C157   C     0.11556   0.48366   0.04942   0.00000  Uiso   1.00
C158   C     0.21777   0.51634   0.45058   0.00000  Uiso   1.00
C159   C     0.26679   0.53439   0.01773   0.00000  Uiso   1.00
C160   C     0.06655   0.46561   0.48227   0.00000  Uiso   1.00
H161   H     0.30538   0.54792   0.03341   0.00000  Uiso   1.00
H162   H     0.02795   0.45208   0.46659   0.00000  Uiso   1.00
H163   H     0.23393   0.33639   0.24465   0.00000  Uiso   1.00
H164   H     0.09940   0.66361   0.25535   0.00000  Uiso   1.00
N165   N     0.31678   0.48598   0.23783   0.00000  Uiso   1.00
N166   N     0.01656   0.51402   0.26217   0.00000  Uiso   1.00
O167   O     0.12975   0.57952   0.25298   0.00000  Uiso   1.00
O168   O     0.20358   0.42048   0.24701   0.00000  Uiso   1.00
O169   O     0.22613   0.57054   0.24518   0.00000  Uiso   1.00
O170   O     0.10720   0.42946   0.25481   0.00000  Uiso   1.00
O171   O     0.11847   0.50450   0.31997   0.00000  Uiso   1.00
O172   O     0.21486   0.49550   0.18002   0.00000  Uiso   1.00
O173   O     0.21485   0.49552   0.31217   0.00000  Uiso   1.00
O174   O     0.11848   0.50448   0.18782   0.00000  Uiso   1.00
Zn175  Zn    0.10231   0.50600   0.25521   0.00000  Uiso   1.00
Zn176  Zn    0.23102   0.49400   0.24479   0.00000  Uiso   1.00
H177   H     0.07732   0.47150   0.11640   0.00000  Uiso   1.00
H178   H     0.25602   0.52850   0.38360   0.00000  Uiso   1.00
H179   H     0.25466   0.53065   0.10600   0.00000  Uiso   1.00
H180   H     0.07867   0.46935   0.39400   0.00000  Uiso   1.00
F181   F     0.31638   0.55040   0.44656   0.00000  Uiso   1.00
F182   F     0.01695   0.44960   0.05344   0.00000  Uiso   1.00
F183   F     0.01012   0.45230   0.20972   0.00000  Uiso   1.00
F184   F     0.32322   0.54770   0.29028   0.00000  Uiso   1.00
C185   C     0.51525   0.59823   0.24885   0.00000  Uiso   1.00
C186   C     0.48475   0.40177   0.25115   0.00000  Uiso   1.00
C187   C     0.60077   0.53381   0.47124   0.00000  Uiso   1.00
C188   C     0.39923   0.46619   0.02876   0.00000  Uiso   1.00
C189   C     0.52328   0.65273   0.24816   0.00000  Uiso   1.00
C190   C     0.47672   0.34727   0.25184   0.00000  Uiso   1.00
C191   C     0.50032   0.49978   0.33656   0.00000  Uiso   1.00
C192   C     0.49968   0.50022   0.16344   0.00000  Uiso   1.00
C193   C     0.44905   0.48451   0.09575   0.00000  Uiso   1.00
C194   C     0.55095   0.51549   0.40425   0.00000  Uiso   1.00
C195   C     0.49925   0.50095   0.11563   0.00000  Uiso   1.00
C196   C     0.50075   0.49905   0.38437   0.00000  Uiso   1.00
C197   C     0.54949   0.51751   0.08995   0.00000  Uiso   1.00
C198   C     0.45051   0.48249   0.41005   0.00000  Uiso   1.00
C199   C     0.55007   0.51754   0.04372   0.00000  Uiso   1.00
C200   C     0.44993   0.48246   0.45628   0.00000  Uiso   1.00
C201   C     0.49973   0.50031   0.02328   0.00000  Uiso   1.00
C202   C     0.50027   0.49969   0.47672   0.00000  Uiso   1.00
C203   C     0.44889   0.48366   0.04942   0.00000  Uiso   1.00
C204   C     0.55110   0.51634   0.45058   0.00000  Uiso   1.00
C205   C     0.60012   0.53439   0.01773   0.00000  Uiso   1.00
C206   C     0.39988   0.46561   0.48227   0.00000  Uiso   1.00
H207   H     0.63871   0.54792   0.03341   0.00000  Uiso   1.00
H208   H     0.36129   0.45208   0.46659   0.00000  Uiso   1.00
H209   H     0.56726   0.33639   0.24465   0.00000  Uiso   1.00
H210   H     0.43274   0.66361   0.25535   0.00000  Uiso   1.00
N211   N     0.65011   0.48598   0.23783   0.00000  Uiso   1.00
N212   N     0.34989   0.51402   0.26217   0.00000  Uiso   1.00
O213   O     0.46308   0.57952   0.25298   0.00000  Uiso   1.00
O214   O     0.53692   0.42048   0.24701   0.00000  Uiso   1.00
O215   O     0.55946   0.57054   0.24518   0.00000  Uiso   1.00
O216   O     0.44054   0.42946   0.25481   0.00000  Uiso   1.00
O217   O     0.45181   0.50450   0.31997   0.00000  Uiso   1.00
O218   O     0.54819   0.49550   0.18002   0.00000  Uiso   1.00
O219   O     0.54819   0.49552   0.31217   0.00000  Uiso   1.00
O220   O     0.45181   0.50448   0.18782   0.00000  Uiso   1.00
Zn221  Zn    0.43565   0.50600   0.25521   0.00000  Uiso   1.00
Zn222  Zn    0.56435   0.49400   0.24479   0.00000  Uiso   1.00
H223   H     0.41065   0.47150   0.11640   0.00000  Uiso   1.00
H224   H     0.58935   0.52850   0.38360   0.00000  Uiso   1.00
H225   H     0.58800   0.53065   0.10600   0.00000  Uiso   1.00
H226   H     0.41200   0.46935   0.39400   0.00000  Uiso   1.00
F227   F     0.64971   0.55040   0.44656   0.00000  Uiso   1.00
F228   F     0.35029   0.44960   0.05344   0.00000  Uiso   1.00
F229   F     0.34345   0.45230   0.20972   0.00000  Uiso   1.00
F230   F     0.65655   0.54770   0.29028   0.00000  Uiso   1.00
C231   C     0.84858   0.59823   0.24885   0.00000  Uiso   1.00
C232   C     0.81809   0.40177   0.25115   0.00000  Uiso   1.00
C233   C     0.93410   0.53381   0.47124   0.00000  Uiso   1.00
C234   C     0.73257   0.46619   0.02876   0.00000  Uiso   1.00
C235   C     0.85661   0.65273   0.24816   0.00000  Uiso   1.00
C236   C     0.81005   0.34727   0.25184   0.00000  Uiso   1.00
C237   C     0.83365   0.49978   0.33656   0.00000  Uiso   1.00
C238   C     0.83301   0.50022   0.16344   0.00000  Uiso   1.00
C239   C     0.78238   0.48451   0.09575   0.00000  Uiso   1.00
C240   C     0.88428   0.51549   0.40425   0.00000  Uiso   1.00
C241   C     0.83258   0.50095   0.11563   0.00000  Uiso   1.00
C242   C     0.83409   0.49905   0.38437   0.00000  Uiso   1.00
C243   C     0.88282   0.51751   0.08995   0.00000  Uiso   1.00
C244   C     0.78384   0.48249   0.41005   0.00000  Uiso   1.00
C245   C     0.88340   0.51754   0.04372   0.00000  Uiso   1.00
C246   C     0.78327   0.48246   0.45628   0.00000  Uiso   1.00
C247   C     0.83306   0.50031   0.02328   0.00000  Uiso   1.00
C248   C     0.83361   0.49969   0.47672   0.00000  Uiso   1.00
C249   C     0.78223   0.48366   0.04942   0.00000  Uiso   1.00
C250   C     0.88444   0.51634   0.45058   0.00000  Uiso   1.00
C251   C     0.93345   0.53439   0.01773   0.00000  Uiso   1.00
C252   C     0.73321   0.46561   0.48227   0.00000  Uiso   1.00
H253   H     0.97205   0.54792   0.03341   0.00000  Uiso   1.00
H254   H     0.69462   0.45208   0.46659   0.00000  Uiso   1.00
H255   H     0.90060   0.33639   0.24465   0.00000  Uiso   1.00
H256   H     0.76607   0.66361   0.25535   0.00000  Uiso   1.00
N257   N     0.98344   0.48598   0.23783   0.00000  Uiso   1.00
N258   N     0.68322   0.51402   0.26217   0.00000  Uiso   1.00
O259   O     0.79642   0.57952   0.25298   0.00000  Uiso   1.00
O260   O     0.87025   0.42048   0.24701   0.00000  Uiso   1.00
O261   O     0.89280   0.57054   0.24518   0.00000  Uiso   1.00
O262   O     0.77387   0.42946   0.25481   0.00000  Uiso   1.00
O263   O     0.78514   0.50450   0.31997   0.00000  Uiso   1.00
O264   O     0.88153   0.49550   0.18002   0.00000  Uiso   1.00
O265   O     0.88152   0.49552   0.31217   0.00000  Uiso   1.00
O266   O     0.78515   0.50448   0.18782   0.00000  Uiso   1.00
Zn267  Zn    0.76898   0.50600   0.25521   0.00000  Uiso   1.00
Zn268  Zn    0.89769   0.49400   0.24479   0.00000  Uiso   1.00
H269   H     0.74398   0.47150   0.11640   0.00000  Uiso   1.00
H270   H     0.92268   0.52850   0.38360   0.00000  Uiso   1.00
H271   H     0.92133   0.53065   0.10600   0.00000  Uiso   1.00
H272   H     0.74534   0.46935   0.39400   0.00000  Uiso   1.00
F273   F     0.98305   0.55040   0.44656   0.00000  Uiso   1.00
F274   F     0.68362   0.44960   0.05344   0.00000  Uiso   1.00
F275   F     0.67678   0.45230   0.20972   0.00000  Uiso   1.00
F276   F     0.98988   0.54770   0.29028   0.00000  Uiso   1.00
C277   C     0.18191   0.93156   0.24885   0.00000  Uiso   1.00
C278   C     0.15142   0.73510   0.25115   0.00000  Uiso   1.00
C279   C     0.26743   0.86714   0.47124   0.00000  Uiso   1.00
C280   C     0.06590   0.79952   0.02876   0.00000  Uiso   1.00
C281   C     0.18995   0.98606   0.24816   0.00000  Uiso   1.00
C282   C     0.14339   0.68060   0.25184   0.00000  Uiso   1.00
C283   C     0.16699   0.83311   0.33656   0.00000  Uiso   1.00
C284   C     0.16634   0.83355   0.16344   0.00000  Uiso   1.00
C285   C     0.11571   0.81784   0.09575   0.00000  Uiso   1.00
C286   C     0.21762   0.84883   0.40425   0.00000  Uiso   1.00
C287   C     0.16591   0.83429   0.11563   0.00000  Uiso   1.00
C288   C     0.16742   0.83238   0.38437   0.00000  Uiso   1.00
C289   C     0.21616   0.85084   0.08995   0.00000  Uiso   1.00
C290   C     0.11718   0.81582   0.41005   0.00000  Uiso   1.00
C291   C     0.21673   0.85087   0.04372   0.00000  Uiso   1.00
C292   C     0.11660   0.81579   0.45628   0.00000  Uiso   1.00
C293   C     0.16639   0.83365   0.02328   0.00000  Uiso   1.00
C294   C     0.16694   0.83302   0.47672   0.00000  Uiso   1.00
C295   C     0.11556   0.81699   0.04942   0.00000  Uiso   1.00
C296   C     0.21777   0.84967   0.45058   0.00000  Uiso   1.00
C297   C     0.26679   0.86772   0.01773   0.00000  Uiso   1.00
C298   C     0.06655   0.79895   0.48227   0.00000  Uiso   1.00
H299   H     0.30538   0.88125   0.03341   0.00000  Uiso   1.00
H300   H     0.02795   0.78542   0.46659   0.00000  Uiso   1.00
H301   H     0.23393   0.66973   0.24465   0.00000  Uiso   1.00
H302   H     0.09940   0.99694   0.25535   0.00000  Uiso   1.00
N303   N     0.31678   0.81932   0.23783   0.00000  Uiso   1.00
N304   N     0.01656   0.84735   0.26217   0.00000  Uiso   1.00
O305   O     0.12975   0.91286   0.25298   0.00000  Uiso   1.00
O306   O     0.20358   0.75381   0.24701   0.00000  Uiso   1.00
O307   O     0.22613   0.90387   0.24518   0.00000  Uiso   1.00
O308   O     0.10720   0.76279   0.25481   0.00000  Uiso   1.00
O309   O     0.11847   0.83784   0.31997   0.00000  Uiso   1.00
O310   O     0.21486   0.82883   0.18002   0.00000  Uiso   1.00
O311   O     0.21485   0.82885   0.31217   0.00000  Uiso   1.00
O312   O     0.11848   0.83781   0.18782   0.00000  Uiso   1.00
Zn313  Zn    0.10231   0.83933   0.25521   0.00000  Uiso   1.00
Zn314  Zn    0.23102   0.82734   0.24479   0.00000  Uiso   1.00
H315   H     0.07732   0.80484   0.11640   0.00000  Uiso   1.00
H316   H     0.25602   0.86183   0.38360   0.00000  Uiso   1.00
H317   H     0.25466   0.86398   0.10600   0.00000  Uiso   1.00
H318   H     0.07867   0.80268   0.39400   0.00000  Uiso   1.00
F319   F     0.31638   0.88374   0.44656   0.00000  Uiso   1.00
F320   F     0.01695   0.78293   0.05344   0.00000  Uiso   1.00
F321   F     0.01012   0.78564   0.20972   0.00000  Uiso   1.00
F322   F     0.32322   0.88103   0.29028   0.00000  Uiso   1.00
C323   C     0.51525   0.93156   0.24885   0.00000  Uiso   1.00
C324   C     0.48475   0.73510   0.25115   0.00000  Uiso   1.00
C325   C     0.60077   0.86714   0.47124   0.00000  Uiso   1.00
C326   C     0.39923   0.79952   0.02876   0.00000  Uiso   1.00
C327   C     0.52328   0.98606   0.24816   0.00000  Uiso   1.00
C328   C     0.47672   0.68060   0.25184   0.00000  Uiso   1.00
C329   C     0.50032   0.83311   0.33656   0.00000  Uiso   1.00
C330   C     0.49968   0.83355   0.16344   0.00000  Uiso   1.00
C331   C     0.44905   0.81784   0.09575   0.00000  Uiso   1.00
C332   C     0.55095   0.84883   0.40425   0.00000  Uiso   1.00
C333   C     0.49925   0.83429   0.11563   0.00000  Uiso   1.00
C334   C     0.50075   0.83238   0.38437   0.00000  Uiso   1.00
C335   C     0.54949   0.85084   0.08995   0.00000  Uiso   1.00
C336   C     0.45051   0.81582   0.41005   0.00000  Uiso   1.00
C337   C     0.55007   0.85087   0.04372   0.00000  Uiso   1.00
C338   C     0.44993   0.81579   0.45628   0.00000  Uiso   1.00
C339   C     0.49973   0.83365   0.02328   0.00000  Uiso   1.00
C340   C     0.50027   0.83302   0.47672   0.00000  Uiso   1.00
C341   C     0.44889   0.81699   0.04942   0.00000  Uiso   1.00
C342   C     0.55110   0.84967   0.45058   0.00000  Uiso   1.00
C343   C     0.60012   0.86772   0.01773   0.00000  Uiso   1.00
C344   C     0.39988   0.79895   0.48227   0.00000  Uiso   1.00
H345   H     0.63871   0.88125   0.03341   0.00000  Uiso   1.00
H346   H     0.36129   0.78542   0.46659   0.00000  Uiso   1.00
H347   H     0.56726   0.66973   0.24465   0.00000  Uiso   1.00
H348   H     0.43274   0.99694   0.25535   0.00000  Uiso   1.00
N349   N     0.65011   0.81932   0.23783   0.00000  Uiso   1.00
N350   N     0.34989   0.84735   0.26217   0.00000  Uiso   1.00
O351   O     0.46308   0.91286   0.25298   0.00000  Uiso   1.00
O352   O     0.53692   0.75381   0.24701   0.00000  Uiso   1.00
O353   O     0.55946   0.90387   0.24518   0.00000  Uiso   1.00
O354   O     0.44054   0.76279   0.25481   0.00000  Uiso   1.00
O355   O     0.45181   0.83784   0.31997   0.00000  Uiso   1.00
O356   O     0.54819   0.82883   0.18002   0.00000  Uiso   1.00
O357   O     0.54819   0.82885   0.31217   0.00000  Uiso   1.00
O358   O     0.45181   0.83781   0.18782   0.00000  Uiso   1.00
Zn359  Zn    0.43565   0.83933   0.25521   0.00000  Uiso   1.00
Zn360  Zn    0.56435   0.82734   0.24479   0.00000  Uiso   1.00
H361   H     0.41065   0.80484   0.11640   0.00000  Uiso   1.00
H362   H     0.58935   0.86183   0.38360   0.00000  Uiso   1.00
H363   H     0.58800   0.86398   0.10600   0.00000  Uiso   1.00
H364   H     0.41200   0.80268   0.39400   0.00000  Uiso   1.00
F365   F     0.64971   0.88374   0.44656   0.00000  Uiso   1.00
F366   F     0.35029   0.78293   0.05344   0.00000  Uiso   1.00
F367   F     0.34345   0.78564   0.20972   0.00000  Uiso   1.00
F368   F     0.65655   0.88103   0.29028   0.00000  Uiso   1.00
C369   C     0.84858   0.93156   0.24885   0.00000  Uiso   1.00
C370   C     0.81809   0.73510   0.25115   0.00000  Uiso   1.00
C371   C     0.93410   0.86714   0.47124   0.00000  Uiso   1.00
C372   C     0.73257   0.79952   0.02876   0.00000  Uiso   1.00
C373   C     0.85661   0.98606   0.24816   0.00000  Uiso   1.00
C374   C     0.81005   0.68060   0.25184   0.00000  Uiso   1.00
C375   C     0.83365   0.83311   0.33656   0.00000  Uiso   1.00
C376   C     0.83301   0.83355   0.16344   0.00000  Uiso   1.00
C377   C     0.78238   0.81784   0.09575   0.00000  Uiso   1.00
C378   C     0.88428   0.84883   0.40425   0.00000  Uiso   1.00
C379   C     0.83258   0.83429   0.11563   0.00000  Uiso   1.00
C380   C     0.83409   0.83238   0.38437   0.00000  Uiso   1.00
C381   C     0.88282   0.85084   0.08995   0.00000  Uiso   1.00
C382   C     0.78384   0.81582   0.41005   0.00000  Uiso   1.00
C383   C     0.88340   0.85087   0.04372   0.00000  Uiso   1.00
C384   C     0.78327   0.81579   0.45628   0.00000  Uiso   1.00
C385   C     0.83306   0.83365   0.02328   0.00000  Uiso   1.00
C386   C     0.83361   0.83302   0.47672   0.00000  Uiso   1.00
C387   C     0.78223   0.81699   0.04942   0.00000  Uiso   1.00
C388   C     0.88444   0.84967   0.45058   0.00000  Uiso   1.00
C389   C     0.93345   0.86772   0.01773   0.00000  Uiso   1.00
C390   C     0.73321   0.79895   0.48227   0.00000  Uiso   1.00
H391   H     0.97205   0.88125   0.03341   0.00000  Uiso   1.00
H392   H     0.69462   0.78542   0.46659   0.00000  Uiso   1.00
H393   H     0.90060   0.66973   0.24465   0.00000  Uiso   1.00
H394   H     0.76607   0.99694   0.25535   0.00000  Uiso   1.00
N395   N     0.98344   0.81932   0.23783   0.00000  Uiso   1.00
N396   N     0.68322   0.84735   0.26217   0.00000  Uiso   1.00
O397   O     0.79642   0.91286   0.25298   0.00000  Uiso   1.00
O398   O     0.87025   0.75381   0.24701   0.00000  Uiso   1.00
O399   O     0.89280   0.90387   0.24518   0.00000  Uiso   1.00
O400   O     0.77387   0.76279   0.25481   0.00000  Uiso   1.00
O401   O     0.78514   0.83784   0.31997   0.00000  Uiso   1.00
O402   O     0.88153   0.82883   0.18002   0.00000  Uiso   1.00
O403   O     0.88152   0.82885   0.31217   0.00000  Uiso   1.00
O404   O     0.78515   0.83781   0.18782   0.00000  Uiso   1.00
Zn405  Zn    0.76898   0.83933   0.25521   0.00000  Uiso   1.00
Zn406  Zn    0.89769   0.82734   0.24479   0.00000  Uiso   1.00
H407   H     0.74398   0.80484   0.11640   0.00000  Uiso   1.00
H408   H     0.92268   0.86183   0.38360   0.00000  Uiso   1.00
H409   H     0.92133   0.86398   0.10600   0.00000  Uiso   1.00
H410   H     0.74534   0.80268   0.39400   0.00000  Uiso   1.00
F411   F     0.98305   0.88374   0.44656   0.00000  Uiso   1.00
F412   F     0.68362   0.78293   0.05344   0.00000  Uiso   1.00
F413   F     0.67678   0.78564   0.20972   0.00000  Uiso   1.00
F414   F     0.98988   0.88103   0.29028   0.00000  Uiso   1.00
C415   C     0.18191   0.26490   0.74885   0.00000  Uiso   1.00
C416   C     0.15142   0.06844   0.75115   0.00000  Uiso   1.00
C417   C     0.26743   0.20048   0.97124   0.00000  Uiso   1.00
C418   C     0.06590   0.13285   0.52876   0.00000  Uiso   1.00
C419   C     0.18995   0.31939   0.74816   0.00000  Uiso   1.00
C420   C     0.14339   0.01394   0.75184   0.00000  Uiso   1.00
C421   C     0.16699   0.16645   0.83656   0.00000  Uiso   1.00
C422   C     0.16634   0.16689   0.66344   0.00000  Uiso   1.00
C423   C     0.11571   0.15117   0.59575   0.00000  Uiso   1.00
C424   C     0.21762   0.18216   0.90425   0.00000  Uiso   1.00
C425   C     0.16591   0.16762   0.61563   0.00000  Uiso   1.00
C426   C     0.16742   0.16571   0.88437   0.00000  Uiso   1.00
C427   C     0.21616   0.18417   0.58995   0.00000  Uiso   1.00
C428   C     0.11718   0.14916   0.91005   0.00000  Uiso   1.00
C429   C     0.21673   0.18421   0.54372   0.00000  Uiso   1.00
C430   C     0.11660   0.14913   0.95628   0.00000  Uiso   1.00
C431   C     0.16639   0.16698   0.52328   0.00000  Uiso   1.00
C432   C     0.16694   0.16635   0.97672   0.00000  Uiso   1.00
C433   C     0.11556   0.15033   0.54942   0.00000  Uiso   1.00
C434   C     0.21777   0.18301   0.95058   0.00000  Uiso   1.00
C435   C     0.26679   0.20105   0.51773   0.00000  Uiso   1.00
C436   C     0.06655   0.13228   0.98227   0.00000  Uiso   1.00
H437   H     0.30538   0.21458   0.53341   0.00000  Uiso   1.00
H438   H     0.02795   0.11875   0.96659   0.00000  Uiso   1.00
H439   H     0.23393   0.00306   0.74465   0.00000  Uiso   1.00
H440   H     0.09940   0.33027   0.75535   0.00000  Uiso   1.00
N441   N     0.31678   0.15265   0.73783   0.00000  Uiso   1.00
N442   N     0.01656   0.18068   0.76217   0.00000  Uiso   1.00
O443   O     0.12975   0.24619   0.75298   0.00000  Uiso   1.00
O444   O     0.20358   0.08714   0.74701   0.00000  Uiso   1.00
O445   O     0.22613   0.23721   0.74518   0.00000  Uiso   1.00
O446   O     0.10720   0.09613   0.75481   0.00000  Uiso   1.00
O447   O     0.11847   0.17117   0.81997   0.00000  Uiso   1.00
O448   O     0.21486   0.16216   0.68002   0.00000  Uiso   1.00
O449   O     0.21485   0.16219   0.81217   0.00000  Uiso   1.00
O450   O     0.11848   0.17115   0.68782   0.00000  Uiso   1.00
Zn451  Zn    0.10231   0.17266   0.75521   0.00000  Uiso   1.00
Zn452  Zn    0.23102   0.16067   0.74479   0.00000  Uiso   1.00
H453   H     0.07732   0.13817   0.61640   0.00000  Uiso   1.00
H454   H     0.25602   0.19516   0.88360   0.00000  Uiso   1.00
H455   H     0.25466   0.19732   0.60600   0.00000  Uiso   1.00
H456   H     0.07867   0.13601   0.89400   0.00000  Uiso   1.00
F457   F     0.31638   0.21707   0.94656   0.00000  Uiso   1.00
F458   F     0.01695   0.11626   0.55344   0.00000  Uiso   1.00
F459   F     0.01012   0.11897   0.70972   0.00000  Uiso   1.00
F460   F     0.32322   0.21436   0.79028   0.00000  Uiso   1.00
C461   C     0.51525   0.26490   0.74885   0.00000  Uiso   1.00
C462   C     0.48475   0.06844   0.75115   0.00000  Uiso   1.00
C463   C     0.60077   0.20048   0.97124   0.00000  Uiso   1.00
C464   C     0.39923   0.13285   0.52876   0.00000  Uiso   1.00
C465   C     0.52328   0.31939   0.74816   0.00000  Uiso   1.00
C466   C     0.47672   0.01394   0.75184   0.00000  Uiso   1.00
C467   C     0.50032   0.16645   0.83656   0.00000  Uiso   1.00
C468   C     0.49968   0.16689   0.66344   0.00000  Uiso   1.00
C469   C     0.44905   0.15117   0.59575   0.00000  Uiso   1.00
C470   C     0.55095   0.18216   0.90425   0.00000  Uiso   1.00
C471   C     0.49925   0.16762   0.61563   0.00000  Uiso   1.00
C472   C     0.50075   0.16571   0.88437   0.00000  Uiso   1.00
C473   C     0.54949   0.18417   0.58995   0.00000  Uiso   1.00
C474   C     0.45051   0.14916   0.91005   0.00000  Uiso   1.00
C475   C     0.55007   0.18421   0.54372   0.00000  Uiso   1.00
C476   C     0.44993   0.14913   0.95628   0.00000  Uiso   1.00
C477   C     0.49973   0.16698   0.52328   0.00000  Uiso   1.00
C478   C     0.50027   0.16635   0.97672   0.00000  Uiso   1.00
C479   C     0.44889   0.15033   0.54942   0.00000  Uiso   1.00
C480   C     0.55110   0.18301   0.95058   0.00000  Uiso   1.00
C481   C     0.60012   0.20105   0.51773   0.00000  Uiso   1.00
C482   C     0.39988   0.13228   0.98227   0.00000  Uiso   1.00
H483   H     0.63871   0.21458   0.53341   0.00000  Uiso   1.00
H484   H     0.36129   0.11875   0.96659   0.00000  Uiso   1.00
H485   H     0.56726   0.00306   0.74465   0.00000  Uiso   1.00
H486   H     0.43274   0.33027   0.75535   0.00000  Uiso   1.00
N487   N     0.65011   0.15265   0.73783   0.00000  Uiso   1.00
N488   N     0.34989   0.18068   0.76217   0.00000  Uiso   1.00
O489   O     0.46308   0.24619   0.75298   0.00000  Uiso   1.00
O490   O     0.53692   0.08714   0.74701   0.00000  Uiso   1.00
O491   O     0.55946   0.23721   0.74518   0.00000  Uiso   1.00
O492   O     0.44054   0.09613   0.75481   0.00000  Uiso   1.00
O493   O     0.45181   0.17117   0.81997   0.00000  Uiso   1.00
O494   O     0.54819   0.16216   0.68002   0.00000  Uiso   1.00
O495   O     0.54819   0.16219   0.81217   0.00000  Uiso   1.00
O496   O     0.45181   0.17115   0.68782   0.00000  Uiso   1.00
Zn497  Zn    0.43565   0.17266   0.75521   0.00000  Uiso   1.00
Zn498  Zn    0.56435   0.16067   0.74479   0.00000  Uiso   1.00
H499   H     0.41065   0.13817   0.61640   0.00000  Uiso   1.00
H500   H     0.58935   0.19516   0.88360   0.00000  Uiso   1.00
H501   H     0.58800   0.19732   0.60600   0.00000  Uiso   1.00
H502   H     0.41200   0.13601   0.89400   0.00000  Uiso   1.00
F503   F     0.64971   0.21707   0.94656   0.00000  Uiso   1.00
F504   F     0.35029   0.11626   0.55344   0.00000  Uiso   1.00
F505   F     0.34345   0.11897   0.70972   0.00000  Uiso   1.00
F506   F     0.65655   0.21436   0.79028   0.00000  Uiso   1.00
C507   C     0.84858   0.26490   0.74885   0.00000  Uiso   1.00
C508   C     0.81809   0.06844   0.75115   0.00000  Uiso   1.00
C509   C     0.93410   0.20048   0.97124   0.00000  Uiso   1.00
C510   C     0.73257   0.13285   0.52876   0.00000  Uiso   1.00
C511   C     0.85661   0.31939   0.74816   0.00000  Uiso   1.00
C512   C     0.81005   0.01394   0.75184   0.00000  Uiso   1.00
C513   C     0.83365   0.16645   0.83656   0.00000  Uiso   1.00
C514   C     0.83301   0.16689   0.66344   0.00000  Uiso   1.00
C515   C     0.78238   0.15117   0.59575   0.00000  Uiso   1.00
C516   C     0.88428   0.18216   0.90425   0.00000  Uiso   1.00
C517   C     0.83258   0.16762   0.61563   0.00000  Uiso   1.00
C518   C     0.83409   0.16571   0.88437   0.00000  Uiso   1.00
C519   C     0.88282   0.18417   0.58995   0.00000  Uiso   1.00
C520   C     0.78384   0.14916   0.91005   0.00000  Uiso   1.00
C521   C     0.88340   0.18421   0.54372   0.00000  Uiso   1.00
C522   C     0.78327   0.14913   0.95628   0.00000  Uiso   1.00
C523   C     0.83306   0.16698   0.52328   0.00000  Uiso   1.00
C524   C     0.83361   0.16635   0.97672   0.00000  Uiso   1.00
C525   C     0.78223   0.15033   0.54942   0.00000  Uiso   1.00
C526   C     0.88444   0.18301   0.95058   0.00000  Uiso   1.00
C527   C     0.93345   0.20105   0.51773   0.00000  Uiso   1.00
C528   C     0.73321   0.13228   0.98227   0.00000  Uiso   1.00
H529   H     0.97205   0.21458   0.53341   0.00000  Uiso   1.00
H530   H     0.69462   0.11875   0.96659   0.00000  Uiso   1.00
H531   H     0.90060   0.00306   0.74465   0.00000  Uiso   1.00
H532   H     0.76607   0.33027   0.75535   0.00000  Uiso   1.00
N533   N     0.98344   0.15265   0.73783   0.00000  Uiso   1.00
N534   N     0.68322   0.18068   0.76217   0.00000  Uiso   1.00
O535   O     0.79642   0.24619   0.75298   0.00000  Uiso   1.00
O536   O     0.87025   0.08714   0.74701   0.00000  Uiso   1.00
O537   O     0.89280   0.23721   0.74518   0.00000  Uiso   1.00
O538   O     0.77387   0.09613   0.75481   0.00000  Uiso   1.00
O539   O     0.78514   0.17117   0.81997   0.00000  Uiso   1.00
O540   O     0.88153   0.16216   0.68002   0.00000  Uiso   1.00
O541   O     0.88152   0.16219   0.81217   0.00000  Uiso   1.00
O542   O     0.78515   0.17115   0.68782   0.00000  Uiso   1.00
Zn543  Zn    0.76898   0.17266   0.75521   0.00000  Uiso   1.00
Zn544  Zn    0.89769   0.16067   0.74479   0.00000  Uiso   1.00
H545   H     0.74398   0.13817   0.61640   0.00000  Uiso   1.00
H546   H     0.92268   0.19516   0.88360   0.00000  Uiso   1.00
H547   H     0.92133   0.19732   0.60600   0.00000  Uiso   1.00
H548   H     0.74534   0.13601   0.89400   0.00000  Uiso   1.00
F549   F     0.98305   0.21707   0.94656   0.00000  Uiso   1.00
F550   F     0.68362   0.11626   0.55344   0.00000  Uiso   1.00
F551   F     0.67678   0.11897   0.70972   0.00000  Uiso   1.00
F552   F     0.98988   0.21436   0.79028   0.00000  Uiso   1.00
C553   C     0.18191   0.59823   0.74885   0.00000  Uiso   1.00
C554   C     0.15142   0.40177   0.75115   0.00000  Uiso   1.00
C555   C     0.26743   0.53381   0.97124   0.00000  Uiso   1.00
C556   C     0.06590   0.46619   0.52876   0.00000  Uiso   1.00
C557   C     0.18995   0.65273   0.74816   0.00000  Uiso   1.00
C558   C     0.14339   0.34727   0.75184   0.00000  Uiso   1.00
C559   C     0.16699   0.49978   0.83656   0.00000  Uiso   1.00
C560   C     0.16634   0.50022   0.66344   0.00000  Uiso   1.00
C561   C     0.11571   0.48451   0.59575   0.00000  Uiso   1.00
C562   C     0.21762   0.51549   0.90425   0.00000  Uiso   1.00
C563   C     0.16591   0.50095   0.61563   0.00000  Uiso   1.00
C564   C     0.16742   0.49905   0.88437   0.00000  Uiso   1.00
C565   C     0.21616   0.51751   0.58995   0.00000  Uiso   1.00
C566   C     0.11718   0.48249   0.91005   0.00000  Uiso   1.00
C567   C     0.21673   0.51754   0.54372   0.00000  Uiso   1.00
C568   C     0.11660   0.48246   0.95628   0.00000  Uiso   1.00
C569   C     0.16639   0.50031   0.52328   0.00000  Uiso   1.00
C570   C     0.16694   0.49969   0.97672   0.00000  Uiso   1.00
C571   C     0.11556   0.48366   0.54942   0.00000  Uiso   1.00
C572   C     0.21777   0.51634   0.95058   0.00000  Uiso   1.00
C573   C     0.26679   0.53439   0.51773   0.00000  Uiso   1.00
C574   C     0.06655   0.46561   0.98227   0.00000  Uiso   1.00
H575   H     0.30538   0.54792   0.53341   0.00000  Uiso   1.00
H576   H     0.02795   0.45208   0.96659   0.00000  Uiso   1.00
H577   H     0.23393   0.33639   0.74465   0.00000  Uiso   1.00
H578   H     0.09940   0.66361   0.75535   0.00000  Uiso   1.00
N579   N     0.31678   0.48598   0.73783   0.00000  Uiso   1.00
N580   N     0.01656   0.51402   0.76217   0.00000  Uiso   1.00
O581   O     0.12975   0.57952   0.75298   0.00000  Uiso   1.00
O582   O     0.20358   0.42048   0.74701   0.00000  Uiso   1.00
O583   O     0.22613   0.57054   0.74518   0.00000  Uiso   1.00
O584   O     0.10720   0.42946   0.75481   0.00000  Uiso   1.00
O585   O     0.11847   0.50450   0.81997   0.00000  Uiso   1.00
O586   O     0.21486   0.49550   0.68002   0.00000  Uiso   1.00
O587   O     0.21485   0.49552   0.81217   0.00000  Uiso   1.00
O588   O     0.11848   0.50448   0.68782   0.00000  Uiso   1.00
Zn589  Zn    0.10231   0.50600   0.75521   0.00000  Uiso   1.00
Zn590  Zn    0.23102   0.49400   0.74479   0.00000  Uiso   1.00
H591   H     0.07732   0.47150   0.61640   0.00000  Uiso   1.00
H592   H     0.25602   0.52850   0.88360   0.00000  Uiso   1.00
H593   H     0.25466   0.53065   0.60600   0.00000  Uiso   1.00
H594   H     0.07867   0.46935   0.89400   0.00000  Uiso   1.00
F595   F     0.31638   0.55040   0.94656   0.00000  Uiso   1.00
F596   F     0.01695   0.44960   0.55344   0.00000  Uiso   1.00
F597   F     0.01012   0.45230   0.70972   0.00000  Uiso   1.00
F598   F     0.32322   0.54770   0.79028   0.00000  Uiso   1.00
C599   C     0.51525   0.59823   0.74885   0.00000  Uiso   1.00
C600   C     0.48475   0.40177   0.75115   0.00000  Uiso   1.00
C601   C     0.60077   0.53381   0.97124   0.00000  Uiso   1.00
C602   C     0.39923   0.46619   0.52876   0.00000  Uiso   1.00
C603   C     0.52328   0.65273   0.74816   0.00000  Uiso   1.00
C604   C     0.47672   0.34727   0.75184   0.00000  Uiso   1.00
C605   C     0.50032   0.49978   0.83656   0.00000  Uiso   1.00
C606   C     0.49968   0.50022   0.66344   0.00000  Uiso   1.00
C607   C     0.44905   0.48451   0.59575   0.00000  Uiso   1.00
C608   C     0.55095   0.51549   0.90425   0.00000  Uiso   1.00
C609   C     0.49925   0.50095   0.61563   0.00000  Uiso   1.00
C610   C     0.50075   0.49905   0.88437   0.00000  Uiso   1.00
C611   C     0.54949   0.51751   0.58995   0.00000  Uiso   1.00
C612   C     0.45051   0.48249   0.91005   0.00000  Uiso   1.00
C613   C     0.55007   0.51754   0.54372   0.00000  Uiso   1.00
C614   C     0.44993   0.48246   0.95628   0.00000  Uiso   1.00
C615   C     0.49973   0.50031   0.52328   0.00000  Uiso   1.00
C616   C     0.50027   0.49969   0.97672   0.00000  Uiso   1.00
C617   C     0.44889   0.48366   0.54942   0.00000  Uiso   1.00
C618   C     0.55110   0.51634   0.95058   0.00000  Uiso   1.00
C619   C     0.60012   0.53439   0.51773   0.00000  Uiso   1.00
C620   C     0.39988   0.46561   0.98227   0.00000  Uiso   1.00
H621   H     0.63871   0.54792   0.53341   0.00000  Uiso   1.00
H622   H     0.36129   0.45208   0.96659   0.00000  Uiso   1.00
H623   H     0.56726   0.33639   0.74465   0.00000  Uiso   1.00
H624   H     0.43274   0.66361   0.75535   0.00000  Uiso   1.00
N625   N     0.65011   0.48598   0.73783   0.00000  Uiso   1.00
N626   N     0.34989   0.51402   0.76217   0.00000  Uiso   1.00
O627   O     0.46308   0.57952   0.75298   0.00000  Uiso   1.00
O628   O     0.53692   0.42048   0.74701   0.00000  Uiso   1.00
O629   O     0.55946   0.57054   0.74518   0.00000  Uiso   1.00
O630   O     0.44054   0.42946   0.75481   0.00000  Uiso   1.00
O631   O     0.45181   0.50450   0.81997   0.00000  Uiso   1.00
O632   O     0.54819   0.49550   0.68002   0.00000  Uiso   1.00
O633   O     0.54819   0.49552   0.81217   0.00000  Uiso   1.00
O634   O     0.45181   0.50448   0.68782   0.00000  Uiso   1.00
Zn635  Zn    0.43565   0.50600   0.75521   0.00000  Uiso   1.00
Zn636  Zn    0.56435   0.49400   0.74479   0.00000  Uiso   1.00
H637   H     0.41065   0.47150   0.61640   0.00000  Uiso   1.00
H638   H     0.58935   0.52850   0.88360   0.00000  Uiso   1.00
H639   H     0.58800   0.53065   0.60600   0.00000  Uiso   1.00
H640   H     0.41200   0.46935   0.89400   0.00000  Uiso   1.00
F641   F     0.64971   0.55040   0.94656   0.00000  Uiso   1.00
F642   F     0.35029   0.44960   0.55344   0.00000  Uiso   1.00
F643   F     0.34345   0.45230   0.70972   0.00000  Uiso   1.00
F644   F     0.65655   0.54770   0.79028   0.00000  Uiso   1.00
C645   C     0.84858   0.59823   0.74885   0.00000  Uiso   1.00
C646   C     0.81809   0.40177   0.75115   0.00000  Uiso   1.00
C647   C     0.93410   0.53381   0.97124   0.00000  Uiso   1.00
C648   C     0.73257   0.46619   0.52876   0.00000  Uiso   1.00
C649   C     0.85661   0.65273   0.74816   0.00000  Uiso   1.00
C650   C     0.81005   0.34727   0.75184   0.00000  Uiso   1.00
C651   C     0.83365   0.49978   0.83656   0.00000  Uiso   1.00
C652   C     0.83301   0.50022   0.66344   0.00000  Uiso   1.00
C653   C     0.78238   0.48451   0.59575   0.00000  Uiso   1.00
C654   C     0.88428   0.51549   0.90425   0.00000  Uiso   1.00
C655   C     0.83258   0.50095   0.61563   0.00000  Uiso   1.00
C656   C     0.83409   0.49905   0.88437   0.00000  Uiso   1.00
C657   C     0.88282   0.51751   0.58995   0.00000  Uiso   1.00
C658   C     0.78384   0.48249   0.91005   0.00000  Uiso   1.00
C659   C     0.88340   0.51754   0.54372   0.00000  Uiso   1.00
C660   C     0.78327   0.48246   0.95628   0.00000  Uiso   1.00
C661   C     0.83306   0.50031   0.52328   0.00000  Uiso   1.00
C662   C     0.83361   0.49969   0.97672   0.00000  Uiso   1.00
C663   C     0.78223   0.48366   0.54942   0.00000  Uiso   1.00
C664   C     0.88444   0.51634   0.95058   0.00000  Uiso   1.00
C665   C     0.93345   0.53439   0.51773   0.00000  Uiso   1.00
C666   C     0.73321   0.46561   0.98227   0.00000  Uiso   1.00
H667   H     0.97205   0.54792   0.53341   0.00000  Uiso   1.00
H668   H     0.69462   0.45208   0.96659   0.00000  Uiso   1.00
H669   H     0.90060   0.33639   0.74465   0.00000  Uiso   1.00
H670   H     0.76607   0.66361   0.75535   0.00000  Uiso   1.00
N671   N     0.98344   0.48598   0.73783   0.00000  Uiso   1.00
N672   N     0.68322   0.51402   0.76217   0.00000  Uiso   1.00
O673   O     0.79642   0.57952   0.75298   0.00000  Uiso   1.00
O674   O     0.87025   0.42048   0.74701   0.00000  Uiso   1.00
O675   O     0.89280   0.57054   0.74518   0.00000  Uiso   1.00
O676   O     0.77387   0.42946   0.75481   0.00000  Uiso   1.00
O677   O     0.78514   0.50450   0.81997   0.00000  Uiso   1.00
O678   O     0.88153   0.49550   0.68002   0.00000  Uiso   1.00
O679   O     0.88152   0.49552   0.81217   0.00000  Uiso   1.00
O680   O     0.78515   0.50448   0.68782   0.00000  Uiso   1.00
Zn681  Zn    0.76898   0.50600   0.75521   0.00000  Uiso   1.00
Zn682  Zn    0.89769   0.49400   0.74479   0.00000  Uiso   1.00
H683   H     0.74398   0.47150   0.61640   0.00000  Uiso   1.00
H684   H     0.92268   0.52850   0.88360   0.00000  Uiso   1.00
H685   H     0.92133   0.53065   0.60600   0.00000  Uiso   1.00
H686   H     0.74534   0.46935   0.89400   0.00000  Uiso   1.00
F687   F     0.98305   0.55040   0.94656   0.00000  Uiso   1.00
F688   F     0.68362   0.44960   0.55344   0.00000  Uiso   1.00
F689   F     0.67678   0.45230   0.70972   0.00000  Uiso   1.00
F690   F     0.98988   0.54770   0.79028   0.00000  Uiso   1.00
C691   C     0.18191   0.93156   0.74885   0.00000  Uiso   1.00
C692   C     0.15142   0.73510   0.75115   0.00000  Uiso   1.00
C693   C     0.26743   0.86714   0.97124   0.00000  Uiso   1.00
C694   C     0.06590   0.79952   0.52876   0.00000  Uiso   1.00
C695   C     0.18995   0.98606   0.74816   0.00000  Uiso   1.00
C696   C     0.14339   0.68060   0.75184   0.00000  Uiso   1.00
C697   C     0.16699   0.83311   0.83656   0.00000  Uiso   1.00
C698   C     0.16634   0.83355   0.66344   0.00000  Uiso   1.00
C699   C     0.11571   0.81784   0.59575   0.00000  Uiso   1.00
C700   C     0.21762   0.84883   0.90425   0.00000  Uiso   1.00
C701   C     0.16591   0.83429   0.61563   0.00000  Uiso   1.00
C702   C     0.16742   0.83238   0.88437   0.00000  Uiso   1.00
C703   C     0.21616   0.85084   0.58995   0.00000  Uiso   1.00
C704   C     0.11718   0.81582   0.91005   0.00000  Uiso   1.00
C705   C     0.21673   0.85087   0.54372   0.00000  Uiso   1.00
C706   C     0.11660   0.81579   0.95628   0.00000  Uiso   1.00
C707   C     0.16639   0.83365   0.52328   0.00000  Uiso   1.00
C708   C     0.16694   0.83302   0.97672   0.00000  Uiso   1.00
C709   C     0.11556   0.81699   0.54942   0.00000  Uiso   1.00
C710   C     0.21777   0.84967   0.95058   0.00000  Uiso   1.00
C711   C     0.26679   0.86772   0.51773   0.00000  Uiso   1.00
C712   C     0.06655   0.79895   0.98227   0.00000  Uiso   1.00
H713   H     0.30538   0.88125   0.53341   0.00000  Uiso   1.00
H714   H     0.02795   0.78542   0.96659   0.00000  Uiso   1.00
H715   H     0.23393   0.66973   0.74465   0.00000  Uiso   1.00
H716   H     0.09940   0.99694   0.75535   0.00000  Uiso   1.00
N717   N     0.31678   0.81932   0.73783   0.00000  Uiso   1.00
N718   N     0.01656   0.84735   0.76217   0.00000  Uiso   1.00
O719   O     0.12975   0.91286   0.75298   0.00000  Uiso   1.00
O720   O     0.20358   0.75381   0.74701   0.00000  Uiso   1.00
O721   O     0.22613   0.90387   0.74518   0.00000  Uiso   1.00
O722   O     0.10720   0.76279   0.75481   0.00000  Uiso   1.00
O723   O     0.11847   0.83784   0.81997   0.00000  Uiso   1.00
O724   O     0.21486   0.82883   0.68002   0.00000  Uiso   1.00
O725   O     0.21485   0.82885   0.81217   0.00000  Uiso   1.00
O726   O     0.11848   0.83781   0.68782   0.00000  Uiso   1.00
Zn727  Zn    0.10231   0.83933   0.75521   0.00000  Uiso   1.00
Zn728  Zn    0.23102   0.82734   0.74479   0.00000  Uiso   1.00
H729   H     0.07732   0.80484   0.61640   0.00000  Uiso   1.00
H730   H     0.25602   0.86183   0.88360   0.00000  Uiso   1.00
H731   H     0.25466   0.86398   0.60600   0.00000  Uiso   1.00
H732   H     0.07867   0.80268   0.89400   0.00000  Uiso   1.00
F733   F     0.31638   0.88374   0.94656   0.00000  Uiso   1.00
F734   F     0.01695   0.78293   0.55344   0.00000  Uiso   1.00
F735   F     0.01012   0.78564   0.70972   0.00000  Uiso   1.00
F736   F     0.32322   0.88103   0.79028   0.00000  Uiso   1.00
C737   C     0.51525   0.93156   0.74885   0.00000  Uiso   1.00
C738   C     0.48475   0.73510   0.75115   0.00000  Uiso   1.00
C739   C     0.60077   0.86714   0.97124   0.00000  Uiso   1.00
C740   C     0.39923   0.79952   0.52876   0.00000  Uiso   1.00
C741   C     0.52328   0.98606   0.74816   0.00000  Uiso   1.00
C742   C     0.47672   0.68060   0.75184   0.00000  Uiso   1.00
C743   C     0.50032   0.83311   0.83656   0.00000  Uiso   1.00
C744   C     0.49968   0.83355   0.66344   0.00000  Uiso   1.00
C745   C     0.44905   0.81784   0.59575   0.00000  Uiso   1.00
C746   C     0.55095   0.84883   0.90425   0.00000  Uiso   1.00
C747   C     0.49925   0.83429   0.61563   0.00000  Uiso   1.00
C748   C     0.50075   0.83238   0.88437   0.00000  Uiso   1.00
C749   C     0.54949   0.85084   0.58995   0.00000  Uiso   1.00
C750   C     0.45051   0.81582   0.91005   0.00000  Uiso   1.00
C751   C     0.55007   0.85087   0.54372   0.00000  Uiso   1.00
C752   C     0.44993   0.81579   0.95628   0.00000  Uiso   1.00
C753   C     0.49973   0.83365   0.52328   0.00000  Uiso   1.00
C754   C     0.50027   0.83302   0.97672   0.00000  Uiso   1.00
C755   C     0.44889   0.81699   0.54942   0.00000  Uiso   1.00
C756   C     0.55110   0.84967   0.95058   0.00000  Uiso   1.00
C757   C     0.60012   0.86772   0.51773   0.00000  Uiso   1.00
C758   C     0.39988   0.79895   0.98227   0.00000  Uiso   1.00
H759   H     0.63871   0.88125   0.53341   0.00000  Uiso   1.00
H760   H     0.36129   0.78542   0.96659   0.00000  Uiso   1.00
H761   H     0.56726   0.66973   0.74465   0.00000  Uiso   1.00
H762   H     0.43274   0.99694   0.75535   0.00000  Uiso   1.00
N763   N     0.65011   0.81932   0.73783   0.00000  Uiso   1.00
N764   N     0.34989   0.84735   0.76217   0.00000  Uiso   1.00
O765   O     0.46308   0.91286   0.75298   0.00000  Uiso   1.00
O766   O     0.53692   0.75381   0.74701   0.00000  Uiso   1.00
O767   O     0.55946   0.90387   0.74518   0.00000  Uiso   1.00
O768   O     0.44054   0.76279   0.75481   0.00000  Uiso   1.00
O769   O     0.45181   0.83784   0.81997   0.00000  Uiso   1.00
O770   O     0.54819   0.82883   0.68002   0.00000  Uiso   1.00
O771   O     0.54819   0.82885   0.81217   0.00000  Uiso   1.00
O772   O     0.45181   0.83781   0.68782   0.00000  Uiso   1.00
Zn773  Zn    0.43565   0.83933   0.75521   0.00000  Uiso   1.00
Zn774  Zn    0.56435   0.82734   0.74479   0.00000  Uiso   1.00
H775   H     0.41065   0.80484   0.61640   0.00000  Uiso   1.00
H776   H     0.58935   0.86183   0.88360   0.00000  Uiso   1.00
H777   H     0.58800   0.86398   0.60600   0.00000  Uiso   1.00
H778   H     0.41200   0.80268   0.89400   0.00000  Uiso   1.00
F779   F     0.64971   0.88374   0.94656   0.00000  Uiso   1.00
F780   F     0.35029   0.78293   0.55344   0.00000  Uiso   1.00
F781   F     0.34345   0.78564   0.70972   0.00000  Uiso   1.00
F782   F     0.65655   0.88103   0.79028   0.00000  Uiso   1.00
C783   C     0.84858   0.93156   0.74885   0.00000  Uiso   1.00
C784   C     0.81809   0.73510   0.75115   0.00000  Uiso   1.00
C785   C     0.93410   0.86714   0.97124   0.00000  Uiso   1.00
C786   C     0.73257   0.79952   0.52876   0.00000  Uiso   1.00
C787   C     0.85661   0.98606   0.74816   0.00000  Uiso   1.00
C788   C     0.81005   0.68060   0.75184   0.00000  Uiso   1.00
C789   C     0.83365   0.83311   0.83656   0.00000  Uiso   1.00
C790   C     0.83301   0.83355   0.66344   0.00000  Uiso   1.00
C791   C     0.78238   0.81784   0.59575   0.00000  Uiso   1.00
C792   C     0.88428   0.84883   0.90425   0.00000  Uiso   1.00
C793   C     0.83258   0.83429   0.61563   0.00000  Uiso   1.00
C794   C     0.83409   0.83238   0.88437   0.00000  Uiso   1.00
C795   C     0.88282   0.85084   0.58995   0.00000  Uiso   1.00
C796   C     0.78384   0.81582   0.91005   0.00000  Uiso   1.00
C797   C     0.88340   0.85087   0.54372   0.00000  Uiso   1.00
C798   C     0.78327   0.81579   0.95628   0.00000  Uiso   1.00
C799   C     0.83306   0.83365   0.52328   0.00000  Uiso   1.00
C800   C     0.83361   0.83302   0.97672   0.00000  Uiso   1.00
C801   C     0.78223   0.81699   0.54942   0.00000  Uiso   1.00
C802   C     0.88444   0.84967   0.95058   0.00000  Uiso   1.00
C803   C     0.93345   0.86772   0.51773   0.00000  Uiso   1.00
C804   C     0.73321   0.79895   0.98227   0.00000  Uiso   1.00
H805   H     0.97205   0.88125   0.53341   0.00000  Uiso   1.00
H806   H     0.69462   0.78542   0.96659   0.00000  Uiso   1.00
H807   H     0.90060   0.66973   0.74465   0.00000  Uiso   1.00
H808   H     0.76607   0.99694   0.75535   0.00000  Uiso   1.00
N809   N     0.98344   0.81932   0.73783   0.00000  Uiso   1.00
N810   N     0.68322   0.84735   0.76217   0.00000  Uiso   1.00
O811   O     0.79642   0.91286   0.75298   0.00000  Uiso   1.00
O812   O     0.87025   0.75381   0.74701   0.00000  Uiso   1.00
O813   O     0.89280   0.90387   0.74518   0.00000  Uiso   1.00
O814   O     0.77387   0.76279   0.75481   0.00000  Uiso   1.00
O815   O     0.78514   0.83784   0.81997   0.00000  Uiso   1.00
O816   O     0.88153   0.82883   0.68002   0.00000  Uiso   1.00
O817   O     0.88152   0.82885   0.81217   0.00000  Uiso   1.00
O818   O     0.78515   0.83781   0.68782   0.00000  Uiso   1.00
Zn819  Zn    0.76898   0.83933   0.75521   0.00000  Uiso   1.00
Zn820  Zn    0.89769   0.82734   0.74479   0.00000  Uiso   1.00
H821   H     0.74398   0.80484   0.61640   0.00000  Uiso   1.00
H822   H     0.92268   0.86183   0.88360   0.00000  Uiso   1.00
H823   H     0.92133   0.86398   0.60600   0.00000  Uiso   1.00
H824   H     0.74534   0.80268   0.89400   0.00000  Uiso   1.00
F825   F     0.98305   0.88374   0.94656   0.00000  Uiso   1.00
F826   F     0.68362   0.78293   0.55344   0.00000  Uiso   1.00
F827   F     0.67678   0.78564   0.70972   0.00000  Uiso   1.00
F828   F     0.98988   0.88103   0.79028   0.00000  Uiso   1.00
loop_
_geom_bond_atom_site_label_1
_geom_bond_atom_site_label_2
_geom_bond_distance
_geom_bond_site_symmetry_2
_ccdc_geom_bond_type
C1     C5      1.401   .     S
C1     O31     1.287   .     A
C1     O29     1.278   .     A
C2     O30     1.278   .     A
C2     O32     1.287   .     A
C2     C6      1.401   .     S
C3     F43     1.358   .     S
C3     C20     1.402   .     A
C3     C435    1.389   .     S
C4     F44     1.358   .     S
C4     C19     1.402   .     A
C4     C436    1.389   1_554 S
C5     C144    1.335   .     S
C5     H163    1.088   .     S
C6     C281    1.335   1_545 S
C6     H302    1.088   1_545 S
C7     C12     1.431   .     S
C7     O33     1.289   .     A
C7     O35     1.291   .     A
C8     O34     1.289   .     A
C8     C11     1.431   .     S
C8     O36     1.291   .     A
C9     C11     1.395   .     A
C9     C19     1.385   .     A
C9     H39     1.085   .     S
C10    C12     1.395   .     A
C10    H40     1.085   .     S
C10    C20     1.385   .     A
C11    C13     1.396   .     A
C12    C14     1.396   .     A
C13    H41     1.085   .     S
C13    C15     1.381   .     A
C14    H42     1.085   .     S
C14    C16     1.381   .     A
C15    C21     1.399   .     A
C15    C17     1.411   .     A
C16    C18     1.411   .     A
C16    C22     1.399   .     A
C17    C19     1.414   .     A
C17    C432    1.391   1_554 S
C18    C20     1.414   .     A
C18    C431    1.391   .     S
C21    H23     1.084   .     S
C21    C417    1.389   1_554 S
C22    H24     1.084   .     S
C22    C418    1.389   .     S
H25    C281    1.088   1_545 S
H26    C144    1.088   .     S
N27    Zn38    2.019   .     S
N27    N74     1.281   .     S
N27    F91     1.335   .     S
N28    Zn37    2.019   .     S
N28    N119    1.281   1_455 S
N28    F138    1.335   1_455 S
O29    Zn37    1.957   .     S
O30    Zn38    1.957   .     S
O31    Zn38    1.977   .     S
O32    Zn37    1.977   .     S
O33    Zn37    2.006   .     S
O34    Zn38    2.006   .     S
O35    Zn38    2.018   .     S
O36    Zn37    2.018   .     S
F45    N119    1.335   1_455 S
F46    N74     1.335   .     S
C47    C51     1.401   .     S
C47    O77     1.287   .     A
C47    O75     1.278   .     A
C48    O76     1.278   .     A
C48    O78     1.287   .     A
C48    C52     1.401   .     S
C49    F89     1.358   .     S
C49    C66     1.402   .     A
C49    C481    1.389   .     S
C50    F90     1.358   .     S
C50    C65     1.402   .     A
C50    C482    1.389   1_554 S
C51    C190    1.335   .     S
C51    H209    1.088   .     S
C52    C327    1.335   1_545 S
C52    H348    1.088   1_545 S
C53    C58     1.431   .     S
C53    O79     1.289   .     A
C53    O81     1.291   .     A
C54    O80     1.289   .     A
C54    C57     1.431   .     S
C54    O82     1.291   .     A
C55    C57     1.395   .     A
C55    C65     1.385   .     A
C55    H85     1.085   .     S
C56    C58     1.395   .     A
C56    H86     1.085   .     S
C56    C66     1.385   .     A
C57    C59     1.396   .     A
C58    C60     1.396   .     A
C59    H87     1.085   .     S
C59    C61     1.381   .     A
C60    H88     1.085   .     S
C60    C62     1.381   .     A
C61    C67     1.399   .     A
C61    C63     1.411   .     A
C62    C64     1.411   .     A
C62    C68     1.399   .     A
C63    C65     1.414   .     A
C63    C478    1.391   1_554 S
C64    C66     1.414   .     A
C64    C477    1.391   .     S
C67    H69     1.084   .     S
C67    C463    1.389   1_554 S
C68    H70     1.084   .     S
C68    C464    1.389   .     S
H71    C327    1.088   1_545 S
H72    C190    1.088   .     S
N73    Zn84    2.019   .     S
N73    N120    1.281   .     S
N73    F137    1.335   .     S
N74    Zn83    2.019   .     S
O75    Zn83    1.957   .     S
O76    Zn84    1.957   .     S
O77    Zn84    1.977   .     S
O78    Zn83    1.977   .     S
O79    Zn83    2.006   .     S
O80    Zn84    2.006   .     S
O81    Zn84    2.018   .     S
O82    Zn83    2.018   .     S
F92    N120    1.335   .     S
C93    C97     1.401   .     S
C93    O123    1.287   .     A
C93    O121    1.278   .     A
C94    O122    1.278   .     A
C94    O124    1.287   .     A
C94    C98     1.401   .     S
C95    F135    1.358   .     S
C95    C112    1.402   .     A
C95    C527    1.389   .     S
C96    F136    1.358   .     S
C96    C111    1.402   .     A
C96    C528    1.389   1_554 S
C97    C236    1.335   .     S
C97    H255    1.088   .     S
C98    C373    1.335   1_545 S
C98    H394    1.088   1_545 S
C99    C104    1.431   .     S
C99    O125    1.289   .     A
C99    O127    1.291   .     A
C100   O126    1.289   .     A
C100   C103    1.431   .     S
C100   O128    1.291   .     A
C101   C103    1.395   .     A
C101   C111    1.385   .     A
C101   H131    1.085   .     S
C102   C104    1.395   .     A
C102   H132    1.085   .     S
C102   C112    1.385   .     A
C103   C105    1.396   .     A
C104   C106    1.396   .     A
C105   H133    1.085   .     S
C105   C107    1.381   .     A
C106   H134    1.085   .     S
C106   C108    1.381   .     A
C107   C113    1.399   .     A
C107   C109    1.411   .     A
C108   C110    1.411   .     A
C108   C114    1.399   .     A
C109   C111    1.414   .     A
C109   C524    1.391   1_554 S
C110   C112    1.414   .     A
C110   C523    1.391   .     S
C113   H115    1.084   .     S
C113   C509    1.389   1_554 S
C114   H116    1.084   .     S
C114   C510    1.389   .     S
H117   C373    1.088   1_545 S
H118   C236    1.088   .     S
N119   Zn130   2.019   .     S
N119   N28     1.281   1_655 S
N119   F45     1.335   1_655 S
N120   Zn129   2.019   .     S
O121   Zn129   1.957   .     S
O122   Zn130   1.957   .     S
O123   Zn130   1.977   .     S
O124   Zn129   1.977   .     S
O125   Zn129   2.006   .     S
O126   Zn130   2.006   .     S
O127   Zn130   2.018   .     S
O128   Zn129   2.018   .     S
F138   N28     1.335   1_655 S
C139   C143    1.401   .     S
C139   O169    1.287   .     A
C139   O167    1.278   .     A
C140   O168    1.278   .     A
C140   O170    1.287   .     A
C140   C144    1.401   .     S
C141   F181    1.358   .     S
C141   C158    1.402   .     A
C141   C573    1.389   .     S
C142   F182    1.358   .     S
C142   C157    1.402   .     A
C142   C574    1.389   1_554 S
C143   C282    1.335   .     S
C143   H301    1.088   .     S
C145   C150    1.431   .     S
C145   O171    1.289   .     A
C145   O173    1.291   .     A
C146   O172    1.289   .     A
C146   C149    1.431   .     S
C146   O174    1.291   .     A
C147   C149    1.395   .     A
C147   C157    1.385   .     A
C147   H177    1.085   .     S
C148   C150    1.395   .     A
C148   H178    1.085   .     S
C148   C158    1.385   .     A
C149   C151    1.396   .     A
C150   C152    1.396   .     A
C151   H179    1.085   .     S
C151   C153    1.381   .     A
C152   H180    1.085   .     S
C152   C154    1.381   .     A
C153   C159    1.399   .     A
C153   C155    1.411   .     A
C154   C156    1.411   .     A
C154   C160    1.399   .     A
C155   C157    1.414   .     A
C155   C570    1.391   1_554 S
C156   C158    1.414   .     A
C156   C569    1.391   .     S
C159   H161    1.084   .     S
C159   C555    1.389   1_554 S
C160   H162    1.084   .     S
C160   C556    1.389   .     S
H164   C282    1.088   .     S
N165   Zn176   2.019   .     S
N165   N212    1.281   .     S
N165   F229    1.335   .     S
N166   Zn175   2.019   .     S
N166   N257    1.281   1_455 S
N166   F276    1.335   1_455 S
O167   Zn175   1.957   .     S
O168   Zn176   1.957   .     S
O169   Zn176   1.977   .     S
O170   Zn175   1.977   .     S
O171   Zn175   2.006   .     S
O172   Zn176   2.006   .     S
O173   Zn176   2.018   .     S
O174   Zn175   2.018   .     S
F183   N257    1.335   1_455 S
F184   N212    1.335   .     S
C185   C189    1.401   .     S
C185   O215    1.287   .     A
C185   O213    1.278   .     A
C186   O214    1.278   .     A
C186   O216    1.287   .     A
C186   C190    1.401   .     S
C187   F227    1.358   .     S
C187   C204    1.402   .     A
C187   C619    1.389   .     S
C188   F228    1.358   .     S
C188   C203    1.402   .     A
C188   C620    1.389   1_554 S
C189   C328    1.335   .     S
C189   H347    1.088   .     S
C191   C196    1.431   .     S
C191   O217    1.289   .     A
C191   O219    1.291   .     A
C192   O218    1.289   .     A
C192   C195    1.431   .     S
C192   O220    1.291   .     A
C193   C195    1.395   .     A
C193   C203    1.385   .     A
C193   H223    1.085   .     S
C194   C196    1.395   .     A
C194   H224    1.085   .     S
C194   C204    1.385   .     A
C195   C197    1.396   .     A
C196   C198    1.396   .     A
C197   H225    1.085   .     S
C197   C199    1.381   .     A
C198   H226    1.085   .     S
C198   C200    1.381   .     A
C199   C205    1.399   .     A
C199   C201    1.411   .     A
C200   C202    1.411   .     A
C200   C206    1.399   .     A
C201   C203    1.414   .     A
C201   C616    1.391   1_554 S
C202   C204    1.414   .     A
C202   C615    1.391   .     S
C205   H207    1.084   .     S
C205   C601    1.389   1_554 S
C206   H208    1.084   .     S
C206   C602    1.389   .     S
H210   C328    1.088   .     S
N211   Zn222   2.019   .     S
N211   N258    1.281   .     S
N211   F275    1.335   .     S
N212   Zn221   2.019   .     S
O213   Zn221   1.957   .     S
O214   Zn222   1.957   .     S
O215   Zn222   1.977   .     S
O216   Zn221   1.977   .     S
O217   Zn221   2.006   .     S
O218   Zn222   2.006   .     S
O219   Zn222   2.018   .     S
O220   Zn221   2.018   .     S
F230   N258    1.335   .     S
C231   C235    1.401   .     S
C231   O261    1.287   .     A
C231   O259    1.278   .     A
C232   O260    1.278   .     A
C232   O262    1.287   .     A
C232   C236    1.401   .     S
C233   F273    1.358   .     S
C233   C250    1.402   .     A
C233   C665    1.389   .     S
C234   F274    1.358   .     S
C234   C249    1.402   .     A
C234   C666    1.389   1_554 S
C235   C374    1.335   .     S
C235   H393    1.088   .     S
C237   C242    1.431   .     S
C237   O263    1.289   .     A
C237   O265    1.291   .     A
C238   O264    1.289   .     A
C238   C241    1.431   .     S
C238   O266    1.291   .     A
C239   C241    1.395   .     A
C239   C249    1.385   .     A
C239   H269    1.085   .     S
C240   C242    1.395   .     A
C240   H270    1.085   .     S
C240   C250    1.385   .     A
C241   C243    1.396   .     A
C242   C244    1.396   .     A
C243   H271    1.085   .     S
C243   C245    1.381   .     A
C244   H272    1.085   .     S
C244   C246    1.381   .     A
C245   C251    1.399   .     A
C245   C247    1.411   .     A
C246   C248    1.411   .     A
C246   C252    1.399   .     A
C247   C249    1.414   .     A
C247   C662    1.391   1_554 S
C248   C250    1.414   .     A
C248   C661    1.391   .     S
C251   H253    1.084   .     S
C251   C647    1.389   1_554 S
C252   H254    1.084   .     S
C252   C648    1.389   .     S
H256   C374    1.088   .     S
N257   Zn268   2.019   .     S
N257   N166    1.281   1_655 S
N257   F183    1.335   1_655 S
N258   Zn267   2.019   .     S
O259   Zn267   1.957   .     S
O260   Zn268   1.957   .     S
O261   Zn268   1.977   .     S
O262   Zn267   1.977   .     S
O263   Zn267   2.006   .     S
O264   Zn268   2.006   .     S
O265   Zn268   2.018   .     S
O266   Zn267   2.018   .     S
F276   N166    1.335   1_655 S
C277   C281    1.401   .     S
C277   O307    1.287   .     A
C277   O305    1.278   .     A
C278   O306    1.278   .     A
C278   O308    1.287   .     A
C278   C282    1.401   .     S
C279   F319    1.358   .     S
C279   C296    1.402   .     A
C279   C711    1.389   .     S
C280   F320    1.358   .     S
C280   C295    1.402   .     A
C280   C712    1.389   1_554 S
C281   C6      1.335   1_565 S
C281   H25     1.088   1_565 S
C283   C288    1.431   .     S
C283   O309    1.289   .     A
C283   O311    1.291   .     A
C284   O310    1.289   .     A
C284   C287    1.431   .     S
C284   O312    1.291   .     A
C285   C287    1.395   .     A
C285   C295    1.385   .     A
C285   H315    1.085   .     S
C286   C288    1.395   .     A
C286   H316    1.085   .     S
C286   C296    1.385   .     A
C287   C289    1.396   .     A
C288   C290    1.396   .     A
C289   H317    1.085   .     S
C289   C291    1.381   .     A
C290   H318    1.085   .     S
C290   C292    1.381   .     A
C291   C297    1.399   .     A
C291   C293    1.411   .     A
C292   C294    1.411   .     A
C292   C298    1.399   .     A
C293   C295    1.414   .     A
C293   C708    1.391   1_554 S
C294   C296    1.414   .     A
C294   C707    1.391   .     S
C297   H299    1.084   .     S
C297   C693    1.389   1_554 S
C298   H300    1.084   .     S
C298   C694    1.389   .     S
H302   C6      1.088   1_565 S
N303   Zn314   2.019   .     S
N303   N350    1.281   .     S
N303   F367    1.335   .     S
N304   Zn313   2.019   .     S
N304   N395    1.281   1_455 S
N304   F414    1.335   1_455 S
O305   Zn313   1.957   .     S
O306   Zn314   1.957   .     S
O307   Zn314   1.977   .     S
O308   Zn313   1.977   .     S
O309   Zn313   2.006   .     S
O310   Zn314   2.006   .     S
O311   Zn314   2.018   .     S
O312   Zn313   2.018   .     S
F321   N395    1.335   1_455 S
F322   N350    1.335   .     S
C323   C327    1.401   .     S
C323   O353    1.287   .     A
C323   O351    1.278   .     A
C324   O352    1.278   .     A
C324   O354    1.287   .     A
C324   C328    1.401   .     S
C325   F365    1.358   .     S
C325   C342    1.402   .     A
C325   C757    1.389   .     S
C326   F366    1.358   .     S
C326   C341    1.402   .     A
C326   C758    1.389   1_554 S
C327   C52     1.335   1_565 S
C327   H71     1.088   1_565 S
C329   C334    1.431   .     S
C329   O355    1.289   .     A
C329   O357    1.291   .     A
C330   O356    1.289   .     A
C330   C333    1.431   .     S
C330   O358    1.291   .     A
C331   C333    1.395   .     A
C331   C341    1.385   .     A
C331   H361    1.085   .     S
C332   C334    1.395   .     A
C332   H362    1.085   .     S
C332   C342    1.385   .     A
C333   C335    1.396   .     A
C334   C336    1.396   .     A
C335   H363    1.085   .     S
C335   C337    1.381   .     A
C336   H364    1.085   .     S
C336   C338    1.381   .     A
C337   C343    1.399   .     A
C337   C339    1.411   .     A
C338   C340    1.411   .     A
C338   C344    1.399   .     A
C339   C341    1.414   .     A
C339   C754    1.391   1_554 S
C340   C342    1.414   .     A
C340   C753    1.391   .     S
C343   H345    1.084   .     S
C343   C739    1.389   1_554 S
C344   H346    1.084   .     S
C344   C740    1.389   .     S
H348   C52     1.088   1_565 S
N349   Zn360   2.019   .     S
N349   N396    1.281   .     S
N349   F413    1.335   .     S
N350   Zn359   2.019   .     S
O351   Zn359   1.957   .     S
O352   Zn360   1.957   .     S
O353   Zn360   1.977   .     S
O354   Zn359   1.977   .     S
O355   Zn359   2.006   .     S
O356   Zn360   2.006   .     S
O357   Zn360   2.018   .     S
O358   Zn359   2.018   .     S
F368   N396    1.335   .     S
C369   C373    1.401   .     S
C369   O399    1.287   .     A
C369   O397    1.278   .     A
C370   O398    1.278   .     A
C370   O400    1.287   .     A
C370   C374    1.401   .     S
C371   F411    1.358   .     S
C371   C388    1.402   .     A
C371   C803    1.389   .     S
C372   F412    1.358   .     S
C372   C387    1.402   .     A
C372   C804    1.389   1_554 S
C373   C98     1.335   1_565 S
C373   H117    1.088   1_565 S
C375   C380    1.431   .     S
C375   O401    1.289   .     A
C375   O403    1.291   .     A
C376   O402    1.289   .     A
C376   C379    1.431   .     S
C376   O404    1.291   .     A
C377   C379    1.395   .     A
C377   C387    1.385   .     A
C377   H407    1.085   .     S
C378   C380    1.395   .     A
C378   H408    1.085   .     S
C378   C388    1.385   .     A
C379   C381    1.396   .     A
C380   C382    1.396   .     A
C381   H409    1.085   .     S
C381   C383    1.381   .     A
C382   H410    1.085   .     S
C382   C384    1.381   .     A
C383   C389    1.399   .     A
C383   C385    1.411   .     A
C384   C386    1.411   .     A
C384   C390    1.399   .     A
C385   C387    1.414   .     A
C385   C800    1.391   1_554 S
C386   C388    1.414   .     A
C386   C799    1.391   .     S
C389   H391    1.084   .     S
C389   C785    1.389   1_554 S
C390   H392    1.084   .     S
C390   C786    1.389   .     S
H394   C98     1.088   1_565 S
N395   Zn406   2.019   .     S
N395   N304    1.281   1_655 S
N395   F321    1.335   1_655 S
N396   Zn405   2.019   .     S
O397   Zn405   1.957   .     S
O398   Zn406   1.957   .     S
O399   Zn406   1.977   .     S
O400   Zn405   1.977   .     S
O401   Zn405   2.006   .     S
O402   Zn406   2.006   .     S
O403   Zn406   2.018   .     S
O404   Zn405   2.018   .     S
F414   N304    1.335   1_655 S
C415   C419    1.401   .     S
C415   O445    1.287   .     A
C415   O443    1.278   .     A
C416   O444    1.278   .     A
C416   O446    1.287   .     A
C416   C420    1.401   .     S
C417   F457    1.358   .     S
C417   C434    1.402   .     A
C417   C21     1.389   1_556 S
C418   F458    1.358   .     S
C418   C433    1.402   .     A
C419   C558    1.335   .     S
C419   H577    1.088   .     S
C420   C695    1.335   1_545 S
C420   H716    1.088   1_545 S
C421   C426    1.431   .     S
C421   O447    1.289   .     A
C421   O449    1.291   .     A
C422   O448    1.289   .     A
C422   C425    1.431   .     S
C422   O450    1.291   .     A
C423   C425    1.395   .     A
C423   C433    1.385   .     A
C423   H453    1.085   .     S
C424   C426    1.395   .     A
C424   H454    1.085   .     S
C424   C434    1.385   .     A
C425   C427    1.396   .     A
C426   C428    1.396   .     A
C427   H455    1.085   .     S
C427   C429    1.381   .     A
C428   H456    1.085   .     S
C428   C430    1.381   .     A
C429   C435    1.399   .     A
C429   C431    1.411   .     A
C430   C432    1.411   .     A
C430   C436    1.399   .     A
C431   C433    1.414   .     A
C432   C434    1.414   .     A
C432   C17     1.391   1_556 S
C435   H437    1.084   .     S
C436   H438    1.084   .     S
C436   C4      1.389   1_556 S
H439   C695    1.088   1_545 S
H440   C558    1.088   .     S
N441   Zn452   2.019   .     S
N441   N488    1.281   .     S
N441   F505    1.335   .     S
N442   Zn451   2.019   .     S
N442   N533    1.281   1_455 S
N442   F552    1.335   1_455 S
O443   Zn451   1.957   .     S
O444   Zn452   1.957   .     S
O445   Zn452   1.977   .     S
O446   Zn451   1.977   .     S
O447   Zn451   2.006   .     S
O448   Zn452   2.006   .     S
O449   Zn452   2.018   .     S
O450   Zn451   2.018   .     S
F459   N533    1.335   1_455 S
F460   N488    1.335   .     S
C461   C465    1.401   .     S
C461   O491    1.287   .     A
C461   O489    1.278   .     A
C462   O490    1.278   .     A
C462   O492    1.287   .     A
C462   C466    1.401   .     S
C463   F503    1.358   .     S
C463   C480    1.402   .     A
C463   C67     1.389   1_556 S
C464   F504    1.358   .     S
C464   C479    1.402   .     A
C465   C604    1.335   .     S
C465   H623    1.088   .     S
C466   C741    1.335   1_545 S
C466   H762    1.088   1_545 S
C467   C472    1.431   .     S
C467   O493    1.289   .     A
C467   O495    1.291   .     A
C468   O494    1.289   .     A
C468   C471    1.431   .     S
C468   O496    1.291   .     A
C469   C471    1.395   .     A
C469   C479    1.385   .     A
C469   H499    1.085   .     S
C470   C472    1.395   .     A
C470   H500    1.085   .     S
C470   C480    1.385   .     A
C471   C473    1.396   .     A
C472   C474    1.396   .     A
C473   H501    1.085   .     S
C473   C475    1.381   .     A
C474   H502    1.085   .     S
C474   C476    1.381   .     A
C475   C481    1.399   .     A
C475   C477    1.411   .     A
C476   C478    1.411   .     A
C476   C482    1.399   .     A
C477   C479    1.414   .     A
C478   C480    1.414   .     A
C478   C63     1.391   1_556 S
C481   H483    1.084   .     S
C482   H484    1.084   .     S
C482   C50     1.389   1_556 S
H485   C741    1.088   1_545 S
H486   C604    1.088   .     S
N487   Zn498   2.019   .     S
N487   N534    1.281   .     S
N487   F551    1.335   .     S
N488   Zn497   2.019   .     S
O489   Zn497   1.957   .     S
O490   Zn498   1.957   .     S
O491   Zn498   1.977   .     S
O492   Zn497   1.977   .     S
O493   Zn497   2.006   .     S
O494   Zn498   2.006   .     S
O495   Zn498   2.018   .     S
O496   Zn497   2.018   .     S
F506   N534    1.335   .     S
C507   C511    1.401   .     S
C507   O537    1.287   .     A
C507   O535    1.278   .     A
C508   O536    1.278   .     A
C508   O538    1.287   .     A
C508   C512    1.401   .     S
C509   F549    1.358   .     S
C509   C526    1.402   .     A
C509   C113    1.389   1_556 S
C510   F550    1.358   .     S
C510   C525    1.402   .     A
C511   C650    1.335   .     S
C511   H669    1.088   .     S
C512   C787    1.335   1_545 S
C512   H808    1.088   1_545 S
C513   C518    1.431   .     S
C513   O539    1.289   .     A
C513   O541    1.291   .     A
C514   O540    1.289   .     A
C514   C517    1.431   .     S
C514   O542    1.291   .     A
C515   C517    1.395   .     A
C515   C525    1.385   .     A
C515   H545    1.085   .     S
C516   C518    1.395   .     A
C516   H546    1.085   .     S
C516   C526    1.385   .     A
C517   C519    1.396   .     A
C518   C520    1.396   .     A
C519   H547    1.085   .     S
C519   C521    1.381   .     A
C520   H548    1.085   .     S
C520   C522    1.381   .     A
C521   C527    1.399   .     A
C521   C523    1.411   .     A
C522   C524    1.411   .     A
C522   C528    1.399   .     A
C523   C525    1.414   .     A
C524   C526    1.414   .     A
C524   C109    1.391   1_556 S
C527   H529    1.084   .     S
C528   H530    1.084   .     S
C528   C96     1.389   1_556 S
H531   C787    1.088   1_545 S
H532   C650    1.088   .     S
N533   Zn544   2.019   .     S
N533   N442    1.281   1_655 S
N533   F459    1.335   1_655 S
N534   Zn543   2.019   .     S
O535   Zn543   1.957   .     S
O536   Zn544   1.957   .     S
O537   Zn544   1.977   .     S
O538   Zn543   1.977   .     S
O539   Zn543   2.006   .     S
O540   Zn544   2.006   .     S
O541   Zn544   2.018   .     S
O542   Zn543   2.018   .     S
F552   N442    1.335   1_655 S
C553   C557    1.401   .     S
C553   O583    1.287   .     A
C553   O581    1.278   .     A
C554   O582    1.278   .     A
C554   O584    1.287   .     A
C554   C558    1.401   .     S
C555   F595    1.358   .     S
C555   C572    1.402   .     A
C555   C159    1.389   1_556 S
C556   F596    1.358   .     S
C556   C571    1.402   .     A
C557   C696    1.335   .     S
C557   H715    1.088   .     S
C559   C564    1.431   .     S
C559   O585    1.289   .     A
C559   O587    1.291   .     A
C560   O586    1.289   .     A
C560   C563    1.431   .     S
C560   O588    1.291   .     A
C561   C563    1.395   .     A
C561   C571    1.385   .     A
C561   H591    1.085   .     S
C562   C564    1.395   .     A
C562   H592    1.085   .     S
C562   C572    1.385   .     A
C563   C565    1.396   .     A
C564   C566    1.396   .     A
C565   H593    1.085   .     S
C565   C567    1.381   .     A
C566   H594    1.085   .     S
C566   C568    1.381   .     A
C567   C573    1.399   .     A
C567   C569    1.411   .     A
C568   C570    1.411   .     A
C568   C574    1.399   .     A
C569   C571    1.414   .     A
C570   C572    1.414   .     A
C570   C155    1.391   1_556 S
C573   H575    1.084   .     S
C574   H576    1.084   .     S
C574   C142    1.389   1_556 S
H578   C696    1.088   .     S
N579   Zn590   2.019   .     S
N579   N626    1.281   .     S
N579   F643    1.335   .     S
N580   Zn589   2.019   .     S
N580   N671    1.281   1_455 S
N580   F690    1.335   1_455 S
O581   Zn589   1.957   .     S
O582   Zn590   1.957   .     S
O583   Zn590   1.977   .     S
O584   Zn589   1.977   .     S
O585   Zn589   2.006   .     S
O586   Zn590   2.006   .     S
O587   Zn590   2.018   .     S
O588   Zn589   2.018   .     S
F597   N671    1.335   1_455 S
F598   N626    1.335   .     S
C599   C603    1.401   .     S
C599   O629    1.287   .     A
C599   O627    1.278   .     A
C600   O628    1.278   .     A
C600   O630    1.287   .     A
C600   C604    1.401   .     S
C601   F641    1.358   .     S
C601   C618    1.402   .     A
C601   C205    1.389   1_556 S
C602   F642    1.358   .     S
C602   C617    1.402   .     A
C603   C742    1.335   .     S
C603   H761    1.088   .     S
C605   C610    1.431   .     S
C605   O631    1.289   .     A
C605   O633    1.291   .     A
C606   O632    1.289   .     A
C606   C609    1.431   .     S
C606   O634    1.291   .     A
C607   C609    1.395   .     A
C607   C617    1.385   .     A
C607   H637    1.085   .     S
C608   C610    1.395   .     A
C608   H638    1.085   .     S
C608   C618    1.385   .     A
C609   C611    1.396   .     A
C610   C612    1.396   .     A
C611   H639    1.085   .     S
C611   C613    1.381   .     A
C612   H640    1.085   .     S
C612   C614    1.381   .     A
C613   C619    1.399   .     A
C613   C615    1.411   .     A
C614   C616    1.411   .     A
C614   C620    1.399   .     A
C615   C617    1.414   .     A
C616   C618    1.414   .     A
C616   C201    1.391   1_556 S
C619   H621    1.084   .     S
C620   H622    1.084   .     S
C620   C188    1.389   1_556 S
H624   C742    1.088   .     S
N625   Zn636   2.019   .     S
N625   N672    1.281   .     S
N625   F689    1.335   .     S
N626   Zn635   2.019   .     S
O627   Zn635   1.957   .     S
O628   Zn636   1.957   .     S
O629   Zn636   1.977   .     S
O630   Zn635   1.977   .     S
O631   Zn635   2.006   .     S
O632   Zn636   2.006   .     S
O633   Zn636   2.018   .     S
O634   Zn635   2.018   .     S
F644   N672    1.335   .     S
C645   C649    1.401   .     S
C645   O675    1.287   .     A
C645   O673    1.278   .     A
C646   O674    1.278   .     A
C646   O676    1.287   .     A
C646   C650    1.401   .     S
C647   F687    1.358   .     S
C647   C664    1.402   .     A
C647   C251    1.389   1_556 S
C648   F688    1.358   .     S
C648   C663    1.402   .     A
C649   C788    1.335   .     S
C649   H807    1.088   .     S
C651   C656    1.431   .     S
C651   O677    1.289   .     A
C651   O679    1.291   .     A
C652   O678    1.289   .     A
C652   C655    1.431   .     S
C652   O680    1.291   .     A
C653   C655    1.395   .     A
C653   C663    1.385   .     A
C653   H683    1.085   .     S
C654   C656    1.395   .     A
C654   H684    1.085   .     S
C654   C664    1.385   .     A
C655   C657    1.396   .     A
C656   C658    1.396   .     A
C657   H685    1.085   .     S
C657   C659    1.381   .     A
C658   H686    1.085   .     S
C658   C660    1.381   .     A
C659   C665    1.399   .     A
C659   C661    1.411   .     A
C660   C662    1.411   .     A
C660   C666    1.399   .     A
C661   C663    1.414   .     A
C662   C664    1.414   .     A
C662   C247    1.391   1_556 S
C665   H667    1.084   .     S
C666   H668    1.084   .     S
C666   C234    1.389   1_556 S
H670   C788    1.088   .     S
N671   Zn682   2.019   .     S
N671   N580    1.281   1_655 S
N671   F597    1.335   1_655 S
N672   Zn681   2.019   .     S
O673   Zn681   1.957   .     S
O674   Zn682   1.957   .     S
O675   Zn682   1.977   .     S
O676   Zn681   1.977   .     S
O677   Zn681   2.006   .     S
O678   Zn682   2.006   .     S
O679   Zn682   2.018   .     S
O680   Zn681   2.018   .     S
F690   N580    1.335   1_655 S
C691   C695    1.401   .     S
C691   O721    1.287   .     A
C691   O719    1.278   .     A
C692   O720    1.278   .     A
C692   O722    1.287   .     A
C692   C696    1.401   .     S
C693   F733    1.358   .     S
C693   C710    1.402   .     A
C693   C297    1.389   1_556 S
C694   F734    1.358   .     S
C694   C709    1.402   .     A
C695   C420    1.335   1_565 S
C695   H439    1.088   1_565 S
C697   C702    1.431   .     S
C697   O723    1.289   .     A
C697   O725    1.291   .     A
C698   O724    1.289   .     A
C698   C701    1.431   .     S
C698   O726    1.291   .     A
C699   C701    1.395   .     A
C699   C709    1.385   .     A
C699   H729    1.085   .     S
C700   C702    1.395   .     A
C700   H730    1.085   .     S
C700   C710    1.385   .     A
C701   C703    1.396   .     A
C702   C704    1.396   .     A
C703   H731    1.085   .     S
C703   C705    1.381   .     A
C704   H732    1.085   .     S
C704   C706    1.381   .     A
C705   C711    1.399   .     A
C705   C707    1.411   .     A
C706   C708    1.411   .     A
C706   C712    1.399   .     A
C707   C709    1.414   .     A
C708   C710    1.414   .     A
C708   C293    1.391   1_556 S
C711   H713    1.084   .     S
C712   H714    1.084   .     S
C712   C280    1.389   1_556 S
H716   C420    1.088   1_565 S
N717   Zn728   2.019   .     S
N717   N764    1.281   .     S
N717   F781    1.335   .     S
N718   Zn727   2.019   .     S
N718   N809    1.281   1_455 S
N718   F828    1.335   1_455 S
O719   Zn727   1.957   .     S
O720   Zn728   1.957   .     S
O721   Zn728   1.977   .     S
O722   Zn727   1.977   .     S
O723   Zn727   2.006   .     S
O724   Zn728   2.006   .     S
O725   Zn728   2.018   .     S
O726   Zn727   2.018   .     S
F735   N809    1.335   1_455 S
F736   N764    1.335   .     S
C737   C741    1.401   .     S
C737   O767    1.287   .     A
C737   O765    1.278   .     A
C738   O766    1.278   .     A
C738   O768    1.287   .     A
C738   C742    1.401   .     S
C739   F779    1.358   .     S
C739   C756    1.402   .     A
C739   C343    1.389   1_556 S
C740   F780    1.358   .     S
C740   C755    1.402   .     A
C741   C466    1.335   1_565 S
C741   H485    1.088   1_565 S
C743   C748    1.431   .     S
C743   O769    1.289   .     A
C743   O771    1.291   .     A
C744   O770    1.289   .     A
C744   C747    1.431   .     S
C744   O772    1.291   .     A
C745   C747    1.395   .     A
C745   C755    1.385   .     A
C745   H775    1.085   .     S
C746   C748    1.395   .     A
C746   H776    1.085   .     S
C746   C756    1.385   .     A
C747   C749    1.396   .     A
C748   C750    1.396   .     A
C749   H777    1.085   .     S
C749   C751    1.381   .     A
C750   H778    1.085   .     S
C750   C752    1.381   .     A
C751   C757    1.399   .     A
C751   C753    1.411   .     A
C752   C754    1.411   .     A
C752   C758    1.399   .     A
C753   C755    1.414   .     A
C754   C756    1.414   .     A
C754   C339    1.391   1_556 S
C757   H759    1.084   .     S
C758   H760    1.084   .     S
C758   C326    1.389   1_556 S
H762   C466    1.088   1_565 S
N763   Zn774   2.019   .     S
N763   N810    1.281   .     S
N763   F827    1.335   .     S
N764   Zn773   2.019   .     S
O765   Zn773   1.957   .     S
O766   Zn774   1.957   .     S
O767   Zn774   1.977   .     S
O768   Zn773   1.977   .     S
O769   Zn773   2.006   .     S
O770   Zn774   2.006   .     S
O771   Zn774   2.018   .     S
O772   Zn773   2.018   .     S
F782   N810    1.335   .     S
C783   C787    1.401   .     S
C783   O813    1.287   .     A
C783   O811    1.278   .     A
C784   O812    1.278   .     A
C784   O814    1.287   .     A
C784   C788    1.401   .     S
C785   F825    1.358   .     S
C785   C802    1.402   .     A
C785   C389    1.389   1_556 S
C786   F826    1.358   .     S
C786   C801    1.402   .     A
C787   C512    1.335   1_565 S
C787   H531    1.088   1_565 S
C789   C794    1.431   .     S
C789   O815    1.289   .     A
C789   O817    1.291   .     A
C790   O816    1.289   .     A
C790   C793    1.431   .     S
C790   O818    1.291   .     A
C791   C793    1.395   .     A
C791   C801    1.385   .     A
C791   H821    1.085   .     S
C792   C794    1.395   .     A
C792   H822    1.085   .     S
C792   C802    1.385   .     A
C793   C795    1.396   .     A
C794   C796    1.396   .     A
C795   H823    1.085   .     S
C795   C797    1.381   .     A
C796   H824    1.085   .     S
C796   C798    1.381   .     A
C797   C803    1.399   .     A
C797   C799    1.411   .     A
C798   C800    1.411   .     A
C798   C804    1.399   .     A
C799   C801    1.414   .     A
C800   C802    1.414   .     A
C800   C385    1.391   1_556 S
C803   H805    1.084   .     S
C804   H806    1.084   .     S
C804   C372    1.389   1_556 S
H808   C512    1.088   1_565 S
N809   Zn820   2.019   .     S
N809   N718    1.281   1_655 S
N809   F735    1.335   1_655 S
N810   Zn819   2.019   .     S
O811   Zn819   1.957   .     S
O812   Zn820   1.957   .     S
O813   Zn820   1.977   .     S
O814   Zn819   1.977   .     S
O815   Zn819   2.006   .     S
O816   Zn820   2.006   .     S
O817   Zn820   2.018   .     S
O818   Zn819   2.018   .     S
F828   N718    1.335   1_655 S
