data_str_m3_o1_o2_pcu_sym.142
_audit_creation_date              2020-01-03
_audit_creation_method            'Materials Studio'
_symmetry_space_group_name_H-M    'P1'
_symmetry_Int_Tables_number       1
_symmetry_cell_setting            triclinic
loop_
_symmetry_equiv_pos_as_xyz
  x,y,z
_cell_length_a                    32.1642
_cell_length_b                    29.8709
_cell_length_c                    30.0123
_cell_angle_alpha                 89.9991
_cell_angle_beta                  92.2689
_cell_angle_gamma                 90.0105
loop_
_atom_site_label
_atom_site_type_symbol
_atom_site_fract_x
_atom_site_fract_y
_atom_site_fract_z
_atom_site_U_iso_or_equiv
_atom_site_adp_type
_atom_site_occupancy
C1     C     0.08674   0.16667   0.24988   0.00000  Uiso   1.00
C2     C     0.24660   0.16667   0.25012   0.00000  Uiso   1.00
C3     C     0.16655   0.16667   0.16404   0.00000  Uiso   1.00
C4     C     0.16677   0.16667   0.33596   0.00000  Uiso   1.00
C5     C     0.19599   0.02367   0.27475   0.00000  Uiso   1.00
C6     C     0.13734   0.30966   0.22525   0.00000  Uiso   1.00
C7     C     0.13735   0.02366   0.22523   0.00000  Uiso   1.00
C8     C     0.19599   0.30968   0.27476   0.00000  Uiso   1.00
C9     C     0.02106   0.12628   0.24401   0.00000  Uiso   1.00
C10    C     0.31227   0.20705   0.25599   0.00000  Uiso   1.00
C11    C     0.31180   0.12627   0.24414   0.00000  Uiso   1.00
C12    C     0.02153   0.20706   0.25587   0.00000  Uiso   1.00
C13    C     0.18107   0.20427   0.04770   0.00000  Uiso   1.00
C14    C     0.18123   0.12905   0.45355   0.00000  Uiso   1.00
C15    C     0.15210   0.20425   0.45227   0.00000  Uiso   1.00
C16    C     0.15196   0.12905   0.04647   0.00000  Uiso   1.00
C17    C     0.18082   0.20439   0.09370   0.00000  Uiso   1.00
C18    C     0.18110   0.12897   0.40753   0.00000  Uiso   1.00
C19    C     0.15241   0.20437   0.40628   0.00000  Uiso   1.00
C20    C     0.15215   0.12896   0.09249   0.00000  Uiso   1.00
C21    C     0.16650   0.16667   0.11610   0.00000  Uiso   1.00
C22    C     0.16678   0.16667   0.38390   0.00000  Uiso   1.00
C23    C     0.16655   0.16665   0.02407   0.00000  Uiso   1.00
C24    C     0.16662   0.16664   0.47593   0.00000  Uiso   1.00
C25    C     0.29082   0.16666   0.25011   0.00000  Uiso   1.00
C26    C     0.04252   0.16667   0.24989   0.00000  Uiso   1.00
N27    N     0.16667   0.28573   0.25000   0.00000  Uiso   1.00
N28    N     0.16667   0.04760   0.25000   0.00000  Uiso   1.00
O29    O     0.10559   0.20487   0.25000   0.00000  Uiso   1.00
O30    O     0.22774   0.12846   0.25001   0.00000  Uiso   1.00
O31    O     0.22774   0.20487   0.25001   0.00000  Uiso   1.00
O32    O     0.10559   0.12846   0.25000   0.00000  Uiso   1.00
O33    O     0.16666   0.20489   0.18453   0.00000  Uiso   1.00
O34    O     0.16667   0.12845   0.31547   0.00000  Uiso   1.00
O35    O     0.16667   0.20489   0.31547   0.00000  Uiso   1.00
O36    O     0.16666   0.12845   0.18453   0.00000  Uiso   1.00
Zn37   Zn    0.16667   0.21771   0.25000   0.00000  Uiso   1.00
Zn38   Zn    0.16667   0.11563   0.25000   0.00000  Uiso   1.00
O39    O     0.22628   0.04438   0.30102   0.00000  Uiso   1.00
H40    H     0.21802   0.07556   0.30551   0.00000  Uiso   1.00
O41    O     0.10705   0.28895   0.19899   0.00000  Uiso   1.00
H42    H     0.11533   0.25778   0.19446   0.00000  Uiso   1.00
O43    O     0.10710   0.04434   0.19890   0.00000  Uiso   1.00
H44    H     0.11532   0.07556   0.19450   0.00000  Uiso   1.00
O45    O     0.22624   0.28899   0.30108   0.00000  Uiso   1.00
H46    H     0.21800   0.25779   0.30553   0.00000  Uiso   1.00
H47    H     0.19295   0.23325   0.03062   0.00000  Uiso   1.00
H48    H     0.19306   0.10007   0.47166   0.00000  Uiso   1.00
H49    H     0.14021   0.23322   0.46934   0.00000  Uiso   1.00
H50    H     0.14012   0.10006   0.02836   0.00000  Uiso   1.00
H51    H     0.19233   0.23360   0.11169   0.00000  Uiso   1.00
H52    H     0.19265   0.09978   0.39052   0.00000  Uiso   1.00
H53    H     0.14091   0.23357   0.38827   0.00000  Uiso   1.00
H54    H     0.14062   0.09976   0.10951   0.00000  Uiso   1.00
H55    H     0.03702   0.09482   0.23915   0.00000  Uiso   1.00
H56    H     0.29631   0.23851   0.26085   0.00000  Uiso   1.00
H57    H     0.29546   0.09480   0.23937   0.00000  Uiso   1.00
H58    H     0.03787   0.23853   0.26065   0.00000  Uiso   1.00
C59    C     0.42007   0.16667   0.24988   0.00000  Uiso   1.00
C60    C     0.57993   0.16667   0.25012   0.00000  Uiso   1.00
C61    C     0.49989   0.16667   0.16404   0.00000  Uiso   1.00
C62    C     0.50010   0.16667   0.33596   0.00000  Uiso   1.00
C63    C     0.52932   0.02367   0.27475   0.00000  Uiso   1.00
C64    C     0.47067   0.30966   0.22525   0.00000  Uiso   1.00
C65    C     0.47068   0.02366   0.22523   0.00000  Uiso   1.00
C66    C     0.52932   0.30968   0.27476   0.00000  Uiso   1.00
C67    C     0.35440   0.12628   0.24401   0.00000  Uiso   1.00
C68    C     0.64560   0.20705   0.25599   0.00000  Uiso   1.00
C69    C     0.64513   0.12627   0.24414   0.00000  Uiso   1.00
C70    C     0.35487   0.20706   0.25587   0.00000  Uiso   1.00
C71    C     0.51440   0.20427   0.04770   0.00000  Uiso   1.00
C72    C     0.51456   0.12905   0.45355   0.00000  Uiso   1.00
C73    C     0.48544   0.20425   0.45227   0.00000  Uiso   1.00
C74    C     0.48530   0.12905   0.04647   0.00000  Uiso   1.00
C75    C     0.51416   0.20439   0.09370   0.00000  Uiso   1.00
C76    C     0.51443   0.12897   0.40753   0.00000  Uiso   1.00
C77    C     0.48574   0.20437   0.40628   0.00000  Uiso   1.00
C78    C     0.48548   0.12896   0.09249   0.00000  Uiso   1.00
C79    C     0.49983   0.16667   0.11610   0.00000  Uiso   1.00
C80    C     0.50011   0.16667   0.38390   0.00000  Uiso   1.00
C81    C     0.49988   0.16665   0.02407   0.00000  Uiso   1.00
C82    C     0.49995   0.16664   0.47593   0.00000  Uiso   1.00
C83    C     0.62415   0.16666   0.25011   0.00000  Uiso   1.00
C84    C     0.37585   0.16667   0.24989   0.00000  Uiso   1.00
N85    N     0.50000   0.28573   0.25000   0.00000  Uiso   1.00
N86    N     0.50000   0.04760   0.25000   0.00000  Uiso   1.00
O87    O     0.43892   0.20487   0.25000   0.00000  Uiso   1.00
O88    O     0.56108   0.12846   0.25001   0.00000  Uiso   1.00
O89    O     0.56108   0.20487   0.25001   0.00000  Uiso   1.00
O90    O     0.43892   0.12846   0.25000   0.00000  Uiso   1.00
O91    O     0.50000   0.20489   0.18453   0.00000  Uiso   1.00
O92    O     0.50000   0.12845   0.31547   0.00000  Uiso   1.00
O93    O     0.50000   0.20489   0.31547   0.00000  Uiso   1.00
O94    O     0.50000   0.12845   0.18453   0.00000  Uiso   1.00
Zn95   Zn    0.50000   0.21771   0.25000   0.00000  Uiso   1.00
Zn96   Zn    0.50000   0.11563   0.25000   0.00000  Uiso   1.00
O97    O     0.55961   0.04438   0.30102   0.00000  Uiso   1.00
H98    H     0.55136   0.07556   0.30551   0.00000  Uiso   1.00
O99    O     0.44038   0.28895   0.19899   0.00000  Uiso   1.00
H100   H     0.44866   0.25778   0.19446   0.00000  Uiso   1.00
O101   O     0.44044   0.04434   0.19890   0.00000  Uiso   1.00
H102   H     0.44865   0.07556   0.19450   0.00000  Uiso   1.00
O103   O     0.55957   0.28899   0.30108   0.00000  Uiso   1.00
H104   H     0.55133   0.25779   0.30553   0.00000  Uiso   1.00
H105   H     0.52628   0.23325   0.03062   0.00000  Uiso   1.00
H106   H     0.52640   0.10007   0.47166   0.00000  Uiso   1.00
H107   H     0.47354   0.23322   0.46934   0.00000  Uiso   1.00
H108   H     0.47345   0.10006   0.02836   0.00000  Uiso   1.00
H109   H     0.52567   0.23360   0.11169   0.00000  Uiso   1.00
H110   H     0.52599   0.09978   0.39052   0.00000  Uiso   1.00
H111   H     0.47424   0.23357   0.38827   0.00000  Uiso   1.00
H112   H     0.47395   0.09976   0.10951   0.00000  Uiso   1.00
H113   H     0.37035   0.09482   0.23915   0.00000  Uiso   1.00
H114   H     0.62965   0.23851   0.26085   0.00000  Uiso   1.00
H115   H     0.62879   0.09480   0.23937   0.00000  Uiso   1.00
H116   H     0.37121   0.23853   0.26065   0.00000  Uiso   1.00
C117   C     0.75340   0.16667   0.24988   0.00000  Uiso   1.00
C118   C     0.91326   0.16667   0.25012   0.00000  Uiso   1.00
C119   C     0.83322   0.16667   0.16404   0.00000  Uiso   1.00
C120   C     0.83344   0.16667   0.33596   0.00000  Uiso   1.00
C121   C     0.86266   0.02367   0.27475   0.00000  Uiso   1.00
C122   C     0.80401   0.30966   0.22525   0.00000  Uiso   1.00
C123   C     0.80402   0.02366   0.22523   0.00000  Uiso   1.00
C124   C     0.86265   0.30968   0.27476   0.00000  Uiso   1.00
C125   C     0.68773   0.12628   0.24401   0.00000  Uiso   1.00
C126   C     0.97894   0.20705   0.25599   0.00000  Uiso   1.00
C127   C     0.97847   0.12627   0.24414   0.00000  Uiso   1.00
C128   C     0.68820   0.20706   0.25587   0.00000  Uiso   1.00
C129   C     0.84774   0.20427   0.04770   0.00000  Uiso   1.00
C130   C     0.84789   0.12905   0.45355   0.00000  Uiso   1.00
C131   C     0.81877   0.20425   0.45227   0.00000  Uiso   1.00
C132   C     0.81863   0.12905   0.04647   0.00000  Uiso   1.00
C133   C     0.84749   0.20439   0.09370   0.00000  Uiso   1.00
C134   C     0.84777   0.12897   0.40753   0.00000  Uiso   1.00
C135   C     0.81907   0.20437   0.40628   0.00000  Uiso   1.00
C136   C     0.81882   0.12896   0.09249   0.00000  Uiso   1.00
C137   C     0.83316   0.16667   0.11610   0.00000  Uiso   1.00
C138   C     0.83344   0.16667   0.38390   0.00000  Uiso   1.00
C139   C     0.83321   0.16665   0.02407   0.00000  Uiso   1.00
C140   C     0.83328   0.16664   0.47593   0.00000  Uiso   1.00
C141   C     0.95748   0.16666   0.25011   0.00000  Uiso   1.00
C142   C     0.70918   0.16667   0.24989   0.00000  Uiso   1.00
N143   N     0.83333   0.28573   0.25000   0.00000  Uiso   1.00
N144   N     0.83333   0.04760   0.25000   0.00000  Uiso   1.00
O145   O     0.77226   0.20487   0.25000   0.00000  Uiso   1.00
O146   O     0.89441   0.12846   0.25001   0.00000  Uiso   1.00
O147   O     0.89441   0.20487   0.25001   0.00000  Uiso   1.00
O148   O     0.77226   0.12846   0.25000   0.00000  Uiso   1.00
O149   O     0.83333   0.20489   0.18453   0.00000  Uiso   1.00
O150   O     0.83334   0.12845   0.31547   0.00000  Uiso   1.00
O151   O     0.83334   0.20489   0.31547   0.00000  Uiso   1.00
O152   O     0.83333   0.12845   0.18453   0.00000  Uiso   1.00
Zn153  Zn    0.83333   0.21771   0.25000   0.00000  Uiso   1.00
Zn154  Zn    0.83333   0.11563   0.25000   0.00000  Uiso   1.00
O155   O     0.89295   0.04438   0.30102   0.00000  Uiso   1.00
H156   H     0.88469   0.07556   0.30551   0.00000  Uiso   1.00
O157   O     0.77371   0.28895   0.19899   0.00000  Uiso   1.00
H158   H     0.78199   0.25778   0.19446   0.00000  Uiso   1.00
O159   O     0.77377   0.04434   0.19890   0.00000  Uiso   1.00
H160   H     0.78198   0.07556   0.19450   0.00000  Uiso   1.00
O161   O     0.89290   0.28899   0.30108   0.00000  Uiso   1.00
H162   H     0.88466   0.25779   0.30553   0.00000  Uiso   1.00
H163   H     0.85961   0.23325   0.03062   0.00000  Uiso   1.00
H164   H     0.85973   0.10007   0.47166   0.00000  Uiso   1.00
H165   H     0.80687   0.23322   0.46934   0.00000  Uiso   1.00
H166   H     0.80679   0.10006   0.02836   0.00000  Uiso   1.00
H167   H     0.85900   0.23360   0.11169   0.00000  Uiso   1.00
H168   H     0.85932   0.09978   0.39052   0.00000  Uiso   1.00
H169   H     0.80758   0.23357   0.38827   0.00000  Uiso   1.00
H170   H     0.80729   0.09976   0.10951   0.00000  Uiso   1.00
H171   H     0.70369   0.09482   0.23915   0.00000  Uiso   1.00
H172   H     0.96298   0.23851   0.26085   0.00000  Uiso   1.00
H173   H     0.96213   0.09480   0.23937   0.00000  Uiso   1.00
H174   H     0.70454   0.23853   0.26065   0.00000  Uiso   1.00
C175   C     0.08674   0.50000   0.24988   0.00000  Uiso   1.00
C176   C     0.24660   0.50000   0.25012   0.00000  Uiso   1.00
C177   C     0.16655   0.50000   0.16404   0.00000  Uiso   1.00
C178   C     0.16677   0.50000   0.33596   0.00000  Uiso   1.00
C179   C     0.19599   0.35701   0.27475   0.00000  Uiso   1.00
C180   C     0.13734   0.64299   0.22525   0.00000  Uiso   1.00
C181   C     0.13735   0.35699   0.22523   0.00000  Uiso   1.00
C182   C     0.19599   0.64301   0.27476   0.00000  Uiso   1.00
C183   C     0.02106   0.45961   0.24401   0.00000  Uiso   1.00
C184   C     0.31227   0.54039   0.25599   0.00000  Uiso   1.00
C185   C     0.31180   0.45961   0.24414   0.00000  Uiso   1.00
C186   C     0.02153   0.54039   0.25587   0.00000  Uiso   1.00
C187   C     0.18107   0.53760   0.04770   0.00000  Uiso   1.00
C188   C     0.18123   0.46239   0.45355   0.00000  Uiso   1.00
C189   C     0.15210   0.53758   0.45227   0.00000  Uiso   1.00
C190   C     0.15196   0.46239   0.04647   0.00000  Uiso   1.00
C191   C     0.18082   0.53772   0.09370   0.00000  Uiso   1.00
C192   C     0.18110   0.46230   0.40753   0.00000  Uiso   1.00
C193   C     0.15241   0.53771   0.40628   0.00000  Uiso   1.00
C194   C     0.15215   0.46230   0.09249   0.00000  Uiso   1.00
C195   C     0.16650   0.50001   0.11610   0.00000  Uiso   1.00
C196   C     0.16678   0.50001   0.38390   0.00000  Uiso   1.00
C197   C     0.16655   0.49998   0.02407   0.00000  Uiso   1.00
C198   C     0.16662   0.49998   0.47593   0.00000  Uiso   1.00
C199   C     0.29082   0.50000   0.25011   0.00000  Uiso   1.00
C200   C     0.04252   0.50000   0.24989   0.00000  Uiso   1.00
N201   N     0.16667   0.61907   0.25000   0.00000  Uiso   1.00
N202   N     0.16667   0.38093   0.25000   0.00000  Uiso   1.00
O203   O     0.10559   0.53821   0.25000   0.00000  Uiso   1.00
O204   O     0.22774   0.46179   0.25001   0.00000  Uiso   1.00
O205   O     0.22774   0.53821   0.25001   0.00000  Uiso   1.00
O206   O     0.10559   0.46179   0.25000   0.00000  Uiso   1.00
O207   O     0.16666   0.53822   0.18453   0.00000  Uiso   1.00
O208   O     0.16667   0.46178   0.31547   0.00000  Uiso   1.00
O209   O     0.16667   0.53822   0.31547   0.00000  Uiso   1.00
O210   O     0.16666   0.46178   0.18453   0.00000  Uiso   1.00
Zn211  Zn    0.16667   0.55104   0.25000   0.00000  Uiso   1.00
Zn212  Zn    0.16667   0.44896   0.25000   0.00000  Uiso   1.00
O213   O     0.22628   0.37771   0.30102   0.00000  Uiso   1.00
H214   H     0.21802   0.40890   0.30551   0.00000  Uiso   1.00
O215   O     0.10705   0.62229   0.19899   0.00000  Uiso   1.00
H216   H     0.11533   0.59111   0.19446   0.00000  Uiso   1.00
O217   O     0.10710   0.37767   0.19890   0.00000  Uiso   1.00
H218   H     0.11532   0.40889   0.19450   0.00000  Uiso   1.00
O219   O     0.22624   0.62232   0.30108   0.00000  Uiso   1.00
H220   H     0.21800   0.59112   0.30553   0.00000  Uiso   1.00
H221   H     0.19295   0.56658   0.03062   0.00000  Uiso   1.00
H222   H     0.19306   0.43341   0.47166   0.00000  Uiso   1.00
H223   H     0.14021   0.56656   0.46934   0.00000  Uiso   1.00
H224   H     0.14012   0.43340   0.02836   0.00000  Uiso   1.00
H225   H     0.19233   0.56693   0.11169   0.00000  Uiso   1.00
H226   H     0.19265   0.43311   0.39052   0.00000  Uiso   1.00
H227   H     0.14091   0.56691   0.38827   0.00000  Uiso   1.00
H228   H     0.14062   0.43310   0.10951   0.00000  Uiso   1.00
H229   H     0.03702   0.42815   0.23915   0.00000  Uiso   1.00
H230   H     0.29631   0.57185   0.26085   0.00000  Uiso   1.00
H231   H     0.29546   0.42814   0.23937   0.00000  Uiso   1.00
H232   H     0.03787   0.57186   0.26065   0.00000  Uiso   1.00
C233   C     0.42007   0.50000   0.24988   0.00000  Uiso   1.00
C234   C     0.57993   0.50000   0.25012   0.00000  Uiso   1.00
C235   C     0.49989   0.50000   0.16404   0.00000  Uiso   1.00
C236   C     0.50010   0.50000   0.33596   0.00000  Uiso   1.00
C237   C     0.52932   0.35701   0.27475   0.00000  Uiso   1.00
C238   C     0.47067   0.64299   0.22525   0.00000  Uiso   1.00
C239   C     0.47068   0.35699   0.22523   0.00000  Uiso   1.00
C240   C     0.52932   0.64301   0.27476   0.00000  Uiso   1.00
C241   C     0.35440   0.45961   0.24401   0.00000  Uiso   1.00
C242   C     0.64560   0.54039   0.25599   0.00000  Uiso   1.00
C243   C     0.64513   0.45961   0.24414   0.00000  Uiso   1.00
C244   C     0.35487   0.54039   0.25587   0.00000  Uiso   1.00
C245   C     0.51440   0.53760   0.04770   0.00000  Uiso   1.00
C246   C     0.51456   0.46239   0.45355   0.00000  Uiso   1.00
C247   C     0.48544   0.53758   0.45227   0.00000  Uiso   1.00
C248   C     0.48530   0.46239   0.04647   0.00000  Uiso   1.00
C249   C     0.51416   0.53772   0.09370   0.00000  Uiso   1.00
C250   C     0.51443   0.46230   0.40753   0.00000  Uiso   1.00
C251   C     0.48574   0.53771   0.40628   0.00000  Uiso   1.00
C252   C     0.48548   0.46230   0.09249   0.00000  Uiso   1.00
C253   C     0.49983   0.50001   0.11610   0.00000  Uiso   1.00
C254   C     0.50011   0.50001   0.38390   0.00000  Uiso   1.00
C255   C     0.49988   0.49998   0.02407   0.00000  Uiso   1.00
C256   C     0.49995   0.49998   0.47593   0.00000  Uiso   1.00
C257   C     0.62415   0.50000   0.25011   0.00000  Uiso   1.00
C258   C     0.37585   0.50000   0.24989   0.00000  Uiso   1.00
N259   N     0.50000   0.61907   0.25000   0.00000  Uiso   1.00
N260   N     0.50000   0.38093   0.25000   0.00000  Uiso   1.00
O261   O     0.43892   0.53821   0.25000   0.00000  Uiso   1.00
O262   O     0.56108   0.46179   0.25001   0.00000  Uiso   1.00
O263   O     0.56108   0.53821   0.25001   0.00000  Uiso   1.00
O264   O     0.43892   0.46179   0.25000   0.00000  Uiso   1.00
O265   O     0.50000   0.53822   0.18453   0.00000  Uiso   1.00
O266   O     0.50000   0.46178   0.31547   0.00000  Uiso   1.00
O267   O     0.50000   0.53822   0.31547   0.00000  Uiso   1.00
O268   O     0.50000   0.46178   0.18453   0.00000  Uiso   1.00
Zn269  Zn    0.50000   0.55104   0.25000   0.00000  Uiso   1.00
Zn270  Zn    0.50000   0.44896   0.25000   0.00000  Uiso   1.00
O271   O     0.55961   0.37771   0.30102   0.00000  Uiso   1.00
H272   H     0.55136   0.40890   0.30551   0.00000  Uiso   1.00
O273   O     0.44038   0.62229   0.19899   0.00000  Uiso   1.00
H274   H     0.44866   0.59111   0.19446   0.00000  Uiso   1.00
O275   O     0.44044   0.37767   0.19890   0.00000  Uiso   1.00
H276   H     0.44865   0.40889   0.19450   0.00000  Uiso   1.00
O277   O     0.55957   0.62232   0.30108   0.00000  Uiso   1.00
H278   H     0.55133   0.59112   0.30553   0.00000  Uiso   1.00
H279   H     0.52628   0.56658   0.03062   0.00000  Uiso   1.00
H280   H     0.52640   0.43341   0.47166   0.00000  Uiso   1.00
H281   H     0.47354   0.56656   0.46934   0.00000  Uiso   1.00
H282   H     0.47345   0.43340   0.02836   0.00000  Uiso   1.00
H283   H     0.52567   0.56693   0.11169   0.00000  Uiso   1.00
H284   H     0.52599   0.43311   0.39052   0.00000  Uiso   1.00
H285   H     0.47424   0.56691   0.38827   0.00000  Uiso   1.00
H286   H     0.47395   0.43310   0.10951   0.00000  Uiso   1.00
H287   H     0.37035   0.42815   0.23915   0.00000  Uiso   1.00
H288   H     0.62965   0.57185   0.26085   0.00000  Uiso   1.00
H289   H     0.62879   0.42814   0.23937   0.00000  Uiso   1.00
H290   H     0.37121   0.57186   0.26065   0.00000  Uiso   1.00
C291   C     0.75340   0.50000   0.24988   0.00000  Uiso   1.00
C292   C     0.91326   0.50000   0.25012   0.00000  Uiso   1.00
C293   C     0.83322   0.50000   0.16404   0.00000  Uiso   1.00
C294   C     0.83344   0.50000   0.33596   0.00000  Uiso   1.00
C295   C     0.86266   0.35701   0.27475   0.00000  Uiso   1.00
C296   C     0.80401   0.64299   0.22525   0.00000  Uiso   1.00
C297   C     0.80402   0.35699   0.22523   0.00000  Uiso   1.00
C298   C     0.86265   0.64301   0.27476   0.00000  Uiso   1.00
C299   C     0.68773   0.45961   0.24401   0.00000  Uiso   1.00
C300   C     0.97894   0.54039   0.25599   0.00000  Uiso   1.00
C301   C     0.97847   0.45961   0.24414   0.00000  Uiso   1.00
C302   C     0.68820   0.54039   0.25587   0.00000  Uiso   1.00
C303   C     0.84774   0.53760   0.04770   0.00000  Uiso   1.00
C304   C     0.84789   0.46239   0.45355   0.00000  Uiso   1.00
C305   C     0.81877   0.53758   0.45227   0.00000  Uiso   1.00
C306   C     0.81863   0.46239   0.04647   0.00000  Uiso   1.00
C307   C     0.84749   0.53772   0.09370   0.00000  Uiso   1.00
C308   C     0.84777   0.46230   0.40753   0.00000  Uiso   1.00
C309   C     0.81907   0.53771   0.40628   0.00000  Uiso   1.00
C310   C     0.81882   0.46230   0.09249   0.00000  Uiso   1.00
C311   C     0.83316   0.50001   0.11610   0.00000  Uiso   1.00
C312   C     0.83344   0.50001   0.38390   0.00000  Uiso   1.00
C313   C     0.83321   0.49998   0.02407   0.00000  Uiso   1.00
C314   C     0.83328   0.49998   0.47593   0.00000  Uiso   1.00
C315   C     0.95748   0.50000   0.25011   0.00000  Uiso   1.00
C316   C     0.70918   0.50000   0.24989   0.00000  Uiso   1.00
N317   N     0.83333   0.61907   0.25000   0.00000  Uiso   1.00
N318   N     0.83333   0.38093   0.25000   0.00000  Uiso   1.00
O319   O     0.77226   0.53821   0.25000   0.00000  Uiso   1.00
O320   O     0.89441   0.46179   0.25001   0.00000  Uiso   1.00
O321   O     0.89441   0.53821   0.25001   0.00000  Uiso   1.00
O322   O     0.77226   0.46179   0.25000   0.00000  Uiso   1.00
O323   O     0.83333   0.53822   0.18453   0.00000  Uiso   1.00
O324   O     0.83334   0.46178   0.31547   0.00000  Uiso   1.00
O325   O     0.83334   0.53822   0.31547   0.00000  Uiso   1.00
O326   O     0.83333   0.46178   0.18453   0.00000  Uiso   1.00
Zn327  Zn    0.83333   0.55104   0.25000   0.00000  Uiso   1.00
Zn328  Zn    0.83333   0.44896   0.25000   0.00000  Uiso   1.00
O329   O     0.89295   0.37771   0.30102   0.00000  Uiso   1.00
H330   H     0.88469   0.40890   0.30551   0.00000  Uiso   1.00
O331   O     0.77371   0.62229   0.19899   0.00000  Uiso   1.00
H332   H     0.78199   0.59111   0.19446   0.00000  Uiso   1.00
O333   O     0.77377   0.37767   0.19890   0.00000  Uiso   1.00
H334   H     0.78198   0.40889   0.19450   0.00000  Uiso   1.00
O335   O     0.89290   0.62232   0.30108   0.00000  Uiso   1.00
H336   H     0.88466   0.59112   0.30553   0.00000  Uiso   1.00
H337   H     0.85961   0.56658   0.03062   0.00000  Uiso   1.00
H338   H     0.85973   0.43341   0.47166   0.00000  Uiso   1.00
H339   H     0.80687   0.56656   0.46934   0.00000  Uiso   1.00
H340   H     0.80679   0.43340   0.02836   0.00000  Uiso   1.00
H341   H     0.85900   0.56693   0.11169   0.00000  Uiso   1.00
H342   H     0.85932   0.43311   0.39052   0.00000  Uiso   1.00
H343   H     0.80758   0.56691   0.38827   0.00000  Uiso   1.00
H344   H     0.80729   0.43310   0.10951   0.00000  Uiso   1.00
H345   H     0.70369   0.42815   0.23915   0.00000  Uiso   1.00
H346   H     0.96298   0.57185   0.26085   0.00000  Uiso   1.00
H347   H     0.96213   0.42814   0.23937   0.00000  Uiso   1.00
H348   H     0.70454   0.57186   0.26065   0.00000  Uiso   1.00
C349   C     0.08674   0.83333   0.24988   0.00000  Uiso   1.00
C350   C     0.24660   0.83333   0.25012   0.00000  Uiso   1.00
C351   C     0.16655   0.83333   0.16404   0.00000  Uiso   1.00
C352   C     0.16677   0.83333   0.33596   0.00000  Uiso   1.00
C353   C     0.19599   0.69034   0.27475   0.00000  Uiso   1.00
C354   C     0.13734   0.97633   0.22525   0.00000  Uiso   1.00
C355   C     0.13735   0.69032   0.22523   0.00000  Uiso   1.00
C356   C     0.19599   0.97634   0.27476   0.00000  Uiso   1.00
C357   C     0.02106   0.79295   0.24401   0.00000  Uiso   1.00
C358   C     0.31227   0.87372   0.25599   0.00000  Uiso   1.00
C359   C     0.31180   0.79294   0.24414   0.00000  Uiso   1.00
C360   C     0.02153   0.87373   0.25587   0.00000  Uiso   1.00
C361   C     0.18107   0.87094   0.04770   0.00000  Uiso   1.00
C362   C     0.18123   0.79572   0.45355   0.00000  Uiso   1.00
C363   C     0.15210   0.87092   0.45227   0.00000  Uiso   1.00
C364   C     0.15196   0.79572   0.04647   0.00000  Uiso   1.00
C365   C     0.18082   0.87105   0.09370   0.00000  Uiso   1.00
C366   C     0.18110   0.79563   0.40753   0.00000  Uiso   1.00
C367   C     0.15241   0.87104   0.40628   0.00000  Uiso   1.00
C368   C     0.15215   0.79563   0.09249   0.00000  Uiso   1.00
C369   C     0.16650   0.83334   0.11610   0.00000  Uiso   1.00
C370   C     0.16678   0.83334   0.38390   0.00000  Uiso   1.00
C371   C     0.16655   0.83332   0.02407   0.00000  Uiso   1.00
C372   C     0.16662   0.83331   0.47593   0.00000  Uiso   1.00
C373   C     0.29082   0.83333   0.25011   0.00000  Uiso   1.00
C374   C     0.04252   0.83334   0.24989   0.00000  Uiso   1.00
N375   N     0.16667   0.95240   0.25000   0.00000  Uiso   1.00
N376   N     0.16667   0.71427   0.25000   0.00000  Uiso   1.00
O377   O     0.10559   0.87154   0.25000   0.00000  Uiso   1.00
O378   O     0.22774   0.79513   0.25001   0.00000  Uiso   1.00
O379   O     0.22774   0.87154   0.25001   0.00000  Uiso   1.00
O380   O     0.10559   0.79513   0.25000   0.00000  Uiso   1.00
O381   O     0.16666   0.87155   0.18453   0.00000  Uiso   1.00
O382   O     0.16667   0.79511   0.31547   0.00000  Uiso   1.00
O383   O     0.16667   0.87155   0.31547   0.00000  Uiso   1.00
O384   O     0.16666   0.79511   0.18453   0.00000  Uiso   1.00
Zn385  Zn    0.16667   0.88437   0.25000   0.00000  Uiso   1.00
Zn386  Zn    0.16667   0.78229   0.25000   0.00000  Uiso   1.00
O387   O     0.22628   0.71104   0.30102   0.00000  Uiso   1.00
H388   H     0.21802   0.74223   0.30551   0.00000  Uiso   1.00
O389   O     0.10705   0.95562   0.19899   0.00000  Uiso   1.00
H390   H     0.11533   0.92445   0.19446   0.00000  Uiso   1.00
O391   O     0.10710   0.71101   0.19890   0.00000  Uiso   1.00
H392   H     0.11532   0.74222   0.19450   0.00000  Uiso   1.00
O393   O     0.22624   0.95566   0.30108   0.00000  Uiso   1.00
H394   H     0.21800   0.92445   0.30553   0.00000  Uiso   1.00
H395   H     0.19295   0.89992   0.03062   0.00000  Uiso   1.00
H396   H     0.19306   0.76674   0.47166   0.00000  Uiso   1.00
H397   H     0.14021   0.89989   0.46934   0.00000  Uiso   1.00
H398   H     0.14012   0.76673   0.02836   0.00000  Uiso   1.00
H399   H     0.19233   0.90026   0.11169   0.00000  Uiso   1.00
H400   H     0.19265   0.76644   0.39052   0.00000  Uiso   1.00
H401   H     0.14091   0.90024   0.38827   0.00000  Uiso   1.00
H402   H     0.14062   0.76643   0.10951   0.00000  Uiso   1.00
H403   H     0.03702   0.76149   0.23915   0.00000  Uiso   1.00
H404   H     0.29631   0.90518   0.26085   0.00000  Uiso   1.00
H405   H     0.29546   0.76147   0.23937   0.00000  Uiso   1.00
H406   H     0.03787   0.90519   0.26065   0.00000  Uiso   1.00
C407   C     0.42007   0.83333   0.24988   0.00000  Uiso   1.00
C408   C     0.57993   0.83333   0.25012   0.00000  Uiso   1.00
C409   C     0.49989   0.83333   0.16404   0.00000  Uiso   1.00
C410   C     0.50010   0.83333   0.33596   0.00000  Uiso   1.00
C411   C     0.52932   0.69034   0.27475   0.00000  Uiso   1.00
C412   C     0.47067   0.97633   0.22525   0.00000  Uiso   1.00
C413   C     0.47068   0.69032   0.22523   0.00000  Uiso   1.00
C414   C     0.52932   0.97634   0.27476   0.00000  Uiso   1.00
C415   C     0.35440   0.79295   0.24401   0.00000  Uiso   1.00
C416   C     0.64560   0.87372   0.25599   0.00000  Uiso   1.00
C417   C     0.64513   0.79294   0.24414   0.00000  Uiso   1.00
C418   C     0.35487   0.87373   0.25587   0.00000  Uiso   1.00
C419   C     0.51440   0.87094   0.04770   0.00000  Uiso   1.00
C420   C     0.51456   0.79572   0.45355   0.00000  Uiso   1.00
C421   C     0.48544   0.87092   0.45227   0.00000  Uiso   1.00
C422   C     0.48530   0.79572   0.04647   0.00000  Uiso   1.00
C423   C     0.51416   0.87105   0.09370   0.00000  Uiso   1.00
C424   C     0.51443   0.79563   0.40753   0.00000  Uiso   1.00
C425   C     0.48574   0.87104   0.40628   0.00000  Uiso   1.00
C426   C     0.48548   0.79563   0.09249   0.00000  Uiso   1.00
C427   C     0.49983   0.83334   0.11610   0.00000  Uiso   1.00
C428   C     0.50011   0.83334   0.38390   0.00000  Uiso   1.00
C429   C     0.49988   0.83332   0.02407   0.00000  Uiso   1.00
C430   C     0.49995   0.83331   0.47593   0.00000  Uiso   1.00
C431   C     0.62415   0.83333   0.25011   0.00000  Uiso   1.00
C432   C     0.37585   0.83334   0.24989   0.00000  Uiso   1.00
N433   N     0.50000   0.95240   0.25000   0.00000  Uiso   1.00
N434   N     0.50000   0.71427   0.25000   0.00000  Uiso   1.00
O435   O     0.43892   0.87154   0.25000   0.00000  Uiso   1.00
O436   O     0.56108   0.79513   0.25001   0.00000  Uiso   1.00
O437   O     0.56108   0.87154   0.25001   0.00000  Uiso   1.00
O438   O     0.43892   0.79513   0.25000   0.00000  Uiso   1.00
O439   O     0.50000   0.87155   0.18453   0.00000  Uiso   1.00
O440   O     0.50000   0.79511   0.31547   0.00000  Uiso   1.00
O441   O     0.50000   0.87155   0.31547   0.00000  Uiso   1.00
O442   O     0.50000   0.79511   0.18453   0.00000  Uiso   1.00
Zn443  Zn    0.50000   0.88437   0.25000   0.00000  Uiso   1.00
Zn444  Zn    0.50000   0.78229   0.25000   0.00000  Uiso   1.00
O445   O     0.55961   0.71104   0.30102   0.00000  Uiso   1.00
H446   H     0.55136   0.74223   0.30551   0.00000  Uiso   1.00
O447   O     0.44038   0.95562   0.19899   0.00000  Uiso   1.00
H448   H     0.44866   0.92445   0.19446   0.00000  Uiso   1.00
O449   O     0.44044   0.71101   0.19890   0.00000  Uiso   1.00
H450   H     0.44865   0.74222   0.19450   0.00000  Uiso   1.00
O451   O     0.55957   0.95566   0.30108   0.00000  Uiso   1.00
H452   H     0.55133   0.92445   0.30553   0.00000  Uiso   1.00
H453   H     0.52628   0.89992   0.03062   0.00000  Uiso   1.00
H454   H     0.52640   0.76674   0.47166   0.00000  Uiso   1.00
H455   H     0.47354   0.89989   0.46934   0.00000  Uiso   1.00
H456   H     0.47345   0.76673   0.02836   0.00000  Uiso   1.00
H457   H     0.52567   0.90026   0.11169   0.00000  Uiso   1.00
H458   H     0.52599   0.76644   0.39052   0.00000  Uiso   1.00
H459   H     0.47424   0.90024   0.38827   0.00000  Uiso   1.00
H460   H     0.47395   0.76643   0.10951   0.00000  Uiso   1.00
H461   H     0.37035   0.76149   0.23915   0.00000  Uiso   1.00
H462   H     0.62965   0.90518   0.26085   0.00000  Uiso   1.00
H463   H     0.62879   0.76147   0.23937   0.00000  Uiso   1.00
H464   H     0.37121   0.90519   0.26065   0.00000  Uiso   1.00
C465   C     0.75340   0.83333   0.24988   0.00000  Uiso   1.00
C466   C     0.91326   0.83333   0.25012   0.00000  Uiso   1.00
C467   C     0.83322   0.83333   0.16404   0.00000  Uiso   1.00
C468   C     0.83344   0.83333   0.33596   0.00000  Uiso   1.00
C469   C     0.86266   0.69034   0.27475   0.00000  Uiso   1.00
C470   C     0.80401   0.97633   0.22525   0.00000  Uiso   1.00
C471   C     0.80402   0.69032   0.22523   0.00000  Uiso   1.00
C472   C     0.86265   0.97634   0.27476   0.00000  Uiso   1.00
C473   C     0.68773   0.79295   0.24401   0.00000  Uiso   1.00
C474   C     0.97894   0.87372   0.25599   0.00000  Uiso   1.00
C475   C     0.97847   0.79294   0.24414   0.00000  Uiso   1.00
C476   C     0.68820   0.87373   0.25587   0.00000  Uiso   1.00
C477   C     0.84774   0.87094   0.04770   0.00000  Uiso   1.00
C478   C     0.84789   0.79572   0.45355   0.00000  Uiso   1.00
C479   C     0.81877   0.87092   0.45227   0.00000  Uiso   1.00
C480   C     0.81863   0.79572   0.04647   0.00000  Uiso   1.00
C481   C     0.84749   0.87105   0.09370   0.00000  Uiso   1.00
C482   C     0.84777   0.79563   0.40753   0.00000  Uiso   1.00
C483   C     0.81907   0.87104   0.40628   0.00000  Uiso   1.00
C484   C     0.81882   0.79563   0.09249   0.00000  Uiso   1.00
C485   C     0.83316   0.83334   0.11610   0.00000  Uiso   1.00
C486   C     0.83344   0.83334   0.38390   0.00000  Uiso   1.00
C487   C     0.83321   0.83332   0.02407   0.00000  Uiso   1.00
C488   C     0.83328   0.83331   0.47593   0.00000  Uiso   1.00
C489   C     0.95748   0.83333   0.25011   0.00000  Uiso   1.00
C490   C     0.70918   0.83334   0.24989   0.00000  Uiso   1.00
N491   N     0.83333   0.95240   0.25000   0.00000  Uiso   1.00
N492   N     0.83333   0.71427   0.25000   0.00000  Uiso   1.00
O493   O     0.77226   0.87154   0.25000   0.00000  Uiso   1.00
O494   O     0.89441   0.79513   0.25001   0.00000  Uiso   1.00
O495   O     0.89441   0.87154   0.25001   0.00000  Uiso   1.00
O496   O     0.77226   0.79513   0.25000   0.00000  Uiso   1.00
O497   O     0.83333   0.87155   0.18453   0.00000  Uiso   1.00
O498   O     0.83334   0.79511   0.31547   0.00000  Uiso   1.00
O499   O     0.83334   0.87155   0.31547   0.00000  Uiso   1.00
O500   O     0.83333   0.79511   0.18453   0.00000  Uiso   1.00
Zn501  Zn    0.83333   0.88437   0.25000   0.00000  Uiso   1.00
Zn502  Zn    0.83333   0.78229   0.25000   0.00000  Uiso   1.00
O503   O     0.89295   0.71104   0.30102   0.00000  Uiso   1.00
H504   H     0.88469   0.74223   0.30551   0.00000  Uiso   1.00
O505   O     0.77371   0.95562   0.19899   0.00000  Uiso   1.00
H506   H     0.78199   0.92445   0.19446   0.00000  Uiso   1.00
O507   O     0.77377   0.71101   0.19890   0.00000  Uiso   1.00
H508   H     0.78198   0.74222   0.19450   0.00000  Uiso   1.00
O509   O     0.89290   0.95566   0.30108   0.00000  Uiso   1.00
H510   H     0.88466   0.92445   0.30553   0.00000  Uiso   1.00
H511   H     0.85961   0.89992   0.03062   0.00000  Uiso   1.00
H512   H     0.85973   0.76674   0.47166   0.00000  Uiso   1.00
H513   H     0.80687   0.89989   0.46934   0.00000  Uiso   1.00
H514   H     0.80679   0.76673   0.02836   0.00000  Uiso   1.00
H515   H     0.85900   0.90026   0.11169   0.00000  Uiso   1.00
H516   H     0.85932   0.76644   0.39052   0.00000  Uiso   1.00
H517   H     0.80758   0.90024   0.38827   0.00000  Uiso   1.00
H518   H     0.80729   0.76643   0.10951   0.00000  Uiso   1.00
H519   H     0.70369   0.76149   0.23915   0.00000  Uiso   1.00
H520   H     0.96298   0.90518   0.26085   0.00000  Uiso   1.00
H521   H     0.96213   0.76147   0.23937   0.00000  Uiso   1.00
H522   H     0.70454   0.90519   0.26065   0.00000  Uiso   1.00
C523   C     0.08674   0.16667   0.74988   0.00000  Uiso   1.00
C524   C     0.24660   0.16667   0.75012   0.00000  Uiso   1.00
C525   C     0.16655   0.16667   0.66404   0.00000  Uiso   1.00
C526   C     0.16677   0.16667   0.83596   0.00000  Uiso   1.00
C527   C     0.19599   0.02367   0.77475   0.00000  Uiso   1.00
C528   C     0.13734   0.30966   0.72525   0.00000  Uiso   1.00
C529   C     0.13735   0.02366   0.72523   0.00000  Uiso   1.00
C530   C     0.19599   0.30968   0.77476   0.00000  Uiso   1.00
C531   C     0.02106   0.12628   0.74401   0.00000  Uiso   1.00
C532   C     0.31227   0.20705   0.75599   0.00000  Uiso   1.00
C533   C     0.31180   0.12627   0.74414   0.00000  Uiso   1.00
C534   C     0.02153   0.20706   0.75587   0.00000  Uiso   1.00
C535   C     0.18107   0.20427   0.54770   0.00000  Uiso   1.00
C536   C     0.18123   0.12905   0.95355   0.00000  Uiso   1.00
C537   C     0.15210   0.20425   0.95227   0.00000  Uiso   1.00
C538   C     0.15196   0.12905   0.54647   0.00000  Uiso   1.00
C539   C     0.18082   0.20439   0.59370   0.00000  Uiso   1.00
C540   C     0.18110   0.12897   0.90753   0.00000  Uiso   1.00
C541   C     0.15241   0.20437   0.90628   0.00000  Uiso   1.00
C542   C     0.15215   0.12896   0.59249   0.00000  Uiso   1.00
C543   C     0.16650   0.16667   0.61610   0.00000  Uiso   1.00
C544   C     0.16678   0.16667   0.88390   0.00000  Uiso   1.00
C545   C     0.16655   0.16665   0.52407   0.00000  Uiso   1.00
C546   C     0.16662   0.16664   0.97593   0.00000  Uiso   1.00
C547   C     0.29082   0.16666   0.75011   0.00000  Uiso   1.00
C548   C     0.04252   0.16667   0.74989   0.00000  Uiso   1.00
N549   N     0.16667   0.28573   0.75000   0.00000  Uiso   1.00
N550   N     0.16667   0.04760   0.75000   0.00000  Uiso   1.00
O551   O     0.10559   0.20487   0.75000   0.00000  Uiso   1.00
O552   O     0.22774   0.12846   0.75001   0.00000  Uiso   1.00
O553   O     0.22774   0.20487   0.75001   0.00000  Uiso   1.00
O554   O     0.10559   0.12846   0.75000   0.00000  Uiso   1.00
O555   O     0.16666   0.20489   0.68453   0.00000  Uiso   1.00
O556   O     0.16667   0.12845   0.81547   0.00000  Uiso   1.00
O557   O     0.16667   0.20489   0.81547   0.00000  Uiso   1.00
O558   O     0.16666   0.12845   0.68453   0.00000  Uiso   1.00
Zn559  Zn    0.16667   0.21771   0.75000   0.00000  Uiso   1.00
Zn560  Zn    0.16667   0.11563   0.75000   0.00000  Uiso   1.00
O561   O     0.22628   0.04438   0.80102   0.00000  Uiso   1.00
H562   H     0.21802   0.07556   0.80551   0.00000  Uiso   1.00
O563   O     0.10705   0.28895   0.69899   0.00000  Uiso   1.00
H564   H     0.11533   0.25778   0.69446   0.00000  Uiso   1.00
O565   O     0.10710   0.04434   0.69890   0.00000  Uiso   1.00
H566   H     0.11532   0.07556   0.69450   0.00000  Uiso   1.00
O567   O     0.22624   0.28899   0.80108   0.00000  Uiso   1.00
H568   H     0.21800   0.25779   0.80553   0.00000  Uiso   1.00
H569   H     0.19295   0.23325   0.53062   0.00000  Uiso   1.00
H570   H     0.19306   0.10007   0.97166   0.00000  Uiso   1.00
H571   H     0.14021   0.23322   0.96934   0.00000  Uiso   1.00
H572   H     0.14012   0.10006   0.52836   0.00000  Uiso   1.00
H573   H     0.19233   0.23360   0.61169   0.00000  Uiso   1.00
H574   H     0.19265   0.09978   0.89052   0.00000  Uiso   1.00
H575   H     0.14091   0.23357   0.88827   0.00000  Uiso   1.00
H576   H     0.14062   0.09976   0.60951   0.00000  Uiso   1.00
H577   H     0.03702   0.09482   0.73915   0.00000  Uiso   1.00
H578   H     0.29631   0.23851   0.76085   0.00000  Uiso   1.00
H579   H     0.29546   0.09480   0.73937   0.00000  Uiso   1.00
H580   H     0.03787   0.23853   0.76065   0.00000  Uiso   1.00
C581   C     0.42007   0.16667   0.74988   0.00000  Uiso   1.00
C582   C     0.57993   0.16667   0.75012   0.00000  Uiso   1.00
C583   C     0.49989   0.16667   0.66404   0.00000  Uiso   1.00
C584   C     0.50010   0.16667   0.83596   0.00000  Uiso   1.00
C585   C     0.52932   0.02367   0.77475   0.00000  Uiso   1.00
C586   C     0.47067   0.30966   0.72525   0.00000  Uiso   1.00
C587   C     0.47068   0.02366   0.72523   0.00000  Uiso   1.00
C588   C     0.52932   0.30968   0.77476   0.00000  Uiso   1.00
C589   C     0.35440   0.12628   0.74401   0.00000  Uiso   1.00
C590   C     0.64560   0.20705   0.75599   0.00000  Uiso   1.00
C591   C     0.64513   0.12627   0.74414   0.00000  Uiso   1.00
C592   C     0.35487   0.20706   0.75587   0.00000  Uiso   1.00
C593   C     0.51440   0.20427   0.54770   0.00000  Uiso   1.00
C594   C     0.51456   0.12905   0.95355   0.00000  Uiso   1.00
C595   C     0.48544   0.20425   0.95227   0.00000  Uiso   1.00
C596   C     0.48530   0.12905   0.54647   0.00000  Uiso   1.00
C597   C     0.51416   0.20439   0.59370   0.00000  Uiso   1.00
C598   C     0.51443   0.12897   0.90753   0.00000  Uiso   1.00
C599   C     0.48574   0.20437   0.90628   0.00000  Uiso   1.00
C600   C     0.48548   0.12896   0.59249   0.00000  Uiso   1.00
C601   C     0.49983   0.16667   0.61610   0.00000  Uiso   1.00
C602   C     0.50011   0.16667   0.88390   0.00000  Uiso   1.00
C603   C     0.49988   0.16665   0.52407   0.00000  Uiso   1.00
C604   C     0.49995   0.16664   0.97593   0.00000  Uiso   1.00
C605   C     0.62415   0.16666   0.75011   0.00000  Uiso   1.00
C606   C     0.37585   0.16667   0.74989   0.00000  Uiso   1.00
N607   N     0.50000   0.28573   0.75000   0.00000  Uiso   1.00
N608   N     0.50000   0.04760   0.75000   0.00000  Uiso   1.00
O609   O     0.43892   0.20487   0.75000   0.00000  Uiso   1.00
O610   O     0.56108   0.12846   0.75001   0.00000  Uiso   1.00
O611   O     0.56108   0.20487   0.75001   0.00000  Uiso   1.00
O612   O     0.43892   0.12846   0.75000   0.00000  Uiso   1.00
O613   O     0.50000   0.20489   0.68453   0.00000  Uiso   1.00
O614   O     0.50000   0.12845   0.81547   0.00000  Uiso   1.00
O615   O     0.50000   0.20489   0.81547   0.00000  Uiso   1.00
O616   O     0.50000   0.12845   0.68453   0.00000  Uiso   1.00
Zn617  Zn    0.50000   0.21771   0.75000   0.00000  Uiso   1.00
Zn618  Zn    0.50000   0.11563   0.75000   0.00000  Uiso   1.00
O619   O     0.55961   0.04438   0.80102   0.00000  Uiso   1.00
H620   H     0.55136   0.07556   0.80551   0.00000  Uiso   1.00
O621   O     0.44038   0.28895   0.69899   0.00000  Uiso   1.00
H622   H     0.44866   0.25778   0.69446   0.00000  Uiso   1.00
O623   O     0.44044   0.04434   0.69890   0.00000  Uiso   1.00
H624   H     0.44865   0.07556   0.69450   0.00000  Uiso   1.00
O625   O     0.55957   0.28899   0.80108   0.00000  Uiso   1.00
H626   H     0.55133   0.25779   0.80553   0.00000  Uiso   1.00
H627   H     0.52628   0.23325   0.53062   0.00000  Uiso   1.00
H628   H     0.52640   0.10007   0.97166   0.00000  Uiso   1.00
H629   H     0.47354   0.23322   0.96934   0.00000  Uiso   1.00
H630   H     0.47345   0.10006   0.52836   0.00000  Uiso   1.00
H631   H     0.52567   0.23360   0.61169   0.00000  Uiso   1.00
H632   H     0.52599   0.09978   0.89052   0.00000  Uiso   1.00
H633   H     0.47424   0.23357   0.88827   0.00000  Uiso   1.00
H634   H     0.47395   0.09976   0.60951   0.00000  Uiso   1.00
H635   H     0.37035   0.09482   0.73915   0.00000  Uiso   1.00
H636   H     0.62965   0.23851   0.76085   0.00000  Uiso   1.00
H637   H     0.62879   0.09480   0.73937   0.00000  Uiso   1.00
H638   H     0.37121   0.23853   0.76065   0.00000  Uiso   1.00
C639   C     0.75340   0.16667   0.74988   0.00000  Uiso   1.00
C640   C     0.91326   0.16667   0.75012   0.00000  Uiso   1.00
C641   C     0.83322   0.16667   0.66404   0.00000  Uiso   1.00
C642   C     0.83344   0.16667   0.83596   0.00000  Uiso   1.00
C643   C     0.86266   0.02367   0.77475   0.00000  Uiso   1.00
C644   C     0.80401   0.30966   0.72525   0.00000  Uiso   1.00
C645   C     0.80402   0.02366   0.72523   0.00000  Uiso   1.00
C646   C     0.86265   0.30968   0.77476   0.00000  Uiso   1.00
C647   C     0.68773   0.12628   0.74401   0.00000  Uiso   1.00
C648   C     0.97894   0.20705   0.75599   0.00000  Uiso   1.00
C649   C     0.97847   0.12627   0.74414   0.00000  Uiso   1.00
C650   C     0.68820   0.20706   0.75587   0.00000  Uiso   1.00
C651   C     0.84774   0.20427   0.54770   0.00000  Uiso   1.00
C652   C     0.84789   0.12905   0.95355   0.00000  Uiso   1.00
C653   C     0.81877   0.20425   0.95227   0.00000  Uiso   1.00
C654   C     0.81863   0.12905   0.54647   0.00000  Uiso   1.00
C655   C     0.84749   0.20439   0.59370   0.00000  Uiso   1.00
C656   C     0.84777   0.12897   0.90753   0.00000  Uiso   1.00
C657   C     0.81907   0.20437   0.90628   0.00000  Uiso   1.00
C658   C     0.81882   0.12896   0.59249   0.00000  Uiso   1.00
C659   C     0.83316   0.16667   0.61610   0.00000  Uiso   1.00
C660   C     0.83344   0.16667   0.88390   0.00000  Uiso   1.00
C661   C     0.83321   0.16665   0.52407   0.00000  Uiso   1.00
C662   C     0.83328   0.16664   0.97593   0.00000  Uiso   1.00
C663   C     0.95748   0.16666   0.75011   0.00000  Uiso   1.00
C664   C     0.70918   0.16667   0.74989   0.00000  Uiso   1.00
N665   N     0.83333   0.28573   0.75000   0.00000  Uiso   1.00
N666   N     0.83333   0.04760   0.75000   0.00000  Uiso   1.00
O667   O     0.77226   0.20487   0.75000   0.00000  Uiso   1.00
O668   O     0.89441   0.12846   0.75001   0.00000  Uiso   1.00
O669   O     0.89441   0.20487   0.75001   0.00000  Uiso   1.00
O670   O     0.77226   0.12846   0.75000   0.00000  Uiso   1.00
O671   O     0.83333   0.20489   0.68453   0.00000  Uiso   1.00
O672   O     0.83334   0.12845   0.81547   0.00000  Uiso   1.00
O673   O     0.83334   0.20489   0.81547   0.00000  Uiso   1.00
O674   O     0.83333   0.12845   0.68453   0.00000  Uiso   1.00
Zn675  Zn    0.83333   0.21771   0.75000   0.00000  Uiso   1.00
Zn676  Zn    0.83333   0.11563   0.75000   0.00000  Uiso   1.00
O677   O     0.89295   0.04438   0.80102   0.00000  Uiso   1.00
H678   H     0.88469   0.07556   0.80551   0.00000  Uiso   1.00
O679   O     0.77371   0.28895   0.69899   0.00000  Uiso   1.00
H680   H     0.78199   0.25778   0.69446   0.00000  Uiso   1.00
O681   O     0.77377   0.04434   0.69890   0.00000  Uiso   1.00
H682   H     0.78198   0.07556   0.69450   0.00000  Uiso   1.00
O683   O     0.89290   0.28899   0.80108   0.00000  Uiso   1.00
H684   H     0.88466   0.25779   0.80553   0.00000  Uiso   1.00
H685   H     0.85961   0.23325   0.53062   0.00000  Uiso   1.00
H686   H     0.85973   0.10007   0.97166   0.00000  Uiso   1.00
H687   H     0.80687   0.23322   0.96934   0.00000  Uiso   1.00
H688   H     0.80679   0.10006   0.52836   0.00000  Uiso   1.00
H689   H     0.85900   0.23360   0.61169   0.00000  Uiso   1.00
H690   H     0.85932   0.09978   0.89052   0.00000  Uiso   1.00
H691   H     0.80758   0.23357   0.88827   0.00000  Uiso   1.00
H692   H     0.80729   0.09976   0.60951   0.00000  Uiso   1.00
H693   H     0.70369   0.09482   0.73915   0.00000  Uiso   1.00
H694   H     0.96298   0.23851   0.76085   0.00000  Uiso   1.00
H695   H     0.96213   0.09480   0.73937   0.00000  Uiso   1.00
H696   H     0.70454   0.23853   0.76065   0.00000  Uiso   1.00
C697   C     0.08674   0.50000   0.74988   0.00000  Uiso   1.00
C698   C     0.24660   0.50000   0.75012   0.00000  Uiso   1.00
C699   C     0.16655   0.50000   0.66404   0.00000  Uiso   1.00
C700   C     0.16677   0.50000   0.83596   0.00000  Uiso   1.00
C701   C     0.19599   0.35701   0.77475   0.00000  Uiso   1.00
C702   C     0.13734   0.64299   0.72525   0.00000  Uiso   1.00
C703   C     0.13735   0.35699   0.72523   0.00000  Uiso   1.00
C704   C     0.19599   0.64301   0.77476   0.00000  Uiso   1.00
C705   C     0.02106   0.45961   0.74401   0.00000  Uiso   1.00
C706   C     0.31227   0.54039   0.75599   0.00000  Uiso   1.00
C707   C     0.31180   0.45961   0.74414   0.00000  Uiso   1.00
C708   C     0.02153   0.54039   0.75587   0.00000  Uiso   1.00
C709   C     0.18107   0.53760   0.54770   0.00000  Uiso   1.00
C710   C     0.18123   0.46239   0.95355   0.00000  Uiso   1.00
C711   C     0.15210   0.53758   0.95227   0.00000  Uiso   1.00
C712   C     0.15196   0.46239   0.54647   0.00000  Uiso   1.00
C713   C     0.18082   0.53772   0.59370   0.00000  Uiso   1.00
C714   C     0.18110   0.46230   0.90753   0.00000  Uiso   1.00
C715   C     0.15241   0.53771   0.90628   0.00000  Uiso   1.00
C716   C     0.15215   0.46230   0.59249   0.00000  Uiso   1.00
C717   C     0.16650   0.50001   0.61610   0.00000  Uiso   1.00
C718   C     0.16678   0.50001   0.88390   0.00000  Uiso   1.00
C719   C     0.16655   0.49998   0.52407   0.00000  Uiso   1.00
C720   C     0.16662   0.49998   0.97593   0.00000  Uiso   1.00
C721   C     0.29082   0.50000   0.75011   0.00000  Uiso   1.00
C722   C     0.04252   0.50000   0.74989   0.00000  Uiso   1.00
N723   N     0.16667   0.61907   0.75000   0.00000  Uiso   1.00
N724   N     0.16667   0.38093   0.75000   0.00000  Uiso   1.00
O725   O     0.10559   0.53821   0.75000   0.00000  Uiso   1.00
O726   O     0.22774   0.46179   0.75001   0.00000  Uiso   1.00
O727   O     0.22774   0.53821   0.75001   0.00000  Uiso   1.00
O728   O     0.10559   0.46179   0.75000   0.00000  Uiso   1.00
O729   O     0.16666   0.53822   0.68453   0.00000  Uiso   1.00
O730   O     0.16667   0.46178   0.81547   0.00000  Uiso   1.00
O731   O     0.16667   0.53822   0.81547   0.00000  Uiso   1.00
O732   O     0.16666   0.46178   0.68453   0.00000  Uiso   1.00
Zn733  Zn    0.16667   0.55104   0.75000   0.00000  Uiso   1.00
Zn734  Zn    0.16667   0.44896   0.75000   0.00000  Uiso   1.00
O735   O     0.22628   0.37771   0.80102   0.00000  Uiso   1.00
H736   H     0.21802   0.40890   0.80551   0.00000  Uiso   1.00
O737   O     0.10705   0.62229   0.69899   0.00000  Uiso   1.00
H738   H     0.11533   0.59111   0.69446   0.00000  Uiso   1.00
O739   O     0.10710   0.37767   0.69890   0.00000  Uiso   1.00
H740   H     0.11532   0.40889   0.69450   0.00000  Uiso   1.00
O741   O     0.22624   0.62232   0.80108   0.00000  Uiso   1.00
H742   H     0.21800   0.59112   0.80553   0.00000  Uiso   1.00
H743   H     0.19295   0.56658   0.53062   0.00000  Uiso   1.00
H744   H     0.19306   0.43341   0.97166   0.00000  Uiso   1.00
H745   H     0.14021   0.56656   0.96934   0.00000  Uiso   1.00
H746   H     0.14012   0.43340   0.52836   0.00000  Uiso   1.00
H747   H     0.19233   0.56693   0.61169   0.00000  Uiso   1.00
H748   H     0.19265   0.43311   0.89052   0.00000  Uiso   1.00
H749   H     0.14091   0.56691   0.88827   0.00000  Uiso   1.00
H750   H     0.14062   0.43310   0.60951   0.00000  Uiso   1.00
H751   H     0.03702   0.42815   0.73915   0.00000  Uiso   1.00
H752   H     0.29631   0.57185   0.76085   0.00000  Uiso   1.00
H753   H     0.29546   0.42814   0.73937   0.00000  Uiso   1.00
H754   H     0.03787   0.57186   0.76065   0.00000  Uiso   1.00
C755   C     0.42007   0.50000   0.74988   0.00000  Uiso   1.00
C756   C     0.57993   0.50000   0.75012   0.00000  Uiso   1.00
C757   C     0.49989   0.50000   0.66404   0.00000  Uiso   1.00
C758   C     0.50010   0.50000   0.83596   0.00000  Uiso   1.00
C759   C     0.52932   0.35701   0.77475   0.00000  Uiso   1.00
C760   C     0.47067   0.64299   0.72525   0.00000  Uiso   1.00
C761   C     0.47068   0.35699   0.72523   0.00000  Uiso   1.00
C762   C     0.52932   0.64301   0.77476   0.00000  Uiso   1.00
C763   C     0.35440   0.45961   0.74401   0.00000  Uiso   1.00
C764   C     0.64560   0.54039   0.75599   0.00000  Uiso   1.00
C765   C     0.64513   0.45961   0.74414   0.00000  Uiso   1.00
C766   C     0.35487   0.54039   0.75587   0.00000  Uiso   1.00
C767   C     0.51440   0.53760   0.54770   0.00000  Uiso   1.00
C768   C     0.51456   0.46239   0.95355   0.00000  Uiso   1.00
C769   C     0.48544   0.53758   0.95227   0.00000  Uiso   1.00
C770   C     0.48530   0.46239   0.54647   0.00000  Uiso   1.00
C771   C     0.51416   0.53772   0.59370   0.00000  Uiso   1.00
C772   C     0.51443   0.46230   0.90753   0.00000  Uiso   1.00
C773   C     0.48574   0.53771   0.90628   0.00000  Uiso   1.00
C774   C     0.48548   0.46230   0.59249   0.00000  Uiso   1.00
C775   C     0.49983   0.50001   0.61610   0.00000  Uiso   1.00
C776   C     0.50011   0.50001   0.88390   0.00000  Uiso   1.00
C777   C     0.49988   0.49998   0.52407   0.00000  Uiso   1.00
C778   C     0.49995   0.49998   0.97593   0.00000  Uiso   1.00
C779   C     0.62415   0.50000   0.75011   0.00000  Uiso   1.00
C780   C     0.37585   0.50000   0.74989   0.00000  Uiso   1.00
N781   N     0.50000   0.61907   0.75000   0.00000  Uiso   1.00
N782   N     0.50000   0.38093   0.75000   0.00000  Uiso   1.00
O783   O     0.43892   0.53821   0.75000   0.00000  Uiso   1.00
O784   O     0.56108   0.46179   0.75001   0.00000  Uiso   1.00
O785   O     0.56108   0.53821   0.75001   0.00000  Uiso   1.00
O786   O     0.43892   0.46179   0.75000   0.00000  Uiso   1.00
O787   O     0.50000   0.53822   0.68453   0.00000  Uiso   1.00
O788   O     0.50000   0.46178   0.81547   0.00000  Uiso   1.00
O789   O     0.50000   0.53822   0.81547   0.00000  Uiso   1.00
O790   O     0.50000   0.46178   0.68453   0.00000  Uiso   1.00
Zn791  Zn    0.50000   0.55104   0.75000   0.00000  Uiso   1.00
Zn792  Zn    0.50000   0.44896   0.75000   0.00000  Uiso   1.00
O793   O     0.55961   0.37771   0.80102   0.00000  Uiso   1.00
H794   H     0.55136   0.40890   0.80551   0.00000  Uiso   1.00
O795   O     0.44038   0.62229   0.69899   0.00000  Uiso   1.00
H796   H     0.44866   0.59111   0.69446   0.00000  Uiso   1.00
O797   O     0.44044   0.37767   0.69890   0.00000  Uiso   1.00
H798   H     0.44865   0.40889   0.69450   0.00000  Uiso   1.00
O799   O     0.55957   0.62232   0.80108   0.00000  Uiso   1.00
H800   H     0.55133   0.59112   0.80553   0.00000  Uiso   1.00
H801   H     0.52628   0.56658   0.53062   0.00000  Uiso   1.00
H802   H     0.52640   0.43341   0.97166   0.00000  Uiso   1.00
H803   H     0.47354   0.56656   0.96934   0.00000  Uiso   1.00
H804   H     0.47345   0.43340   0.52836   0.00000  Uiso   1.00
H805   H     0.52567   0.56693   0.61169   0.00000  Uiso   1.00
H806   H     0.52599   0.43311   0.89052   0.00000  Uiso   1.00
H807   H     0.47424   0.56691   0.88827   0.00000  Uiso   1.00
H808   H     0.47395   0.43310   0.60951   0.00000  Uiso   1.00
H809   H     0.37035   0.42815   0.73915   0.00000  Uiso   1.00
H810   H     0.62965   0.57185   0.76085   0.00000  Uiso   1.00
H811   H     0.62879   0.42814   0.73937   0.00000  Uiso   1.00
H812   H     0.37121   0.57186   0.76065   0.00000  Uiso   1.00
C813   C     0.75340   0.50000   0.74988   0.00000  Uiso   1.00
C814   C     0.91326   0.50000   0.75012   0.00000  Uiso   1.00
C815   C     0.83322   0.50000   0.66404   0.00000  Uiso   1.00
C816   C     0.83344   0.50000   0.83596   0.00000  Uiso   1.00
C817   C     0.86266   0.35701   0.77475   0.00000  Uiso   1.00
C818   C     0.80401   0.64299   0.72525   0.00000  Uiso   1.00
C819   C     0.80402   0.35699   0.72523   0.00000  Uiso   1.00
C820   C     0.86265   0.64301   0.77476   0.00000  Uiso   1.00
C821   C     0.68773   0.45961   0.74401   0.00000  Uiso   1.00
C822   C     0.97894   0.54039   0.75599   0.00000  Uiso   1.00
C823   C     0.97847   0.45961   0.74414   0.00000  Uiso   1.00
C824   C     0.68820   0.54039   0.75587   0.00000  Uiso   1.00
C825   C     0.84774   0.53760   0.54770   0.00000  Uiso   1.00
C826   C     0.84789   0.46239   0.95355   0.00000  Uiso   1.00
C827   C     0.81877   0.53758   0.95227   0.00000  Uiso   1.00
C828   C     0.81863   0.46239   0.54647   0.00000  Uiso   1.00
C829   C     0.84749   0.53772   0.59370   0.00000  Uiso   1.00
C830   C     0.84777   0.46230   0.90753   0.00000  Uiso   1.00
C831   C     0.81907   0.53771   0.90628   0.00000  Uiso   1.00
C832   C     0.81882   0.46230   0.59249   0.00000  Uiso   1.00
C833   C     0.83316   0.50001   0.61610   0.00000  Uiso   1.00
C834   C     0.83344   0.50001   0.88390   0.00000  Uiso   1.00
C835   C     0.83321   0.49998   0.52407   0.00000  Uiso   1.00
C836   C     0.83328   0.49998   0.97593   0.00000  Uiso   1.00
C837   C     0.95748   0.50000   0.75011   0.00000  Uiso   1.00
C838   C     0.70918   0.50000   0.74989   0.00000  Uiso   1.00
N839   N     0.83333   0.61907   0.75000   0.00000  Uiso   1.00
N840   N     0.83333   0.38093   0.75000   0.00000  Uiso   1.00
O841   O     0.77226   0.53821   0.75000   0.00000  Uiso   1.00
O842   O     0.89441   0.46179   0.75001   0.00000  Uiso   1.00
O843   O     0.89441   0.53821   0.75001   0.00000  Uiso   1.00
O844   O     0.77226   0.46179   0.75000   0.00000  Uiso   1.00
O845   O     0.83333   0.53822   0.68453   0.00000  Uiso   1.00
O846   O     0.83334   0.46178   0.81547   0.00000  Uiso   1.00
O847   O     0.83334   0.53822   0.81547   0.00000  Uiso   1.00
O848   O     0.83333   0.46178   0.68453   0.00000  Uiso   1.00
Zn849  Zn    0.83333   0.55104   0.75000   0.00000  Uiso   1.00
Zn850  Zn    0.83333   0.44896   0.75000   0.00000  Uiso   1.00
O851   O     0.89295   0.37771   0.80102   0.00000  Uiso   1.00
H852   H     0.88469   0.40890   0.80551   0.00000  Uiso   1.00
O853   O     0.77371   0.62229   0.69899   0.00000  Uiso   1.00
H854   H     0.78199   0.59111   0.69446   0.00000  Uiso   1.00
O855   O     0.77377   0.37767   0.69890   0.00000  Uiso   1.00
H856   H     0.78198   0.40889   0.69450   0.00000  Uiso   1.00
O857   O     0.89290   0.62232   0.80108   0.00000  Uiso   1.00
H858   H     0.88466   0.59112   0.80553   0.00000  Uiso   1.00
H859   H     0.85961   0.56658   0.53062   0.00000  Uiso   1.00
H860   H     0.85973   0.43341   0.97166   0.00000  Uiso   1.00
H861   H     0.80687   0.56656   0.96934   0.00000  Uiso   1.00
H862   H     0.80679   0.43340   0.52836   0.00000  Uiso   1.00
H863   H     0.85900   0.56693   0.61169   0.00000  Uiso   1.00
H864   H     0.85932   0.43311   0.89052   0.00000  Uiso   1.00
H865   H     0.80758   0.56691   0.88827   0.00000  Uiso   1.00
H866   H     0.80729   0.43310   0.60951   0.00000  Uiso   1.00
H867   H     0.70369   0.42815   0.73915   0.00000  Uiso   1.00
H868   H     0.96298   0.57185   0.76085   0.00000  Uiso   1.00
H869   H     0.96213   0.42814   0.73937   0.00000  Uiso   1.00
H870   H     0.70454   0.57186   0.76065   0.00000  Uiso   1.00
C871   C     0.08674   0.83333   0.74988   0.00000  Uiso   1.00
C872   C     0.24660   0.83333   0.75012   0.00000  Uiso   1.00
C873   C     0.16655   0.83333   0.66404   0.00000  Uiso   1.00
C874   C     0.16677   0.83333   0.83596   0.00000  Uiso   1.00
C875   C     0.19599   0.69034   0.77475   0.00000  Uiso   1.00
C876   C     0.13734   0.97633   0.72525   0.00000  Uiso   1.00
C877   C     0.13735   0.69032   0.72523   0.00000  Uiso   1.00
C878   C     0.19599   0.97634   0.77476   0.00000  Uiso   1.00
C879   C     0.02106   0.79295   0.74401   0.00000  Uiso   1.00
C880   C     0.31227   0.87372   0.75599   0.00000  Uiso   1.00
C881   C     0.31180   0.79294   0.74414   0.00000  Uiso   1.00
C882   C     0.02153   0.87373   0.75587   0.00000  Uiso   1.00
C883   C     0.18107   0.87094   0.54770   0.00000  Uiso   1.00
C884   C     0.18123   0.79572   0.95355   0.00000  Uiso   1.00
C885   C     0.15210   0.87092   0.95227   0.00000  Uiso   1.00
C886   C     0.15196   0.79572   0.54647   0.00000  Uiso   1.00
C887   C     0.18082   0.87105   0.59370   0.00000  Uiso   1.00
C888   C     0.18110   0.79563   0.90753   0.00000  Uiso   1.00
C889   C     0.15241   0.87104   0.90628   0.00000  Uiso   1.00
C890   C     0.15215   0.79563   0.59249   0.00000  Uiso   1.00
C891   C     0.16650   0.83334   0.61610   0.00000  Uiso   1.00
C892   C     0.16678   0.83334   0.88390   0.00000  Uiso   1.00
C893   C     0.16655   0.83332   0.52407   0.00000  Uiso   1.00
C894   C     0.16662   0.83331   0.97593   0.00000  Uiso   1.00
C895   C     0.29082   0.83333   0.75011   0.00000  Uiso   1.00
C896   C     0.04252   0.83334   0.74989   0.00000  Uiso   1.00
N897   N     0.16667   0.95240   0.75000   0.00000  Uiso   1.00
N898   N     0.16667   0.71427   0.75000   0.00000  Uiso   1.00
O899   O     0.10559   0.87154   0.75000   0.00000  Uiso   1.00
O900   O     0.22774   0.79513   0.75001   0.00000  Uiso   1.00
O901   O     0.22774   0.87154   0.75001   0.00000  Uiso   1.00
O902   O     0.10559   0.79513   0.75000   0.00000  Uiso   1.00
O903   O     0.16666   0.87155   0.68453   0.00000  Uiso   1.00
O904   O     0.16667   0.79511   0.81547   0.00000  Uiso   1.00
O905   O     0.16667   0.87155   0.81547   0.00000  Uiso   1.00
O906   O     0.16666   0.79511   0.68453   0.00000  Uiso   1.00
Zn907  Zn    0.16667   0.88437   0.75000   0.00000  Uiso   1.00
Zn908  Zn    0.16667   0.78229   0.75000   0.00000  Uiso   1.00
O909   O     0.22628   0.71104   0.80102   0.00000  Uiso   1.00
H910   H     0.21802   0.74223   0.80551   0.00000  Uiso   1.00
O911   O     0.10705   0.95562   0.69899   0.00000  Uiso   1.00
H912   H     0.11533   0.92445   0.69446   0.00000  Uiso   1.00
O913   O     0.10710   0.71101   0.69890   0.00000  Uiso   1.00
H914   H     0.11532   0.74222   0.69450   0.00000  Uiso   1.00
O915   O     0.22624   0.95566   0.80108   0.00000  Uiso   1.00
H916   H     0.21800   0.92445   0.80553   0.00000  Uiso   1.00
H917   H     0.19295   0.89992   0.53062   0.00000  Uiso   1.00
H918   H     0.19306   0.76674   0.97166   0.00000  Uiso   1.00
H919   H     0.14021   0.89989   0.96934   0.00000  Uiso   1.00
H920   H     0.14012   0.76673   0.52836   0.00000  Uiso   1.00
H921   H     0.19233   0.90026   0.61169   0.00000  Uiso   1.00
H922   H     0.19265   0.76644   0.89052   0.00000  Uiso   1.00
H923   H     0.14091   0.90024   0.88827   0.00000  Uiso   1.00
H924   H     0.14062   0.76643   0.60951   0.00000  Uiso   1.00
H925   H     0.03702   0.76149   0.73915   0.00000  Uiso   1.00
H926   H     0.29631   0.90518   0.76085   0.00000  Uiso   1.00
H927   H     0.29546   0.76147   0.73937   0.00000  Uiso   1.00
H928   H     0.03787   0.90519   0.76065   0.00000  Uiso   1.00
C929   C     0.42007   0.83333   0.74988   0.00000  Uiso   1.00
C930   C     0.57993   0.83333   0.75012   0.00000  Uiso   1.00
C931   C     0.49989   0.83333   0.66404   0.00000  Uiso   1.00
C932   C     0.50010   0.83333   0.83596   0.00000  Uiso   1.00
C933   C     0.52932   0.69034   0.77475   0.00000  Uiso   1.00
C934   C     0.47067   0.97633   0.72525   0.00000  Uiso   1.00
C935   C     0.47068   0.69032   0.72523   0.00000  Uiso   1.00
C936   C     0.52932   0.97634   0.77476   0.00000  Uiso   1.00
C937   C     0.35440   0.79295   0.74401   0.00000  Uiso   1.00
C938   C     0.64560   0.87372   0.75599   0.00000  Uiso   1.00
C939   C     0.64513   0.79294   0.74414   0.00000  Uiso   1.00
C940   C     0.35487   0.87373   0.75587   0.00000  Uiso   1.00
C941   C     0.51440   0.87094   0.54770   0.00000  Uiso   1.00
C942   C     0.51456   0.79572   0.95355   0.00000  Uiso   1.00
C943   C     0.48544   0.87092   0.95227   0.00000  Uiso   1.00
C944   C     0.48530   0.79572   0.54647   0.00000  Uiso   1.00
C945   C     0.51416   0.87105   0.59370   0.00000  Uiso   1.00
C946   C     0.51443   0.79563   0.90753   0.00000  Uiso   1.00
C947   C     0.48574   0.87104   0.90628   0.00000  Uiso   1.00
C948   C     0.48548   0.79563   0.59249   0.00000  Uiso   1.00
C949   C     0.49983   0.83334   0.61610   0.00000  Uiso   1.00
C950   C     0.50011   0.83334   0.88390   0.00000  Uiso   1.00
C951   C     0.49988   0.83332   0.52407   0.00000  Uiso   1.00
C952   C     0.49995   0.83331   0.97593   0.00000  Uiso   1.00
C953   C     0.62415   0.83333   0.75011   0.00000  Uiso   1.00
C954   C     0.37585   0.83334   0.74989   0.00000  Uiso   1.00
N955   N     0.50000   0.95240   0.75000   0.00000  Uiso   1.00
N956   N     0.50000   0.71427   0.75000   0.00000  Uiso   1.00
O957   O     0.43892   0.87154   0.75000   0.00000  Uiso   1.00
O958   O     0.56108   0.79513   0.75001   0.00000  Uiso   1.00
O959   O     0.56108   0.87154   0.75001   0.00000  Uiso   1.00
O960   O     0.43892   0.79513   0.75000   0.00000  Uiso   1.00
O961   O     0.50000   0.87155   0.68453   0.00000  Uiso   1.00
O962   O     0.50000   0.79511   0.81547   0.00000  Uiso   1.00
O963   O     0.50000   0.87155   0.81547   0.00000  Uiso   1.00
O964   O     0.50000   0.79511   0.68453   0.00000  Uiso   1.00
Zn965  Zn    0.50000   0.88437   0.75000   0.00000  Uiso   1.00
Zn966  Zn    0.50000   0.78229   0.75000   0.00000  Uiso   1.00
O967   O     0.55961   0.71104   0.80102   0.00000  Uiso   1.00
H968   H     0.55136   0.74223   0.80551   0.00000  Uiso   1.00
O969   O     0.44038   0.95562   0.69899   0.00000  Uiso   1.00
H970   H     0.44866   0.92445   0.69446   0.00000  Uiso   1.00
O971   O     0.44044   0.71101   0.69890   0.00000  Uiso   1.00
H972   H     0.44865   0.74222   0.69450   0.00000  Uiso   1.00
O973   O     0.55957   0.95566   0.80108   0.00000  Uiso   1.00
H974   H     0.55133   0.92445   0.80553   0.00000  Uiso   1.00
H975   H     0.52628   0.89992   0.53062   0.00000  Uiso   1.00
H976   H     0.52640   0.76674   0.97166   0.00000  Uiso   1.00
H977   H     0.47354   0.89989   0.96934   0.00000  Uiso   1.00
H978   H     0.47345   0.76673   0.52836   0.00000  Uiso   1.00
H979   H     0.52567   0.90026   0.61169   0.00000  Uiso   1.00
H980   H     0.52599   0.76644   0.89052   0.00000  Uiso   1.00
H981   H     0.47424   0.90024   0.88827   0.00000  Uiso   1.00
H982   H     0.47395   0.76643   0.60951   0.00000  Uiso   1.00
H983   H     0.37035   0.76149   0.73915   0.00000  Uiso   1.00
H984   H     0.62965   0.90518   0.76085   0.00000  Uiso   1.00
H985   H     0.62879   0.76147   0.73937   0.00000  Uiso   1.00
H986   H     0.37121   0.90519   0.76065   0.00000  Uiso   1.00
C987   C     0.75340   0.83333   0.74988   0.00000  Uiso   1.00
C988   C     0.91326   0.83333   0.75012   0.00000  Uiso   1.00
C989   C     0.83322   0.83333   0.66404   0.00000  Uiso   1.00
C990   C     0.83344   0.83333   0.83596   0.00000  Uiso   1.00
C991   C     0.86266   0.69034   0.77475   0.00000  Uiso   1.00
C992   C     0.80401   0.97633   0.72525   0.00000  Uiso   1.00
C993   C     0.80402   0.69032   0.72523   0.00000  Uiso   1.00
C994   C     0.86265   0.97634   0.77476   0.00000  Uiso   1.00
C995   C     0.68773   0.79295   0.74401   0.00000  Uiso   1.00
C996   C     0.97894   0.87372   0.75599   0.00000  Uiso   1.00
C997   C     0.97847   0.79294   0.74414   0.00000  Uiso   1.00
C998   C     0.68820   0.87373   0.75587   0.00000  Uiso   1.00
C999   C     0.84774   0.87094   0.54770   0.00000  Uiso   1.00
C1000  C     0.84789   0.79572   0.95355   0.00000  Uiso   1.00
C1001  C     0.81877   0.87092   0.95227   0.00000  Uiso   1.00
C1002  C     0.81863   0.79572   0.54647   0.00000  Uiso   1.00
C1003  C     0.84749   0.87105   0.59370   0.00000  Uiso   1.00
C1004  C     0.84777   0.79563   0.90753   0.00000  Uiso   1.00
C1005  C     0.81907   0.87104   0.90628   0.00000  Uiso   1.00
C1006  C     0.81882   0.79563   0.59249   0.00000  Uiso   1.00
C1007  C     0.83316   0.83334   0.61610   0.00000  Uiso   1.00
C1008  C     0.83344   0.83334   0.88390   0.00000  Uiso   1.00
C1009  C     0.83321   0.83332   0.52407   0.00000  Uiso   1.00
C1010  C     0.83328   0.83331   0.97593   0.00000  Uiso   1.00
C1011  C     0.95748   0.83333   0.75011   0.00000  Uiso   1.00
C1012  C     0.70918   0.83334   0.74989   0.00000  Uiso   1.00
N1013  N     0.83333   0.95240   0.75000   0.00000  Uiso   1.00
N1014  N     0.83333   0.71427   0.75000   0.00000  Uiso   1.00
O1015  O     0.77226   0.87154   0.75000   0.00000  Uiso   1.00
O1016  O     0.89441   0.79513   0.75001   0.00000  Uiso   1.00
O1017  O     0.89441   0.87154   0.75001   0.00000  Uiso   1.00
O1018  O     0.77226   0.79513   0.75000   0.00000  Uiso   1.00
O1019  O     0.83333   0.87155   0.68453   0.00000  Uiso   1.00
O1020  O     0.83334   0.79511   0.81547   0.00000  Uiso   1.00
O1021  O     0.83334   0.87155   0.81547   0.00000  Uiso   1.00
O1022  O     0.83333   0.79511   0.68453   0.00000  Uiso   1.00
Zn1023 Zn    0.83333   0.88437   0.75000   0.00000  Uiso   1.00
Zn1024 Zn    0.83333   0.78229   0.75000   0.00000  Uiso   1.00
O1025  O     0.89295   0.71104   0.80102   0.00000  Uiso   1.00
H1026  H     0.88469   0.74223   0.80551   0.00000  Uiso   1.00
O1027  O     0.77371   0.95562   0.69899   0.00000  Uiso   1.00
H1028  H     0.78199   0.92445   0.69446   0.00000  Uiso   1.00
O1029  O     0.77377   0.71101   0.69890   0.00000  Uiso   1.00
H1030  H     0.78198   0.74222   0.69450   0.00000  Uiso   1.00
O1031  O     0.89290   0.95566   0.80108   0.00000  Uiso   1.00
H1032  H     0.88466   0.92445   0.80553   0.00000  Uiso   1.00
H1033  H     0.85961   0.89992   0.53062   0.00000  Uiso   1.00
H1034  H     0.85973   0.76674   0.97166   0.00000  Uiso   1.00
H1035  H     0.80687   0.89989   0.96934   0.00000  Uiso   1.00
H1036  H     0.80679   0.76673   0.52836   0.00000  Uiso   1.00
H1037  H     0.85900   0.90026   0.61169   0.00000  Uiso   1.00
H1038  H     0.85932   0.76644   0.89052   0.00000  Uiso   1.00
H1039  H     0.80758   0.90024   0.88827   0.00000  Uiso   1.00
H1040  H     0.80729   0.76643   0.60951   0.00000  Uiso   1.00
H1041  H     0.70369   0.76149   0.73915   0.00000  Uiso   1.00
H1042  H     0.96298   0.90518   0.76085   0.00000  Uiso   1.00
H1043  H     0.96213   0.76147   0.73937   0.00000  Uiso   1.00
H1044  H     0.70454   0.90519   0.76065   0.00000  Uiso   1.00
loop_
_geom_bond_atom_site_label_1
_geom_bond_atom_site_label_2
_geom_bond_distance
_geom_bond_site_symmetry_2
_ccdc_geom_bond_type
C1     O29     1.292   .     A
C1     C26     1.422   .     S
C1     O32     1.292   .     A
C2     C25     1.422   .     S
C2     O30     1.292   .     A
C2     O31     1.292   .     A
C3     O36     1.297   .     A
C3     C21     1.439   .     S
C3     O33     1.297   .     A
C4     C22     1.439   .     S
C4     O35     1.297   .     A
C4     O34     1.297   .     A
C5     N28     1.377   .     A
C5     O39     1.376   .     S
C5     C356    1.414   1_545 S
C6     N27     1.377   .     A
C6     O41     1.376   .     S
C6     C181    1.414   .     S
C7     O43     1.376   .     S
C7     N28     1.377   .     A
C7     C354    1.414   1_545 S
C8     O45     1.375   .     S
C8     N27     1.377   .     A
C8     C179    1.414   .     S
C9     H55     1.083   .     S
C9     C26     1.397   .     A
C9     C127    1.370   1_455 S
C10    C25     1.397   .     A
C10    H56     1.083   .     S
C10    C70     1.370   .     S
C11    H57     1.084   .     S
C11    C25     1.398   .     A
C11    C67     1.370   .     S
C12    H58     1.084   .     S
C12    C26     1.398   .     A
C12    C126    1.370   1_455 S
C13    C17     1.381   .     A
C13    C23     1.399   .     A
C13    H47     1.083   .     S
C14    C18     1.381   .     A
C14    C24     1.399   .     A
C14    H48     1.083   .     S
C15    C19     1.381   .     A
C15    C24     1.399   .     A
C15    H49     1.083   .     S
C16    C23     1.399   .     A
C16    C20     1.381   .     A
C16    H50     1.083   .     S
C17    H51     1.084   .     S
C17    C21     1.399   .     A
C18    H52     1.084   .     S
C18    C22     1.399   .     A
C19    H53     1.084   .     S
C19    C22     1.399   .     A
C20    C21     1.399   .     A
C20    H54     1.084   .     S
C23    C546    1.445   1_554 S
C24    C545    1.445   .     S
N27    Zn37    2.032   .     S
N28    Zn38    2.032   .     S
O29    Zn37    2.001   .     S
O30    Zn38    2.001   .     S
O31    Zn37    2.002   .     S
O32    Zn38    2.002   .     S
O33    Zn37    2.002   .     S
O34    Zn38    2.002   .     S
O35    Zn37    2.002   .     S
O36    Zn38    2.002   .     S
O39    H40     0.979   .     S
O41    H42     0.980   .     S
O43    H44     0.979   .     S
O45    H46     0.979   .     S
C59    O87     1.292   .     A
C59    C84     1.422   .     S
C59    O90     1.292   .     A
C60    C83     1.422   .     S
C60    O88     1.292   .     A
C60    O89     1.292   .     A
C61    O94     1.297   .     A
C61    C79     1.439   .     S
C61    O91     1.297   .     A
C62    C80     1.439   .     S
C62    O93     1.297   .     A
C62    O92     1.297   .     A
C63    N86     1.377   .     A
C63    O97     1.376   .     S
C63    C414    1.414   1_545 S
C64    N85     1.377   .     A
C64    O99     1.376   .     S
C64    C239    1.414   .     S
C65    O101    1.376   .     S
C65    N86     1.377   .     A
C65    C412    1.414   1_545 S
C66    O103    1.375   .     S
C66    N85     1.377   .     A
C66    C237    1.414   .     S
C67    H113    1.083   .     S
C67    C84     1.397   .     A
C68    C83     1.397   .     A
C68    H114    1.083   .     S
C68    C128    1.370   .     S
C69    H115    1.084   .     S
C69    C83     1.398   .     A
C69    C125    1.370   .     S
C70    H116    1.084   .     S
C70    C84     1.398   .     A
C71    C75     1.381   .     A
C71    C81     1.399   .     A
C71    H105    1.083   .     S
C72    C76     1.381   .     A
C72    C82     1.399   .     A
C72    H106    1.083   .     S
C73    C77     1.381   .     A
C73    C82     1.399   .     A
C73    H107    1.083   .     S
C74    C81     1.399   .     A
C74    C78     1.381   .     A
C74    H108    1.083   .     S
C75    H109    1.084   .     S
C75    C79     1.399   .     A
C76    H110    1.084   .     S
C76    C80     1.399   .     A
C77    H111    1.084   .     S
C77    C80     1.399   .     A
C78    C79     1.399   .     A
C78    H112    1.084   .     S
C81    C604    1.445   1_554 S
C82    C603    1.445   .     S
N85    Zn95    2.032   .     S
N86    Zn96    2.032   .     S
O87    Zn95    2.001   .     S
O88    Zn96    2.001   .     S
O89    Zn95    2.002   .     S
O90    Zn96    2.002   .     S
O91    Zn95    2.002   .     S
O92    Zn96    2.002   .     S
O93    Zn95    2.002   .     S
O94    Zn96    2.002   .     S
O97    H98     0.979   .     S
O99    H100    0.980   .     S
O101   H102    0.979   .     S
O103   H104    0.979   .     S
C117   O145    1.292   .     A
C117   C142    1.422   .     S
C117   O148    1.292   .     A
C118   C141    1.422   .     S
C118   O146    1.292   .     A
C118   O147    1.292   .     A
C119   O152    1.297   .     A
C119   C137    1.439   .     S
C119   O149    1.297   .     A
C120   C138    1.439   .     S
C120   O151    1.297   .     A
C120   O150    1.297   .     A
C121   N144    1.377   .     A
C121   O155    1.376   .     S
C121   C472    1.414   1_545 S
C122   N143    1.377   .     A
C122   O157    1.376   .     S
C122   C297    1.414   .     S
C123   O159    1.376   .     S
C123   N144    1.377   .     A
C123   C470    1.414   1_545 S
C124   O161    1.375   .     S
C124   N143    1.377   .     A
C124   C295    1.414   .     S
C125   H171    1.083   .     S
C125   C142    1.397   .     A
C126   C141    1.397   .     A
C126   H172    1.083   .     S
C126   C12     1.370   1_655 S
C127   H173    1.084   .     S
C127   C141    1.398   .     A
C127   C9      1.370   1_655 S
C128   H174    1.084   .     S
C128   C142    1.398   .     A
C129   C133    1.381   .     A
C129   C139    1.399   .     A
C129   H163    1.083   .     S
C130   C134    1.381   .     A
C130   C140    1.399   .     A
C130   H164    1.083   .     S
C131   C135    1.381   .     A
C131   C140    1.399   .     A
C131   H165    1.083   .     S
C132   C139    1.399   .     A
C132   C136    1.381   .     A
C132   H166    1.083   .     S
C133   H167    1.084   .     S
C133   C137    1.399   .     A
C134   H168    1.084   .     S
C134   C138    1.399   .     A
C135   H169    1.084   .     S
C135   C138    1.399   .     A
C136   C137    1.399   .     A
C136   H170    1.084   .     S
C139   C662    1.445   1_554 S
C140   C661    1.445   .     S
N143   Zn153   2.032   .     S
N144   Zn154   2.032   .     S
O145   Zn153   2.001   .     S
O146   Zn154   2.001   .     S
O147   Zn153   2.002   .     S
O148   Zn154   2.002   .     S
O149   Zn153   2.002   .     S
O150   Zn154   2.002   .     S
O151   Zn153   2.002   .     S
O152   Zn154   2.002   .     S
O155   H156    0.979   .     S
O157   H158    0.980   .     S
O159   H160    0.979   .     S
O161   H162    0.979   .     S
C175   O203    1.292   .     A
C175   C200    1.422   .     S
C175   O206    1.292   .     A
C176   C199    1.422   .     S
C176   O204    1.292   .     A
C176   O205    1.292   .     A
C177   O210    1.297   .     A
C177   C195    1.439   .     S
C177   O207    1.297   .     A
C178   C196    1.439   .     S
C178   O209    1.297   .     A
C178   O208    1.297   .     A
C179   N202    1.377   .     A
C179   O213    1.376   .     S
C180   N201    1.377   .     A
C180   O215    1.376   .     S
C180   C355    1.414   .     S
C181   O217    1.376   .     S
C181   N202    1.377   .     A
C182   O219    1.375   .     S
C182   N201    1.377   .     A
C182   C353    1.414   .     S
C183   H229    1.083   .     S
C183   C200    1.397   .     A
C183   C301    1.370   1_455 S
C184   C199    1.397   .     A
C184   H230    1.083   .     S
C184   C244    1.370   .     S
C185   H231    1.084   .     S
C185   C199    1.398   .     A
C185   C241    1.370   .     S
C186   H232    1.084   .     S
C186   C200    1.398   .     A
C186   C300    1.370   1_455 S
C187   C191    1.381   .     A
C187   C197    1.399   .     A
C187   H221    1.083   .     S
C188   C192    1.381   .     A
C188   C198    1.399   .     A
C188   H222    1.083   .     S
C189   C193    1.381   .     A
C189   C198    1.399   .     A
C189   H223    1.083   .     S
C190   C197    1.399   .     A
C190   C194    1.381   .     A
C190   H224    1.083   .     S
C191   H225    1.084   .     S
C191   C195    1.399   .     A
C192   H226    1.084   .     S
C192   C196    1.399   .     A
C193   H227    1.084   .     S
C193   C196    1.399   .     A
C194   C195    1.399   .     A
C194   H228    1.084   .     S
C197   C720    1.445   1_554 S
C198   C719    1.445   .     S
N201   Zn211   2.032   .     S
N202   Zn212   2.032   .     S
O203   Zn211   2.001   .     S
O204   Zn212   2.001   .     S
O205   Zn211   2.002   .     S
O206   Zn212   2.002   .     S
O207   Zn211   2.002   .     S
O208   Zn212   2.002   .     S
O209   Zn211   2.002   .     S
O210   Zn212   2.002   .     S
O213   H214    0.979   .     S
O215   H216    0.980   .     S
O217   H218    0.979   .     S
O219   H220    0.979   .     S
C233   O261    1.292   .     A
C233   C258    1.422   .     S
C233   O264    1.292   .     A
C234   C257    1.422   .     S
C234   O262    1.292   .     A
C234   O263    1.292   .     A
C235   O268    1.297   .     A
C235   C253    1.439   .     S
C235   O265    1.297   .     A
C236   C254    1.439   .     S
C236   O267    1.297   .     A
C236   O266    1.297   .     A
C237   N260    1.377   .     A
C237   O271    1.376   .     S
C238   N259    1.377   .     A
C238   O273    1.376   .     S
C238   C413    1.414   .     S
C239   O275    1.376   .     S
C239   N260    1.377   .     A
C240   O277    1.375   .     S
C240   N259    1.377   .     A
C240   C411    1.414   .     S
C241   H287    1.083   .     S
C241   C258    1.397   .     A
C242   C257    1.397   .     A
C242   H288    1.083   .     S
C242   C302    1.370   .     S
C243   H289    1.084   .     S
C243   C257    1.398   .     A
C243   C299    1.370   .     S
C244   H290    1.084   .     S
C244   C258    1.398   .     A
C245   C249    1.381   .     A
C245   C255    1.399   .     A
C245   H279    1.083   .     S
C246   C250    1.381   .     A
C246   C256    1.399   .     A
C246   H280    1.083   .     S
C247   C251    1.381   .     A
C247   C256    1.399   .     A
C247   H281    1.083   .     S
C248   C255    1.399   .     A
C248   C252    1.381   .     A
C248   H282    1.083   .     S
C249   H283    1.084   .     S
C249   C253    1.399   .     A
C250   H284    1.084   .     S
C250   C254    1.399   .     A
C251   H285    1.084   .     S
C251   C254    1.399   .     A
C252   C253    1.399   .     A
C252   H286    1.084   .     S
C255   C778    1.445   1_554 S
C256   C777    1.445   .     S
N259   Zn269   2.032   .     S
N260   Zn270   2.032   .     S
O261   Zn269   2.001   .     S
O262   Zn270   2.001   .     S
O263   Zn269   2.002   .     S
O264   Zn270   2.002   .     S
O265   Zn269   2.002   .     S
O266   Zn270   2.002   .     S
O267   Zn269   2.002   .     S
O268   Zn270   2.002   .     S
O271   H272    0.979   .     S
O273   H274    0.980   .     S
O275   H276    0.979   .     S
O277   H278    0.979   .     S
C291   O319    1.292   .     A
C291   C316    1.422   .     S
C291   O322    1.292   .     A
C292   C315    1.422   .     S
C292   O320    1.292   .     A
C292   O321    1.292   .     A
C293   O326    1.297   .     A
C293   C311    1.439   .     S
C293   O323    1.297   .     A
C294   C312    1.439   .     S
C294   O325    1.297   .     A
C294   O324    1.297   .     A
C295   N318    1.377   .     A
C295   O329    1.376   .     S
C296   N317    1.377   .     A
C296   O331    1.376   .     S
C296   C471    1.414   .     S
C297   O333    1.376   .     S
C297   N318    1.377   .     A
C298   O335    1.375   .     S
C298   N317    1.377   .     A
C298   C469    1.414   .     S
C299   H345    1.083   .     S
C299   C316    1.397   .     A
C300   C315    1.397   .     A
C300   H346    1.083   .     S
C300   C186    1.370   1_655 S
C301   H347    1.084   .     S
C301   C315    1.398   .     A
C301   C183    1.370   1_655 S
C302   H348    1.084   .     S
C302   C316    1.398   .     A
C303   C307    1.381   .     A
C303   C313    1.399   .     A
C303   H337    1.083   .     S
C304   C308    1.381   .     A
C304   C314    1.399   .     A
C304   H338    1.083   .     S
C305   C309    1.381   .     A
C305   C314    1.399   .     A
C305   H339    1.083   .     S
C306   C313    1.399   .     A
C306   C310    1.381   .     A
C306   H340    1.083   .     S
C307   H341    1.084   .     S
C307   C311    1.399   .     A
C308   H342    1.084   .     S
C308   C312    1.399   .     A
C309   H343    1.084   .     S
C309   C312    1.399   .     A
C310   C311    1.399   .     A
C310   H344    1.084   .     S
C313   C836    1.445   1_554 S
C314   C835    1.445   .     S
N317   Zn327   2.032   .     S
N318   Zn328   2.032   .     S
O319   Zn327   2.001   .     S
O320   Zn328   2.001   .     S
O321   Zn327   2.002   .     S
O322   Zn328   2.002   .     S
O323   Zn327   2.002   .     S
O324   Zn328   2.002   .     S
O325   Zn327   2.002   .     S
O326   Zn328   2.002   .     S
O329   H330    0.979   .     S
O331   H332    0.980   .     S
O333   H334    0.979   .     S
O335   H336    0.979   .     S
C349   O377    1.292   .     A
C349   C374    1.422   .     S
C349   O380    1.292   .     A
C350   C373    1.422   .     S
C350   O378    1.292   .     A
C350   O379    1.292   .     A
C351   O384    1.297   .     A
C351   C369    1.439   .     S
C351   O381    1.297   .     A
C352   C370    1.439   .     S
C352   O383    1.297   .     A
C352   O382    1.297   .     A
C353   N376    1.377   .     A
C353   O387    1.376   .     S
C354   N375    1.377   .     A
C354   O389    1.376   .     S
C354   C7      1.414   1_565 S
C355   O391    1.376   .     S
C355   N376    1.377   .     A
C356   O393    1.375   .     S
C356   N375    1.377   .     A
C356   C5      1.414   1_565 S
C357   H403    1.083   .     S
C357   C374    1.397   .     A
C357   C475    1.370   1_455 S
C358   C373    1.397   .     A
C358   H404    1.083   .     S
C358   C418    1.370   .     S
C359   H405    1.084   .     S
C359   C373    1.398   .     A
C359   C415    1.370   .     S
C360   H406    1.084   .     S
C360   C374    1.398   .     A
C360   C474    1.370   1_455 S
C361   C365    1.381   .     A
C361   C371    1.399   .     A
C361   H395    1.083   .     S
C362   C366    1.381   .     A
C362   C372    1.399   .     A
C362   H396    1.083   .     S
C363   C367    1.381   .     A
C363   C372    1.399   .     A
C363   H397    1.083   .     S
C364   C371    1.399   .     A
C364   C368    1.381   .     A
C364   H398    1.083   .     S
C365   H399    1.084   .     S
C365   C369    1.399   .     A
C366   H400    1.084   .     S
C366   C370    1.399   .     A
C367   H401    1.084   .     S
C367   C370    1.399   .     A
C368   C369    1.399   .     A
C368   H402    1.084   .     S
C371   C894    1.445   1_554 S
C372   C893    1.445   .     S
N375   Zn385   2.032   .     S
N376   Zn386   2.032   .     S
O377   Zn385   2.001   .     S
O378   Zn386   2.001   .     S
O379   Zn385   2.002   .     S
O380   Zn386   2.002   .     S
O381   Zn385   2.002   .     S
O382   Zn386   2.002   .     S
O383   Zn385   2.002   .     S
O384   Zn386   2.002   .     S
O387   H388    0.979   .     S
O389   H390    0.980   .     S
O391   H392    0.979   .     S
O393   H394    0.979   .     S
C407   O435    1.292   .     A
C407   C432    1.422   .     S
C407   O438    1.292   .     A
C408   C431    1.422   .     S
C408   O436    1.292   .     A
C408   O437    1.292   .     A
C409   O442    1.297   .     A
C409   C427    1.439   .     S
C409   O439    1.297   .     A
C410   C428    1.439   .     S
C410   O441    1.297   .     A
C410   O440    1.297   .     A
C411   N434    1.377   .     A
C411   O445    1.376   .     S
C412   N433    1.377   .     A
C412   O447    1.376   .     S
C412   C65     1.414   1_565 S
C413   O449    1.376   .     S
C413   N434    1.377   .     A
C414   O451    1.375   .     S
C414   N433    1.377   .     A
C414   C63     1.414   1_565 S
C415   H461    1.083   .     S
C415   C432    1.397   .     A
C416   C431    1.397   .     A
C416   H462    1.083   .     S
C416   C476    1.370   .     S
C417   H463    1.084   .     S
C417   C431    1.398   .     A
C417   C473    1.370   .     S
C418   H464    1.084   .     S
C418   C432    1.398   .     A
C419   C423    1.381   .     A
C419   C429    1.399   .     A
C419   H453    1.083   .     S
C420   C424    1.381   .     A
C420   C430    1.399   .     A
C420   H454    1.083   .     S
C421   C425    1.381   .     A
C421   C430    1.399   .     A
C421   H455    1.083   .     S
C422   C429    1.399   .     A
C422   C426    1.381   .     A
C422   H456    1.083   .     S
C423   H457    1.084   .     S
C423   C427    1.399   .     A
C424   H458    1.084   .     S
C424   C428    1.399   .     A
C425   H459    1.084   .     S
C425   C428    1.399   .     A
C426   C427    1.399   .     A
C426   H460    1.084   .     S
C429   C952    1.445   1_554 S
C430   C951    1.445   .     S
N433   Zn443   2.032   .     S
N434   Zn444   2.032   .     S
O435   Zn443   2.001   .     S
O436   Zn444   2.001   .     S
O437   Zn443   2.002   .     S
O438   Zn444   2.002   .     S
O439   Zn443   2.002   .     S
O440   Zn444   2.002   .     S
O441   Zn443   2.002   .     S
O442   Zn444   2.002   .     S
O445   H446    0.979   .     S
O447   H448    0.980   .     S
O449   H450    0.979   .     S
O451   H452    0.979   .     S
C465   O493    1.292   .     A
C465   C490    1.422   .     S
C465   O496    1.292   .     A
C466   C489    1.422   .     S
C466   O494    1.292   .     A
C466   O495    1.292   .     A
C467   O500    1.297   .     A
C467   C485    1.439   .     S
C467   O497    1.297   .     A
C468   C486    1.439   .     S
C468   O499    1.297   .     A
C468   O498    1.297   .     A
C469   N492    1.377   .     A
C469   O503    1.376   .     S
C470   N491    1.377   .     A
C470   O505    1.376   .     S
C470   C123    1.414   1_565 S
C471   O507    1.376   .     S
C471   N492    1.377   .     A
C472   O509    1.375   .     S
C472   N491    1.377   .     A
C472   C121    1.414   1_565 S
C473   H519    1.083   .     S
C473   C490    1.397   .     A
C474   C489    1.397   .     A
C474   H520    1.083   .     S
C474   C360    1.370   1_655 S
C475   H521    1.084   .     S
C475   C489    1.398   .     A
C475   C357    1.370   1_655 S
C476   H522    1.084   .     S
C476   C490    1.398   .     A
C477   C481    1.381   .     A
C477   C487    1.399   .     A
C477   H511    1.083   .     S
C478   C482    1.381   .     A
C478   C488    1.399   .     A
C478   H512    1.083   .     S
C479   C483    1.381   .     A
C479   C488    1.399   .     A
C479   H513    1.083   .     S
C480   C487    1.399   .     A
C480   C484    1.381   .     A
C480   H514    1.083   .     S
C481   H515    1.084   .     S
C481   C485    1.399   .     A
C482   H516    1.084   .     S
C482   C486    1.399   .     A
C483   H517    1.084   .     S
C483   C486    1.399   .     A
C484   C485    1.399   .     A
C484   H518    1.084   .     S
C487   C1010   1.445   1_554 S
C488   C1009   1.445   .     S
N491   Zn501   2.032   .     S
N492   Zn502   2.032   .     S
O493   Zn501   2.001   .     S
O494   Zn502   2.001   .     S
O495   Zn501   2.002   .     S
O496   Zn502   2.002   .     S
O497   Zn501   2.002   .     S
O498   Zn502   2.002   .     S
O499   Zn501   2.002   .     S
O500   Zn502   2.002   .     S
O503   H504    0.979   .     S
O505   H506    0.980   .     S
O507   H508    0.979   .     S
O509   H510    0.979   .     S
C523   O551    1.292   .     A
C523   C548    1.422   .     S
C523   O554    1.292   .     A
C524   C547    1.422   .     S
C524   O552    1.292   .     A
C524   O553    1.292   .     A
C525   O558    1.297   .     A
C525   C543    1.439   .     S
C525   O555    1.297   .     A
C526   C544    1.439   .     S
C526   O557    1.297   .     A
C526   O556    1.297   .     A
C527   N550    1.377   .     A
C527   O561    1.376   .     S
C527   C878    1.414   1_545 S
C528   N549    1.377   .     A
C528   O563    1.376   .     S
C528   C703    1.414   .     S
C529   O565    1.376   .     S
C529   N550    1.377   .     A
C529   C876    1.414   1_545 S
C530   O567    1.375   .     S
C530   N549    1.377   .     A
C530   C701    1.414   .     S
C531   H577    1.083   .     S
C531   C548    1.397   .     A
C531   C649    1.370   1_455 S
C532   C547    1.397   .     A
C532   H578    1.083   .     S
C532   C592    1.370   .     S
C533   H579    1.084   .     S
C533   C547    1.398   .     A
C533   C589    1.370   .     S
C534   H580    1.084   .     S
C534   C548    1.398   .     A
C534   C648    1.370   1_455 S
C535   C539    1.381   .     A
C535   C545    1.399   .     A
C535   H569    1.083   .     S
C536   C540    1.381   .     A
C536   C546    1.399   .     A
C536   H570    1.083   .     S
C537   C541    1.381   .     A
C537   C546    1.399   .     A
C537   H571    1.083   .     S
C538   C545    1.399   .     A
C538   C542    1.381   .     A
C538   H572    1.083   .     S
C539   H573    1.084   .     S
C539   C543    1.399   .     A
C540   H574    1.084   .     S
C540   C544    1.399   .     A
C541   H575    1.084   .     S
C541   C544    1.399   .     A
C542   C543    1.399   .     A
C542   H576    1.084   .     S
C546   C23     1.445   1_556 S
N549   Zn559   2.032   .     S
N550   Zn560   2.032   .     S
O551   Zn559   2.001   .     S
O552   Zn560   2.001   .     S
O553   Zn559   2.002   .     S
O554   Zn560   2.002   .     S
O555   Zn559   2.002   .     S
O556   Zn560   2.002   .     S
O557   Zn559   2.002   .     S
O558   Zn560   2.002   .     S
O561   H562    0.979   .     S
O563   H564    0.980   .     S
O565   H566    0.979   .     S
O567   H568    0.979   .     S
C581   O609    1.292   .     A
C581   C606    1.422   .     S
C581   O612    1.292   .     A
C582   C605    1.422   .     S
C582   O610    1.292   .     A
C582   O611    1.292   .     A
C583   O616    1.297   .     A
C583   C601    1.439   .     S
C583   O613    1.297   .     A
C584   C602    1.439   .     S
C584   O615    1.297   .     A
C584   O614    1.297   .     A
C585   N608    1.377   .     A
C585   O619    1.376   .     S
C585   C936    1.414   1_545 S
C586   N607    1.377   .     A
C586   O621    1.376   .     S
C586   C761    1.414   .     S
C587   O623    1.376   .     S
C587   N608    1.377   .     A
C587   C934    1.414   1_545 S
C588   O625    1.375   .     S
C588   N607    1.377   .     A
C588   C759    1.414   .     S
C589   H635    1.083   .     S
C589   C606    1.397   .     A
C590   C605    1.397   .     A
C590   H636    1.083   .     S
C590   C650    1.370   .     S
C591   H637    1.084   .     S
C591   C605    1.398   .     A
C591   C647    1.370   .     S
C592   H638    1.084   .     S
C592   C606    1.398   .     A
C593   C597    1.381   .     A
C593   C603    1.399   .     A
C593   H627    1.083   .     S
C594   C598    1.381   .     A
C594   C604    1.399   .     A
C594   H628    1.083   .     S
C595   C599    1.381   .     A
C595   C604    1.399   .     A
C595   H629    1.083   .     S
C596   C603    1.399   .     A
C596   C600    1.381   .     A
C596   H630    1.083   .     S
C597   H631    1.084   .     S
C597   C601    1.399   .     A
C598   H632    1.084   .     S
C598   C602    1.399   .     A
C599   H633    1.084   .     S
C599   C602    1.399   .     A
C600   C601    1.399   .     A
C600   H634    1.084   .     S
C604   C81     1.445   1_556 S
N607   Zn617   2.032   .     S
N608   Zn618   2.032   .     S
O609   Zn617   2.001   .     S
O610   Zn618   2.001   .     S
O611   Zn617   2.002   .     S
O612   Zn618   2.002   .     S
O613   Zn617   2.002   .     S
O614   Zn618   2.002   .     S
O615   Zn617   2.002   .     S
O616   Zn618   2.002   .     S
O619   H620    0.979   .     S
O621   H622    0.980   .     S
O623   H624    0.979   .     S
O625   H626    0.979   .     S
C639   O667    1.292   .     A
C639   C664    1.422   .     S
C639   O670    1.292   .     A
C640   C663    1.422   .     S
C640   O668    1.292   .     A
C640   O669    1.292   .     A
C641   O674    1.297   .     A
C641   C659    1.439   .     S
C641   O671    1.297   .     A
C642   C660    1.439   .     S
C642   O673    1.297   .     A
C642   O672    1.297   .     A
C643   N666    1.377   .     A
C643   O677    1.376   .     S
C643   C994    1.414   1_545 S
C644   N665    1.377   .     A
C644   O679    1.376   .     S
C644   C819    1.414   .     S
C645   O681    1.376   .     S
C645   N666    1.377   .     A
C645   C992    1.414   1_545 S
C646   O683    1.375   .     S
C646   N665    1.377   .     A
C646   C817    1.414   .     S
C647   H693    1.083   .     S
C647   C664    1.397   .     A
C648   C663    1.397   .     A
C648   H694    1.083   .     S
C648   C534    1.370   1_655 S
C649   H695    1.084   .     S
C649   C663    1.398   .     A
C649   C531    1.370   1_655 S
C650   H696    1.084   .     S
C650   C664    1.398   .     A
C651   C655    1.381   .     A
C651   C661    1.399   .     A
C651   H685    1.083   .     S
C652   C656    1.381   .     A
C652   C662    1.399   .     A
C652   H686    1.083   .     S
C653   C657    1.381   .     A
C653   C662    1.399   .     A
C653   H687    1.083   .     S
C654   C661    1.399   .     A
C654   C658    1.381   .     A
C654   H688    1.083   .     S
C655   H689    1.084   .     S
C655   C659    1.399   .     A
C656   H690    1.084   .     S
C656   C660    1.399   .     A
C657   H691    1.084   .     S
C657   C660    1.399   .     A
C658   C659    1.399   .     A
C658   H692    1.084   .     S
C662   C139    1.445   1_556 S
N665   Zn675   2.032   .     S
N666   Zn676   2.032   .     S
O667   Zn675   2.001   .     S
O668   Zn676   2.001   .     S
O669   Zn675   2.002   .     S
O670   Zn676   2.002   .     S
O671   Zn675   2.002   .     S
O672   Zn676   2.002   .     S
O673   Zn675   2.002   .     S
O674   Zn676   2.002   .     S
O677   H678    0.979   .     S
O679   H680    0.980   .     S
O681   H682    0.979   .     S
O683   H684    0.979   .     S
C697   O725    1.292   .     A
C697   C722    1.422   .     S
C697   O728    1.292   .     A
C698   C721    1.422   .     S
C698   O726    1.292   .     A
C698   O727    1.292   .     A
C699   O732    1.297   .     A
C699   C717    1.439   .     S
C699   O729    1.297   .     A
C700   C718    1.439   .     S
C700   O731    1.297   .     A
C700   O730    1.297   .     A
C701   N724    1.377   .     A
C701   O735    1.376   .     S
C702   N723    1.377   .     A
C702   O737    1.376   .     S
C702   C877    1.414   .     S
C703   O739    1.376   .     S
C703   N724    1.377   .     A
C704   O741    1.375   .     S
C704   N723    1.377   .     A
C704   C875    1.414   .     S
C705   H751    1.083   .     S
C705   C722    1.397   .     A
C705   C823    1.370   1_455 S
C706   C721    1.397   .     A
C706   H752    1.083   .     S
C706   C766    1.370   .     S
C707   H753    1.084   .     S
C707   C721    1.398   .     A
C707   C763    1.370   .     S
C708   H754    1.084   .     S
C708   C722    1.398   .     A
C708   C822    1.370   1_455 S
C709   C713    1.381   .     A
C709   C719    1.399   .     A
C709   H743    1.083   .     S
C710   C714    1.381   .     A
C710   C720    1.399   .     A
C710   H744    1.083   .     S
C711   C715    1.381   .     A
C711   C720    1.399   .     A
C711   H745    1.083   .     S
C712   C719    1.399   .     A
C712   C716    1.381   .     A
C712   H746    1.083   .     S
C713   H747    1.084   .     S
C713   C717    1.399   .     A
C714   H748    1.084   .     S
C714   C718    1.399   .     A
C715   H749    1.084   .     S
C715   C718    1.399   .     A
C716   C717    1.399   .     A
C716   H750    1.084   .     S
C720   C197    1.445   1_556 S
N723   Zn733   2.032   .     S
N724   Zn734   2.032   .     S
O725   Zn733   2.001   .     S
O726   Zn734   2.001   .     S
O727   Zn733   2.002   .     S
O728   Zn734   2.002   .     S
O729   Zn733   2.002   .     S
O730   Zn734   2.002   .     S
O731   Zn733   2.002   .     S
O732   Zn734   2.002   .     S
O735   H736    0.979   .     S
O737   H738    0.980   .     S
O739   H740    0.979   .     S
O741   H742    0.979   .     S
C755   O783    1.292   .     A
C755   C780    1.422   .     S
C755   O786    1.292   .     A
C756   C779    1.422   .     S
C756   O784    1.292   .     A
C756   O785    1.292   .     A
C757   O790    1.297   .     A
C757   C775    1.439   .     S
C757   O787    1.297   .     A
C758   C776    1.439   .     S
C758   O789    1.297   .     A
C758   O788    1.297   .     A
C759   N782    1.377   .     A
C759   O793    1.376   .     S
C760   N781    1.377   .     A
C760   O795    1.376   .     S
C760   C935    1.414   .     S
C761   O797    1.376   .     S
C761   N782    1.377   .     A
C762   O799    1.375   .     S
C762   N781    1.377   .     A
C762   C933    1.414   .     S
C763   H809    1.083   .     S
C763   C780    1.397   .     A
C764   C779    1.397   .     A
C764   H810    1.083   .     S
C764   C824    1.370   .     S
C765   H811    1.084   .     S
C765   C779    1.398   .     A
C765   C821    1.370   .     S
C766   H812    1.084   .     S
C766   C780    1.398   .     A
C767   C771    1.381   .     A
C767   C777    1.399   .     A
C767   H801    1.083   .     S
C768   C772    1.381   .     A
C768   C778    1.399   .     A
C768   H802    1.083   .     S
C769   C773    1.381   .     A
C769   C778    1.399   .     A
C769   H803    1.083   .     S
C770   C777    1.399   .     A
C770   C774    1.381   .     A
C770   H804    1.083   .     S
C771   H805    1.084   .     S
C771   C775    1.399   .     A
C772   H806    1.084   .     S
C772   C776    1.399   .     A
C773   H807    1.084   .     S
C773   C776    1.399   .     A
C774   C775    1.399   .     A
C774   H808    1.084   .     S
C778   C255    1.445   1_556 S
N781   Zn791   2.032   .     S
N782   Zn792   2.032   .     S
O783   Zn791   2.001   .     S
O784   Zn792   2.001   .     S
O785   Zn791   2.002   .     S
O786   Zn792   2.002   .     S
O787   Zn791   2.002   .     S
O788   Zn792   2.002   .     S
O789   Zn791   2.002   .     S
O790   Zn792   2.002   .     S
O793   H794    0.979   .     S
O795   H796    0.980   .     S
O797   H798    0.979   .     S
O799   H800    0.979   .     S
C813   O841    1.292   .     A
C813   C838    1.422   .     S
C813   O844    1.292   .     A
C814   C837    1.422   .     S
C814   O842    1.292   .     A
C814   O843    1.292   .     A
C815   O848    1.297   .     A
C815   C833    1.439   .     S
C815   O845    1.297   .     A
C816   C834    1.439   .     S
C816   O847    1.297   .     A
C816   O846    1.297   .     A
C817   N840    1.377   .     A
C817   O851    1.376   .     S
C818   N839    1.377   .     A
C818   O853    1.376   .     S
C818   C993    1.414   .     S
C819   O855    1.376   .     S
C819   N840    1.377   .     A
C820   O857    1.375   .     S
C820   N839    1.377   .     A
C820   C991    1.414   .     S
C821   H867    1.083   .     S
C821   C838    1.397   .     A
C822   C837    1.397   .     A
C822   H868    1.083   .     S
C822   C708    1.370   1_655 S
C823   H869    1.084   .     S
C823   C837    1.398   .     A
C823   C705    1.370   1_655 S
C824   H870    1.084   .     S
C824   C838    1.398   .     A
C825   C829    1.381   .     A
C825   C835    1.399   .     A
C825   H859    1.083   .     S
C826   C830    1.381   .     A
C826   C836    1.399   .     A
C826   H860    1.083   .     S
C827   C831    1.381   .     A
C827   C836    1.399   .     A
C827   H861    1.083   .     S
C828   C835    1.399   .     A
C828   C832    1.381   .     A
C828   H862    1.083   .     S
C829   H863    1.084   .     S
C829   C833    1.399   .     A
C830   H864    1.084   .     S
C830   C834    1.399   .     A
C831   H865    1.084   .     S
C831   C834    1.399   .     A
C832   C833    1.399   .     A
C832   H866    1.084   .     S
C836   C313    1.445   1_556 S
N839   Zn849   2.032   .     S
N840   Zn850   2.032   .     S
O841   Zn849   2.001   .     S
O842   Zn850   2.001   .     S
O843   Zn849   2.002   .     S
O844   Zn850   2.002   .     S
O845   Zn849   2.002   .     S
O846   Zn850   2.002   .     S
O847   Zn849   2.002   .     S
O848   Zn850   2.002   .     S
O851   H852    0.979   .     S
O853   H854    0.980   .     S
O855   H856    0.979   .     S
O857   H858    0.979   .     S
C871   O899    1.292   .     A
C871   C896    1.422   .     S
C871   O902    1.292   .     A
C872   C895    1.422   .     S
C872   O900    1.292   .     A
C872   O901    1.292   .     A
C873   O906    1.297   .     A
C873   C891    1.439   .     S
C873   O903    1.297   .     A
C874   C892    1.439   .     S
C874   O905    1.297   .     A
C874   O904    1.297   .     A
C875   N898    1.377   .     A
C875   O909    1.376   .     S
C876   N897    1.377   .     A
C876   O911    1.376   .     S
C876   C529    1.414   1_565 S
C877   O913    1.376   .     S
C877   N898    1.377   .     A
C878   O915    1.375   .     S
C878   N897    1.377   .     A
C878   C527    1.414   1_565 S
C879   H925    1.083   .     S
C879   C896    1.397   .     A
C879   C997    1.370   1_455 S
C880   C895    1.397   .     A
C880   H926    1.083   .     S
C880   C940    1.370   .     S
C881   H927    1.084   .     S
C881   C895    1.398   .     A
C881   C937    1.370   .     S
C882   H928    1.084   .     S
C882   C896    1.398   .     A
C882   C996    1.370   1_455 S
C883   C887    1.381   .     A
C883   C893    1.399   .     A
C883   H917    1.083   .     S
C884   C888    1.381   .     A
C884   C894    1.399   .     A
C884   H918    1.083   .     S
C885   C889    1.381   .     A
C885   C894    1.399   .     A
C885   H919    1.083   .     S
C886   C893    1.399   .     A
C886   C890    1.381   .     A
C886   H920    1.083   .     S
C887   H921    1.084   .     S
C887   C891    1.399   .     A
C888   H922    1.084   .     S
C888   C892    1.399   .     A
C889   H923    1.084   .     S
C889   C892    1.399   .     A
C890   C891    1.399   .     A
C890   H924    1.084   .     S
C894   C371    1.445   1_556 S
N897   Zn907   2.032   .     S
N898   Zn908   2.032   .     S
O899   Zn907   2.001   .     S
O900   Zn908   2.001   .     S
O901   Zn907   2.002   .     S
O902   Zn908   2.002   .     S
O903   Zn907   2.002   .     S
O904   Zn908   2.002   .     S
O905   Zn907   2.002   .     S
O906   Zn908   2.002   .     S
O909   H910    0.979   .     S
O911   H912    0.980   .     S
O913   H914    0.979   .     S
O915   H916    0.979   .     S
C929   O957    1.292   .     A
C929   C954    1.422   .     S
C929   O960    1.292   .     A
C930   C953    1.422   .     S
C930   O958    1.292   .     A
C930   O959    1.292   .     A
C931   O964    1.297   .     A
C931   C949    1.439   .     S
C931   O961    1.297   .     A
C932   C950    1.439   .     S
C932   O963    1.297   .     A
C932   O962    1.297   .     A
C933   N956    1.377   .     A
C933   O967    1.376   .     S
C934   N955    1.377   .     A
C934   O969    1.376   .     S
C934   C587    1.414   1_565 S
C935   O971    1.376   .     S
C935   N956    1.377   .     A
C936   O973    1.375   .     S
C936   N955    1.377   .     A
C936   C585    1.414   1_565 S
C937   H983    1.083   .     S
C937   C954    1.397   .     A
C938   C953    1.397   .     A
C938   H984    1.083   .     S
C938   C998    1.370   .     S
C939   H985    1.084   .     S
C939   C953    1.398   .     A
C939   C995    1.370   .     S
C940   H986    1.084   .     S
C940   C954    1.398   .     A
C941   C945    1.381   .     A
C941   C951    1.399   .     A
C941   H975    1.083   .     S
C942   C946    1.381   .     A
C942   C952    1.399   .     A
C942   H976    1.083   .     S
C943   C947    1.381   .     A
C943   C952    1.399   .     A
C943   H977    1.083   .     S
C944   C951    1.399   .     A
C944   C948    1.381   .     A
C944   H978    1.083   .     S
C945   H979    1.084   .     S
C945   C949    1.399   .     A
C946   H980    1.084   .     S
C946   C950    1.399   .     A
C947   H981    1.084   .     S
C947   C950    1.399   .     A
C948   C949    1.399   .     A
C948   H982    1.084   .     S
C952   C429    1.445   1_556 S
N955   Zn965   2.032   .     S
N956   Zn966   2.032   .     S
O957   Zn965   2.001   .     S
O958   Zn966   2.001   .     S
O959   Zn965   2.002   .     S
O960   Zn966   2.002   .     S
O961   Zn965   2.002   .     S
O962   Zn966   2.002   .     S
O963   Zn965   2.002   .     S
O964   Zn966   2.002   .     S
O967   H968    0.979   .     S
O969   H970    0.980   .     S
O971   H972    0.979   .     S
O973   H974    0.979   .     S
C987   O1015   1.292   .     A
C987   C1012   1.422   .     S
C987   O1018   1.292   .     A
C988   C1011   1.422   .     S
C988   O1016   1.292   .     A
C988   O1017   1.292   .     A
C989   O1022   1.297   .     A
C989   C1007   1.439   .     S
C989   O1019   1.297   .     A
C990   C1008   1.439   .     S
C990   O1021   1.297   .     A
C990   O1020   1.297   .     A
C991   N1014   1.377   .     A
C991   O1025   1.376   .     S
C992   N1013   1.377   .     A
C992   O1027   1.376   .     S
C992   C645    1.414   1_565 S
C993   O1029   1.376   .     S
C993   N1014   1.377   .     A
C994   O1031   1.375   .     S
C994   N1013   1.377   .     A
C994   C643    1.414   1_565 S
C995   H1041   1.083   .     S
C995   C1012   1.397   .     A
C996   C1011   1.397   .     A
C996   H1042   1.083   .     S
C996   C882    1.370   1_655 S
C997   H1043   1.084   .     S
C997   C1011   1.398   .     A
C997   C879    1.370   1_655 S
C998   H1044   1.084   .     S
C998   C1012   1.398   .     A
C999   C1003   1.381   .     A
C999   C1009   1.399   .     A
C999   H1033   1.083   .     S
C1000  C1004   1.381   .     A
C1000  C1010   1.399   .     A
C1000  H1034   1.083   .     S
C1001  C1005   1.381   .     A
C1001  C1010   1.399   .     A
C1001  H1035   1.083   .     S
C1002  C1009   1.399   .     A
C1002  C1006   1.381   .     A
C1002  H1036   1.083   .     S
C1003  H1037   1.084   .     S
C1003  C1007   1.399   .     A
C1004  H1038   1.084   .     S
C1004  C1008   1.399   .     A
C1005  H1039   1.084   .     S
C1005  C1008   1.399   .     A
C1006  C1007   1.399   .     A
C1006  H1040   1.084   .     S
C1010  C487    1.445   1_556 S
N1013  Zn1023  2.032   .     S
N1014  Zn1024  2.032   .     S
O1015  Zn1023  2.001   .     S
O1016  Zn1024  2.001   .     S
O1017  Zn1023  2.002   .     S
O1018  Zn1024  2.002   .     S
O1019  Zn1023  2.002   .     S
O1020  Zn1024  2.002   .     S
O1021  Zn1023  2.002   .     S
O1022  Zn1024  2.002   .     S
O1025  H1026   0.979   .     S
O1027  H1028   0.980   .     S
O1029  H1030   0.979   .     S
O1031  H1032   0.979   .     S
