data_str_m2_o1_o10_pcu_sym.210
_audit_creation_date              2020-01-03
_audit_creation_method            'Materials Studio'
_symmetry_space_group_name_H-M    'P1'
_symmetry_Int_Tables_number       1
_symmetry_cell_setting            triclinic
loop_
_symmetry_equiv_pos_as_xyz
  x,y,z
_cell_length_a                    26.1775
_cell_length_b                    32.4944
_cell_length_c                    28.8032
_cell_angle_alpha                 91.6592
_cell_angle_beta                  98.1654
_cell_angle_gamma                 93.1146
loop_
_atom_site_label
_atom_site_type_symbol
_atom_site_fract_x
_atom_site_fract_y
_atom_site_fract_z
_atom_site_U_iso_or_equiv
_atom_site_adp_type
_atom_site_occupancy
C1     C     0.16655   0.08760   0.16596   0.00000  Uiso   1.00
C2     C     0.16459   0.24592   0.16710   0.00000  Uiso   1.00
C3     C     0.06796   0.16482   0.15469   0.00000  Uiso   1.00
C4     C     0.26536   0.16621   0.17881   0.00000  Uiso   1.00
C5     C     0.01254   0.16033   0.14897   0.00000  Uiso   1.00
C6     C     0.32087   0.16672   0.18566   0.00000  Uiso   1.00
C7     C     0.13283   0.01954   0.13006   0.00000  Uiso   1.00
C8     C     0.18729   0.31527   0.20632   0.00000  Uiso   1.00
C9     C     0.13365   0.30970   0.12958   0.00000  Uiso   1.00
C10    C     0.19525   0.02439   0.20185   0.00000  Uiso   1.00
C11    C     0.16121   0.29080   0.16804   0.00000  Uiso   1.00
C12    C     0.16597   0.04309   0.16485   0.00000  Uiso   1.00
C13    C     0.12874   0.14468   0.01906   0.00000  Uiso   1.00
C14    C     0.20622   0.18690   0.31456   0.00000  Uiso   1.00
C15    C     0.12979   0.14359   0.30249   0.00000  Uiso   1.00
C16    C     0.20362   0.18969   0.03079   0.00000  Uiso   1.00
Cu17   Cu    0.16667   0.16667   0.21355   0.00000  Uiso   1.00
Cu18   Cu    0.16667   0.16666   0.11978   0.00000  Uiso   1.00
H19    H     0.32531   0.15144   0.11463   0.00000  Uiso   1.00
H20    H     0.00791   0.17391   0.22080   0.00000  Uiso   1.00
N21    N     0.16668   0.16668   0.28403   0.00000  Uiso   1.00
N22    N     0.16665   0.16666   0.04931   0.00000  Uiso   1.00
O23    O     0.16666   0.10655   0.20625   0.00000  Uiso   1.00
O24    O     0.16667   0.22678   0.12709   0.00000  Uiso   1.00
O25    O     0.16666   0.10654   0.12706   0.00000  Uiso   1.00
O26    O     0.16667   0.22679   0.20628   0.00000  Uiso   1.00
O27    O     0.09161   0.16667   0.19712   0.00000  Uiso   1.00
O28    O     0.24172   0.16666   0.13621   0.00000  Uiso   1.00
O29    O     0.09161   0.16666   0.11793   0.00000  Uiso   1.00
O30    O     0.24172   0.16667   0.21540   0.00000  Uiso   1.00
O31    O     0.10119   0.03864   0.09562   0.00000  Uiso   1.00
C32    C     0.05272   0.04259   0.11077   0.00000  Uiso   1.00
H33    H     0.02713   0.05762   0.08308   0.00000  Uiso   1.00
H34    H     0.05622   0.06245   0.14336   0.00000  Uiso   1.00
H35    H     0.03383   0.01192   0.11624   0.00000  Uiso   1.00
O36    O     0.20453   0.29826   0.24834   0.00000  Uiso   1.00
C37    C     0.16459   0.29834   0.27687   0.00000  Uiso   1.00
H38    H     0.14412   0.26743   0.27532   0.00000  Uiso   1.00
H39    H     0.13555   0.32190   0.26819   0.00000  Uiso   1.00
H40    H     0.18254   0.30512   0.31367   0.00000  Uiso   1.00
O41    O     0.10169   0.28570   0.09556   0.00000  Uiso   1.00
C42    C     0.12182   0.28752   0.05273   0.00000  Uiso   1.00
H43    H     0.10258   0.26214   0.02883   0.00000  Uiso   1.00
H44    H     0.16412   0.28313   0.05727   0.00000  Uiso   1.00
H45    H     0.11341   0.31699   0.03545   0.00000  Uiso   1.00
O46    O     0.23739   0.04678   0.22741   0.00000  Uiso   1.00
C47    C     0.23262   0.05083   0.27542   0.00000  Uiso   1.00
H48    H     0.19199   0.05165   0.28194   0.00000  Uiso   1.00
H49    H     0.25263   0.08050   0.28956   0.00000  Uiso   1.00
H50    H     0.25232   0.02589   0.29503   0.00000  Uiso   1.00
O51    O     0.08984   0.12294   0.03739   0.00000  Uiso   1.00
C52    C     0.04255   0.14146   0.02425   0.00000  Uiso   1.00
H53    H     0.02749   0.13615   0.31984   0.00000  Uiso   1.00
H54    H     0.04593   0.17520   0.03298   0.00000  Uiso   1.00
H55    H     0.01320   0.12690   0.04367   0.00000  Uiso   1.00
O56    O     0.25430   0.19254   0.30028   0.00000  Uiso   1.00
C57    C     0.26558   0.23392   0.29069   0.00000  Uiso   1.00
H58    H     0.30809   0.24021   0.29810   0.00000  Uiso   1.00
H59    H     0.24790   0.25626   0.31260   0.00000  Uiso   1.00
H60    H     0.25488   0.23863   0.25283   0.00000  Uiso   1.00
O61    O     0.09295   0.12047   0.27159   0.00000  Uiso   1.00
C62    C     0.09085   0.07823   0.28237   0.00000  Uiso   1.00
H63    H     0.09600   0.05964   0.25062   0.00000  Uiso   1.00
H64    H     0.05198   0.06929   0.29124   0.00000  Uiso   1.00
H65    H     0.12031   0.06957   0.31170   0.00000  Uiso   1.00
O66    O     0.23112   0.22098   0.05929   0.00000  Uiso   1.00
C67    C     0.28500   0.21729   0.06454   0.00000  Uiso   1.00
H68    H     0.30364   0.24267   0.04703   0.00000  Uiso   1.00
H69    H     0.29644   0.18709   0.05183   0.00000  Uiso   1.00
H70    H     0.30057   0.22215   0.10218   0.00000  Uiso   1.00
C71    C     0.49988   0.08760   0.16596   0.00000  Uiso   1.00
C72    C     0.49792   0.24592   0.16710   0.00000  Uiso   1.00
C73    C     0.40129   0.16482   0.15469   0.00000  Uiso   1.00
C74    C     0.59869   0.16621   0.17881   0.00000  Uiso   1.00
C75    C     0.34587   0.16033   0.14897   0.00000  Uiso   1.00
C76    C     0.65420   0.16672   0.18566   0.00000  Uiso   1.00
C77    C     0.46617   0.01954   0.13006   0.00000  Uiso   1.00
C78    C     0.52062   0.31527   0.20632   0.00000  Uiso   1.00
C79    C     0.46698   0.30970   0.12958   0.00000  Uiso   1.00
C80    C     0.52858   0.02439   0.20185   0.00000  Uiso   1.00
C81    C     0.49454   0.29080   0.16804   0.00000  Uiso   1.00
C82    C     0.49931   0.04309   0.16485   0.00000  Uiso   1.00
C83    C     0.46207   0.14468   0.01906   0.00000  Uiso   1.00
C84    C     0.53956   0.18690   0.31456   0.00000  Uiso   1.00
C85    C     0.46312   0.14359   0.30249   0.00000  Uiso   1.00
C86    C     0.53695   0.18969   0.03079   0.00000  Uiso   1.00
Cu87   Cu    0.50000   0.16667   0.21355   0.00000  Uiso   1.00
Cu88   Cu    0.50000   0.16666   0.11978   0.00000  Uiso   1.00
H89    H     0.65864   0.15144   0.11463   0.00000  Uiso   1.00
H90    H     0.34124   0.17391   0.22080   0.00000  Uiso   1.00
N91    N     0.50001   0.16668   0.28403   0.00000  Uiso   1.00
N92    N     0.49999   0.16666   0.04931   0.00000  Uiso   1.00
O93    O     0.50000   0.10655   0.20625   0.00000  Uiso   1.00
O94    O     0.50000   0.22678   0.12709   0.00000  Uiso   1.00
O95    O     0.50000   0.10654   0.12706   0.00000  Uiso   1.00
O96    O     0.50000   0.22679   0.20628   0.00000  Uiso   1.00
O97    O     0.42495   0.16667   0.19712   0.00000  Uiso   1.00
O98    O     0.57505   0.16666   0.13621   0.00000  Uiso   1.00
O99    O     0.42494   0.16666   0.11793   0.00000  Uiso   1.00
O100   O     0.57506   0.16667   0.21540   0.00000  Uiso   1.00
O101   O     0.43452   0.03864   0.09562   0.00000  Uiso   1.00
C102   C     0.38605   0.04259   0.11077   0.00000  Uiso   1.00
H103   H     0.36046   0.05762   0.08308   0.00000  Uiso   1.00
H104   H     0.38956   0.06245   0.14336   0.00000  Uiso   1.00
H105   H     0.36716   0.01192   0.11624   0.00000  Uiso   1.00
O106   O     0.53786   0.29826   0.24834   0.00000  Uiso   1.00
C107   C     0.49792   0.29834   0.27687   0.00000  Uiso   1.00
H108   H     0.47746   0.26743   0.27532   0.00000  Uiso   1.00
H109   H     0.46888   0.32190   0.26819   0.00000  Uiso   1.00
H110   H     0.51587   0.30512   0.31367   0.00000  Uiso   1.00
O111   O     0.43502   0.28570   0.09556   0.00000  Uiso   1.00
C112   C     0.45515   0.28752   0.05273   0.00000  Uiso   1.00
H113   H     0.43591   0.26214   0.02883   0.00000  Uiso   1.00
H114   H     0.49745   0.28313   0.05727   0.00000  Uiso   1.00
H115   H     0.44674   0.31699   0.03545   0.00000  Uiso   1.00
O116   O     0.57073   0.04678   0.22741   0.00000  Uiso   1.00
C117   C     0.56595   0.05083   0.27542   0.00000  Uiso   1.00
H118   H     0.52532   0.05165   0.28194   0.00000  Uiso   1.00
H119   H     0.58596   0.08050   0.28956   0.00000  Uiso   1.00
H120   H     0.58565   0.02589   0.29503   0.00000  Uiso   1.00
O121   O     0.42317   0.12294   0.03739   0.00000  Uiso   1.00
C122   C     0.37588   0.14146   0.02425   0.00000  Uiso   1.00
H123   H     0.36082   0.13615   0.31984   0.00000  Uiso   1.00
H124   H     0.37927   0.17520   0.03298   0.00000  Uiso   1.00
H125   H     0.34653   0.12690   0.04367   0.00000  Uiso   1.00
O126   O     0.58764   0.19254   0.30028   0.00000  Uiso   1.00
C127   C     0.59891   0.23392   0.29069   0.00000  Uiso   1.00
H128   H     0.64142   0.24021   0.29810   0.00000  Uiso   1.00
H129   H     0.58124   0.25626   0.31260   0.00000  Uiso   1.00
H130   H     0.58821   0.23863   0.25283   0.00000  Uiso   1.00
O131   O     0.42628   0.12047   0.27159   0.00000  Uiso   1.00
C132   C     0.42418   0.07823   0.28237   0.00000  Uiso   1.00
H133   H     0.42933   0.05964   0.25062   0.00000  Uiso   1.00
H134   H     0.38532   0.06929   0.29124   0.00000  Uiso   1.00
H135   H     0.45364   0.06957   0.31170   0.00000  Uiso   1.00
O136   O     0.56446   0.22098   0.05929   0.00000  Uiso   1.00
C137   C     0.61833   0.21729   0.06454   0.00000  Uiso   1.00
H138   H     0.63698   0.24267   0.04703   0.00000  Uiso   1.00
H139   H     0.62978   0.18709   0.05183   0.00000  Uiso   1.00
H140   H     0.63390   0.22215   0.10218   0.00000  Uiso   1.00
C141   C     0.83321   0.08760   0.16596   0.00000  Uiso   1.00
C142   C     0.83126   0.24592   0.16710   0.00000  Uiso   1.00
C143   C     0.73463   0.16482   0.15469   0.00000  Uiso   1.00
C144   C     0.93202   0.16621   0.17881   0.00000  Uiso   1.00
C145   C     0.67920   0.16033   0.14897   0.00000  Uiso   1.00
C146   C     0.98754   0.16672   0.18566   0.00000  Uiso   1.00
C147   C     0.79950   0.01954   0.13006   0.00000  Uiso   1.00
C148   C     0.85396   0.31527   0.20632   0.00000  Uiso   1.00
C149   C     0.80032   0.30970   0.12958   0.00000  Uiso   1.00
C150   C     0.86192   0.02439   0.20185   0.00000  Uiso   1.00
C151   C     0.82788   0.29080   0.16804   0.00000  Uiso   1.00
C152   C     0.83264   0.04309   0.16485   0.00000  Uiso   1.00
C153   C     0.79540   0.14468   0.01906   0.00000  Uiso   1.00
C154   C     0.87289   0.18690   0.31456   0.00000  Uiso   1.00
C155   C     0.79646   0.14359   0.30249   0.00000  Uiso   1.00
C156   C     0.87029   0.18969   0.03079   0.00000  Uiso   1.00
Cu157  Cu    0.83333   0.16667   0.21355   0.00000  Uiso   1.00
Cu158  Cu    0.83333   0.16666   0.11978   0.00000  Uiso   1.00
H159   H     0.99198   0.15144   0.11463   0.00000  Uiso   1.00
H160   H     0.67457   0.17391   0.22080   0.00000  Uiso   1.00
N161   N     0.83335   0.16668   0.28403   0.00000  Uiso   1.00
N162   N     0.83332   0.16666   0.04931   0.00000  Uiso   1.00
O163   O     0.83333   0.10655   0.20625   0.00000  Uiso   1.00
O164   O     0.83334   0.22678   0.12709   0.00000  Uiso   1.00
O165   O     0.83333   0.10654   0.12706   0.00000  Uiso   1.00
O166   O     0.83334   0.22679   0.20628   0.00000  Uiso   1.00
O167   O     0.75828   0.16667   0.19712   0.00000  Uiso   1.00
O168   O     0.90839   0.16666   0.13621   0.00000  Uiso   1.00
O169   O     0.75828   0.16666   0.11793   0.00000  Uiso   1.00
O170   O     0.90839   0.16667   0.21540   0.00000  Uiso   1.00
O171   O     0.76786   0.03864   0.09562   0.00000  Uiso   1.00
C172   C     0.71939   0.04259   0.11077   0.00000  Uiso   1.00
H173   H     0.69380   0.05762   0.08308   0.00000  Uiso   1.00
H174   H     0.72289   0.06245   0.14336   0.00000  Uiso   1.00
H175   H     0.70049   0.01192   0.11624   0.00000  Uiso   1.00
O176   O     0.87119   0.29826   0.24834   0.00000  Uiso   1.00
C177   C     0.83125   0.29834   0.27687   0.00000  Uiso   1.00
H178   H     0.81079   0.26743   0.27532   0.00000  Uiso   1.00
H179   H     0.80221   0.32190   0.26819   0.00000  Uiso   1.00
H180   H     0.84921   0.30512   0.31367   0.00000  Uiso   1.00
O181   O     0.76836   0.28570   0.09556   0.00000  Uiso   1.00
C182   C     0.78848   0.28752   0.05273   0.00000  Uiso   1.00
H183   H     0.76924   0.26214   0.02883   0.00000  Uiso   1.00
H184   H     0.83079   0.28313   0.05727   0.00000  Uiso   1.00
H185   H     0.78007   0.31699   0.03545   0.00000  Uiso   1.00
O186   O     0.90406   0.04678   0.22741   0.00000  Uiso   1.00
C187   C     0.89928   0.05083   0.27542   0.00000  Uiso   1.00
H188   H     0.85866   0.05165   0.28194   0.00000  Uiso   1.00
H189   H     0.91930   0.08050   0.28956   0.00000  Uiso   1.00
H190   H     0.91898   0.02589   0.29503   0.00000  Uiso   1.00
O191   O     0.75651   0.12294   0.03739   0.00000  Uiso   1.00
C192   C     0.70921   0.14146   0.02425   0.00000  Uiso   1.00
H193   H     0.69415   0.13615   0.31984   0.00000  Uiso   1.00
H194   H     0.71260   0.17520   0.03298   0.00000  Uiso   1.00
H195   H     0.67986   0.12690   0.04367   0.00000  Uiso   1.00
O196   O     0.92097   0.19254   0.30028   0.00000  Uiso   1.00
C197   C     0.93225   0.23392   0.29069   0.00000  Uiso   1.00
H198   H     0.97475   0.24021   0.29810   0.00000  Uiso   1.00
H199   H     0.91457   0.25626   0.31260   0.00000  Uiso   1.00
H200   H     0.92155   0.23863   0.25283   0.00000  Uiso   1.00
O201   O     0.75961   0.12047   0.27159   0.00000  Uiso   1.00
C202   C     0.75752   0.07823   0.28237   0.00000  Uiso   1.00
H203   H     0.76266   0.05964   0.25062   0.00000  Uiso   1.00
H204   H     0.71865   0.06929   0.29124   0.00000  Uiso   1.00
H205   H     0.78698   0.06957   0.31170   0.00000  Uiso   1.00
O206   O     0.89779   0.22098   0.05929   0.00000  Uiso   1.00
C207   C     0.95166   0.21729   0.06454   0.00000  Uiso   1.00
H208   H     0.97031   0.24267   0.04703   0.00000  Uiso   1.00
H209   H     0.96311   0.18709   0.05183   0.00000  Uiso   1.00
H210   H     0.96723   0.22215   0.10218   0.00000  Uiso   1.00
C211   C     0.16655   0.42093   0.16596   0.00000  Uiso   1.00
C212   C     0.16459   0.57925   0.16710   0.00000  Uiso   1.00
C213   C     0.06796   0.49815   0.15469   0.00000  Uiso   1.00
C214   C     0.26536   0.49955   0.17881   0.00000  Uiso   1.00
C215   C     0.01254   0.49367   0.14897   0.00000  Uiso   1.00
C216   C     0.32087   0.50006   0.18566   0.00000  Uiso   1.00
C217   C     0.13283   0.35287   0.13006   0.00000  Uiso   1.00
C218   C     0.18729   0.64861   0.20632   0.00000  Uiso   1.00
C219   C     0.13365   0.64303   0.12958   0.00000  Uiso   1.00
C220   C     0.19525   0.35772   0.20185   0.00000  Uiso   1.00
C221   C     0.16121   0.62413   0.16804   0.00000  Uiso   1.00
C222   C     0.16597   0.37643   0.16485   0.00000  Uiso   1.00
C223   C     0.12874   0.47801   0.01906   0.00000  Uiso   1.00
C224   C     0.20622   0.52023   0.31456   0.00000  Uiso   1.00
C225   C     0.12979   0.47693   0.30249   0.00000  Uiso   1.00
C226   C     0.20362   0.52302   0.03079   0.00000  Uiso   1.00
Cu227  Cu    0.16667   0.50001   0.21355   0.00000  Uiso   1.00
Cu228  Cu    0.16667   0.49999   0.11978   0.00000  Uiso   1.00
H229   H     0.32531   0.48477   0.11463   0.00000  Uiso   1.00
H230   H     0.00791   0.50725   0.22080   0.00000  Uiso   1.00
N231   N     0.16668   0.50001   0.28403   0.00000  Uiso   1.00
N232   N     0.16665   0.49999   0.04931   0.00000  Uiso   1.00
O233   O     0.16666   0.43989   0.20625   0.00000  Uiso   1.00
O234   O     0.16667   0.56011   0.12709   0.00000  Uiso   1.00
O235   O     0.16666   0.43988   0.12706   0.00000  Uiso   1.00
O236   O     0.16667   0.56012   0.20628   0.00000  Uiso   1.00
O237   O     0.09161   0.50000   0.19712   0.00000  Uiso   1.00
O238   O     0.24172   0.50000   0.13621   0.00000  Uiso   1.00
O239   O     0.09161   0.49999   0.11793   0.00000  Uiso   1.00
O240   O     0.24172   0.50001   0.21540   0.00000  Uiso   1.00
O241   O     0.10119   0.37197   0.09562   0.00000  Uiso   1.00
C242   C     0.05272   0.37592   0.11077   0.00000  Uiso   1.00
H243   H     0.02713   0.39095   0.08308   0.00000  Uiso   1.00
H244   H     0.05622   0.39579   0.14336   0.00000  Uiso   1.00
H245   H     0.03383   0.34526   0.11624   0.00000  Uiso   1.00
O246   O     0.20453   0.63160   0.24834   0.00000  Uiso   1.00
C247   C     0.16459   0.63168   0.27687   0.00000  Uiso   1.00
H248   H     0.14412   0.60076   0.27532   0.00000  Uiso   1.00
H249   H     0.13555   0.65523   0.26819   0.00000  Uiso   1.00
H250   H     0.18254   0.63845   0.31367   0.00000  Uiso   1.00
O251   O     0.10169   0.61903   0.09556   0.00000  Uiso   1.00
C252   C     0.12182   0.62085   0.05273   0.00000  Uiso   1.00
H253   H     0.10258   0.59547   0.02883   0.00000  Uiso   1.00
H254   H     0.16412   0.61646   0.05727   0.00000  Uiso   1.00
H255   H     0.11341   0.65032   0.03545   0.00000  Uiso   1.00
O256   O     0.23739   0.38011   0.22741   0.00000  Uiso   1.00
C257   C     0.23262   0.38416   0.27542   0.00000  Uiso   1.00
H258   H     0.19199   0.38498   0.28194   0.00000  Uiso   1.00
H259   H     0.25263   0.41383   0.28956   0.00000  Uiso   1.00
H260   H     0.25232   0.35922   0.29503   0.00000  Uiso   1.00
O261   O     0.08984   0.45627   0.03739   0.00000  Uiso   1.00
C262   C     0.04255   0.47479   0.02425   0.00000  Uiso   1.00
H263   H     0.02749   0.46948   0.31984   0.00000  Uiso   1.00
H264   H     0.04593   0.50853   0.03298   0.00000  Uiso   1.00
H265   H     0.01320   0.46024   0.04367   0.00000  Uiso   1.00
O266   O     0.25430   0.52587   0.30028   0.00000  Uiso   1.00
C267   C     0.26558   0.56725   0.29069   0.00000  Uiso   1.00
H268   H     0.30809   0.57354   0.29810   0.00000  Uiso   1.00
H269   H     0.24790   0.58960   0.31260   0.00000  Uiso   1.00
H270   H     0.25488   0.57197   0.25283   0.00000  Uiso   1.00
O271   O     0.09295   0.45381   0.27159   0.00000  Uiso   1.00
C272   C     0.09085   0.41156   0.28237   0.00000  Uiso   1.00
H273   H     0.09600   0.39297   0.25062   0.00000  Uiso   1.00
H274   H     0.05198   0.40262   0.29124   0.00000  Uiso   1.00
H275   H     0.12031   0.40290   0.31170   0.00000  Uiso   1.00
O276   O     0.23112   0.55431   0.05929   0.00000  Uiso   1.00
C277   C     0.28500   0.55062   0.06454   0.00000  Uiso   1.00
H278   H     0.30364   0.57600   0.04703   0.00000  Uiso   1.00
H279   H     0.29644   0.52042   0.05183   0.00000  Uiso   1.00
H280   H     0.30057   0.55548   0.10218   0.00000  Uiso   1.00
C281   C     0.49988   0.42093   0.16596   0.00000  Uiso   1.00
C282   C     0.49792   0.57925   0.16710   0.00000  Uiso   1.00
C283   C     0.40129   0.49815   0.15469   0.00000  Uiso   1.00
C284   C     0.59869   0.49955   0.17881   0.00000  Uiso   1.00
C285   C     0.34587   0.49367   0.14897   0.00000  Uiso   1.00
C286   C     0.65420   0.50006   0.18566   0.00000  Uiso   1.00
C287   C     0.46617   0.35287   0.13006   0.00000  Uiso   1.00
C288   C     0.52062   0.64861   0.20632   0.00000  Uiso   1.00
C289   C     0.46698   0.64303   0.12958   0.00000  Uiso   1.00
C290   C     0.52858   0.35772   0.20185   0.00000  Uiso   1.00
C291   C     0.49454   0.62413   0.16804   0.00000  Uiso   1.00
C292   C     0.49931   0.37643   0.16485   0.00000  Uiso   1.00
C293   C     0.46207   0.47801   0.01906   0.00000  Uiso   1.00
C294   C     0.53956   0.52023   0.31456   0.00000  Uiso   1.00
C295   C     0.46312   0.47693   0.30249   0.00000  Uiso   1.00
C296   C     0.53695   0.52302   0.03079   0.00000  Uiso   1.00
Cu297  Cu    0.50000   0.50001   0.21355   0.00000  Uiso   1.00
Cu298  Cu    0.50000   0.49999   0.11978   0.00000  Uiso   1.00
H299   H     0.65864   0.48477   0.11463   0.00000  Uiso   1.00
H300   H     0.34124   0.50725   0.22080   0.00000  Uiso   1.00
N301   N     0.50001   0.50001   0.28403   0.00000  Uiso   1.00
N302   N     0.49999   0.49999   0.04931   0.00000  Uiso   1.00
O303   O     0.50000   0.43989   0.20625   0.00000  Uiso   1.00
O304   O     0.50000   0.56011   0.12709   0.00000  Uiso   1.00
O305   O     0.50000   0.43988   0.12706   0.00000  Uiso   1.00
O306   O     0.50000   0.56012   0.20628   0.00000  Uiso   1.00
O307   O     0.42495   0.50000   0.19712   0.00000  Uiso   1.00
O308   O     0.57505   0.50000   0.13621   0.00000  Uiso   1.00
O309   O     0.42494   0.49999   0.11793   0.00000  Uiso   1.00
O310   O     0.57506   0.50001   0.21540   0.00000  Uiso   1.00
O311   O     0.43452   0.37197   0.09562   0.00000  Uiso   1.00
C312   C     0.38605   0.37592   0.11077   0.00000  Uiso   1.00
H313   H     0.36046   0.39095   0.08308   0.00000  Uiso   1.00
H314   H     0.38956   0.39579   0.14336   0.00000  Uiso   1.00
H315   H     0.36716   0.34526   0.11624   0.00000  Uiso   1.00
O316   O     0.53786   0.63160   0.24834   0.00000  Uiso   1.00
C317   C     0.49792   0.63168   0.27687   0.00000  Uiso   1.00
H318   H     0.47746   0.60076   0.27532   0.00000  Uiso   1.00
H319   H     0.46888   0.65523   0.26819   0.00000  Uiso   1.00
H320   H     0.51587   0.63845   0.31367   0.00000  Uiso   1.00
O321   O     0.43502   0.61903   0.09556   0.00000  Uiso   1.00
C322   C     0.45515   0.62085   0.05273   0.00000  Uiso   1.00
H323   H     0.43591   0.59547   0.02883   0.00000  Uiso   1.00
H324   H     0.49745   0.61646   0.05727   0.00000  Uiso   1.00
H325   H     0.44674   0.65032   0.03545   0.00000  Uiso   1.00
O326   O     0.57073   0.38011   0.22741   0.00000  Uiso   1.00
C327   C     0.56595   0.38416   0.27542   0.00000  Uiso   1.00
H328   H     0.52532   0.38498   0.28194   0.00000  Uiso   1.00
H329   H     0.58596   0.41383   0.28956   0.00000  Uiso   1.00
H330   H     0.58565   0.35922   0.29503   0.00000  Uiso   1.00
O331   O     0.42317   0.45627   0.03739   0.00000  Uiso   1.00
C332   C     0.37588   0.47479   0.02425   0.00000  Uiso   1.00
H333   H     0.36082   0.46948   0.31984   0.00000  Uiso   1.00
H334   H     0.37927   0.50853   0.03298   0.00000  Uiso   1.00
H335   H     0.34653   0.46024   0.04367   0.00000  Uiso   1.00
O336   O     0.58764   0.52587   0.30028   0.00000  Uiso   1.00
C337   C     0.59891   0.56725   0.29069   0.00000  Uiso   1.00
H338   H     0.64142   0.57354   0.29810   0.00000  Uiso   1.00
H339   H     0.58124   0.58960   0.31260   0.00000  Uiso   1.00
H340   H     0.58821   0.57197   0.25283   0.00000  Uiso   1.00
O341   O     0.42628   0.45381   0.27159   0.00000  Uiso   1.00
C342   C     0.42418   0.41156   0.28237   0.00000  Uiso   1.00
H343   H     0.42933   0.39297   0.25062   0.00000  Uiso   1.00
H344   H     0.38532   0.40262   0.29124   0.00000  Uiso   1.00
H345   H     0.45364   0.40290   0.31170   0.00000  Uiso   1.00
O346   O     0.56446   0.55431   0.05929   0.00000  Uiso   1.00
C347   C     0.61833   0.55062   0.06454   0.00000  Uiso   1.00
H348   H     0.63698   0.57600   0.04703   0.00000  Uiso   1.00
H349   H     0.62978   0.52042   0.05183   0.00000  Uiso   1.00
H350   H     0.63390   0.55548   0.10218   0.00000  Uiso   1.00
C351   C     0.83321   0.42093   0.16596   0.00000  Uiso   1.00
C352   C     0.83126   0.57925   0.16710   0.00000  Uiso   1.00
C353   C     0.73463   0.49815   0.15469   0.00000  Uiso   1.00
C354   C     0.93202   0.49955   0.17881   0.00000  Uiso   1.00
C355   C     0.67920   0.49367   0.14897   0.00000  Uiso   1.00
C356   C     0.98754   0.50006   0.18566   0.00000  Uiso   1.00
C357   C     0.79950   0.35287   0.13006   0.00000  Uiso   1.00
C358   C     0.85396   0.64861   0.20632   0.00000  Uiso   1.00
C359   C     0.80032   0.64303   0.12958   0.00000  Uiso   1.00
C360   C     0.86192   0.35772   0.20185   0.00000  Uiso   1.00
C361   C     0.82788   0.62413   0.16804   0.00000  Uiso   1.00
C362   C     0.83264   0.37643   0.16485   0.00000  Uiso   1.00
C363   C     0.79540   0.47801   0.01906   0.00000  Uiso   1.00
C364   C     0.87289   0.52023   0.31456   0.00000  Uiso   1.00
C365   C     0.79646   0.47693   0.30249   0.00000  Uiso   1.00
C366   C     0.87029   0.52302   0.03079   0.00000  Uiso   1.00
Cu367  Cu    0.83333   0.50001   0.21355   0.00000  Uiso   1.00
Cu368  Cu    0.83333   0.49999   0.11978   0.00000  Uiso   1.00
H369   H     0.99198   0.48477   0.11463   0.00000  Uiso   1.00
H370   H     0.67457   0.50725   0.22080   0.00000  Uiso   1.00
N371   N     0.83335   0.50001   0.28403   0.00000  Uiso   1.00
N372   N     0.83332   0.49999   0.04931   0.00000  Uiso   1.00
O373   O     0.83333   0.43989   0.20625   0.00000  Uiso   1.00
O374   O     0.83334   0.56011   0.12709   0.00000  Uiso   1.00
O375   O     0.83333   0.43988   0.12706   0.00000  Uiso   1.00
O376   O     0.83334   0.56012   0.20628   0.00000  Uiso   1.00
O377   O     0.75828   0.50000   0.19712   0.00000  Uiso   1.00
O378   O     0.90839   0.50000   0.13621   0.00000  Uiso   1.00
O379   O     0.75828   0.49999   0.11793   0.00000  Uiso   1.00
O380   O     0.90839   0.50001   0.21540   0.00000  Uiso   1.00
O381   O     0.76786   0.37197   0.09562   0.00000  Uiso   1.00
C382   C     0.71939   0.37592   0.11077   0.00000  Uiso   1.00
H383   H     0.69380   0.39095   0.08308   0.00000  Uiso   1.00
H384   H     0.72289   0.39579   0.14336   0.00000  Uiso   1.00
H385   H     0.70049   0.34526   0.11624   0.00000  Uiso   1.00
O386   O     0.87119   0.63160   0.24834   0.00000  Uiso   1.00
C387   C     0.83125   0.63168   0.27687   0.00000  Uiso   1.00
H388   H     0.81079   0.60076   0.27532   0.00000  Uiso   1.00
H389   H     0.80221   0.65523   0.26819   0.00000  Uiso   1.00
H390   H     0.84921   0.63845   0.31367   0.00000  Uiso   1.00
O391   O     0.76836   0.61903   0.09556   0.00000  Uiso   1.00
C392   C     0.78848   0.62085   0.05273   0.00000  Uiso   1.00
H393   H     0.76924   0.59547   0.02883   0.00000  Uiso   1.00
H394   H     0.83079   0.61646   0.05727   0.00000  Uiso   1.00
H395   H     0.78007   0.65032   0.03545   0.00000  Uiso   1.00
O396   O     0.90406   0.38011   0.22741   0.00000  Uiso   1.00
C397   C     0.89928   0.38416   0.27542   0.00000  Uiso   1.00
H398   H     0.85866   0.38498   0.28194   0.00000  Uiso   1.00
H399   H     0.91930   0.41383   0.28956   0.00000  Uiso   1.00
H400   H     0.91898   0.35922   0.29503   0.00000  Uiso   1.00
O401   O     0.75651   0.45627   0.03739   0.00000  Uiso   1.00
C402   C     0.70921   0.47479   0.02425   0.00000  Uiso   1.00
H403   H     0.69415   0.46948   0.31984   0.00000  Uiso   1.00
H404   H     0.71260   0.50853   0.03298   0.00000  Uiso   1.00
H405   H     0.67986   0.46024   0.04367   0.00000  Uiso   1.00
O406   O     0.92097   0.52587   0.30028   0.00000  Uiso   1.00
C407   C     0.93225   0.56725   0.29069   0.00000  Uiso   1.00
H408   H     0.97475   0.57354   0.29810   0.00000  Uiso   1.00
H409   H     0.91457   0.58960   0.31260   0.00000  Uiso   1.00
H410   H     0.92155   0.57197   0.25283   0.00000  Uiso   1.00
O411   O     0.75961   0.45381   0.27159   0.00000  Uiso   1.00
C412   C     0.75752   0.41156   0.28237   0.00000  Uiso   1.00
H413   H     0.76266   0.39297   0.25062   0.00000  Uiso   1.00
H414   H     0.71865   0.40262   0.29124   0.00000  Uiso   1.00
H415   H     0.78698   0.40290   0.31170   0.00000  Uiso   1.00
O416   O     0.89779   0.55431   0.05929   0.00000  Uiso   1.00
C417   C     0.95166   0.55062   0.06454   0.00000  Uiso   1.00
H418   H     0.97031   0.57600   0.04703   0.00000  Uiso   1.00
H419   H     0.96311   0.52042   0.05183   0.00000  Uiso   1.00
H420   H     0.96723   0.55548   0.10218   0.00000  Uiso   1.00
C421   C     0.16655   0.75426   0.16596   0.00000  Uiso   1.00
C422   C     0.16459   0.91258   0.16710   0.00000  Uiso   1.00
C423   C     0.06796   0.83149   0.15469   0.00000  Uiso   1.00
C424   C     0.26536   0.83288   0.17881   0.00000  Uiso   1.00
C425   C     0.01254   0.82700   0.14897   0.00000  Uiso   1.00
C426   C     0.32087   0.83339   0.18566   0.00000  Uiso   1.00
C427   C     0.13283   0.68621   0.13006   0.00000  Uiso   1.00
C428   C     0.18729   0.98194   0.20632   0.00000  Uiso   1.00
C429   C     0.13365   0.97636   0.12958   0.00000  Uiso   1.00
C430   C     0.19525   0.69106   0.20185   0.00000  Uiso   1.00
C431   C     0.16121   0.95747   0.16804   0.00000  Uiso   1.00
C432   C     0.16597   0.70976   0.16485   0.00000  Uiso   1.00
C433   C     0.12874   0.81135   0.01906   0.00000  Uiso   1.00
C434   C     0.20622   0.85356   0.31456   0.00000  Uiso   1.00
C435   C     0.12979   0.81026   0.30249   0.00000  Uiso   1.00
C436   C     0.20362   0.85635   0.03079   0.00000  Uiso   1.00
Cu437  Cu    0.16667   0.83334   0.21355   0.00000  Uiso   1.00
Cu438  Cu    0.16667   0.83333   0.11978   0.00000  Uiso   1.00
H439   H     0.32531   0.81810   0.11463   0.00000  Uiso   1.00
H440   H     0.00791   0.84058   0.22080   0.00000  Uiso   1.00
N441   N     0.16668   0.83334   0.28403   0.00000  Uiso   1.00
N442   N     0.16665   0.83332   0.04931   0.00000  Uiso   1.00
O443   O     0.16666   0.77322   0.20625   0.00000  Uiso   1.00
O444   O     0.16667   0.89345   0.12709   0.00000  Uiso   1.00
O445   O     0.16666   0.77321   0.12706   0.00000  Uiso   1.00
O446   O     0.16667   0.89346   0.20628   0.00000  Uiso   1.00
O447   O     0.09161   0.83334   0.19712   0.00000  Uiso   1.00
O448   O     0.24172   0.83333   0.13621   0.00000  Uiso   1.00
O449   O     0.09161   0.83333   0.11793   0.00000  Uiso   1.00
O450   O     0.24172   0.83334   0.21540   0.00000  Uiso   1.00
O451   O     0.10119   0.70530   0.09562   0.00000  Uiso   1.00
C452   C     0.05272   0.70925   0.11077   0.00000  Uiso   1.00
H453   H     0.02713   0.72429   0.08308   0.00000  Uiso   1.00
H454   H     0.05622   0.72912   0.14336   0.00000  Uiso   1.00
H455   H     0.03383   0.67859   0.11624   0.00000  Uiso   1.00
O456   O     0.20453   0.96493   0.24834   0.00000  Uiso   1.00
C457   C     0.16459   0.96501   0.27687   0.00000  Uiso   1.00
H458   H     0.14412   0.93410   0.27532   0.00000  Uiso   1.00
H459   H     0.13555   0.98857   0.26819   0.00000  Uiso   1.00
H460   H     0.18254   0.97178   0.31367   0.00000  Uiso   1.00
O461   O     0.10169   0.95236   0.09556   0.00000  Uiso   1.00
C462   C     0.12182   0.95418   0.05273   0.00000  Uiso   1.00
H463   H     0.10258   0.92881   0.02883   0.00000  Uiso   1.00
H464   H     0.16412   0.94979   0.05727   0.00000  Uiso   1.00
H465   H     0.11341   0.98365   0.03545   0.00000  Uiso   1.00
O466   O     0.23739   0.71344   0.22741   0.00000  Uiso   1.00
C467   C     0.23262   0.71750   0.27542   0.00000  Uiso   1.00
H468   H     0.19199   0.71831   0.28194   0.00000  Uiso   1.00
H469   H     0.25263   0.74716   0.28956   0.00000  Uiso   1.00
H470   H     0.25232   0.69255   0.29503   0.00000  Uiso   1.00
O471   O     0.08984   0.78961   0.03739   0.00000  Uiso   1.00
C472   C     0.04255   0.80813   0.02425   0.00000  Uiso   1.00
H473   H     0.02749   0.80281   0.31984   0.00000  Uiso   1.00
H474   H     0.04593   0.84187   0.03298   0.00000  Uiso   1.00
H475   H     0.01320   0.79357   0.04367   0.00000  Uiso   1.00
O476   O     0.25430   0.85921   0.30028   0.00000  Uiso   1.00
C477   C     0.26558   0.90058   0.29069   0.00000  Uiso   1.00
H478   H     0.30809   0.90687   0.29810   0.00000  Uiso   1.00
H479   H     0.24790   0.92293   0.31260   0.00000  Uiso   1.00
H480   H     0.25488   0.90530   0.25283   0.00000  Uiso   1.00
O481   O     0.09295   0.78714   0.27159   0.00000  Uiso   1.00
C482   C     0.09085   0.74489   0.28237   0.00000  Uiso   1.00
H483   H     0.09600   0.72631   0.25062   0.00000  Uiso   1.00
H484   H     0.05198   0.73595   0.29124   0.00000  Uiso   1.00
H485   H     0.12031   0.73623   0.31170   0.00000  Uiso   1.00
O486   O     0.23112   0.88765   0.05929   0.00000  Uiso   1.00
C487   C     0.28500   0.88395   0.06454   0.00000  Uiso   1.00
H488   H     0.30364   0.90934   0.04703   0.00000  Uiso   1.00
H489   H     0.29644   0.85375   0.05183   0.00000  Uiso   1.00
H490   H     0.30057   0.88882   0.10218   0.00000  Uiso   1.00
C491   C     0.49988   0.75426   0.16596   0.00000  Uiso   1.00
C492   C     0.49792   0.91258   0.16710   0.00000  Uiso   1.00
C493   C     0.40129   0.83149   0.15469   0.00000  Uiso   1.00
C494   C     0.59869   0.83288   0.17881   0.00000  Uiso   1.00
C495   C     0.34587   0.82700   0.14897   0.00000  Uiso   1.00
C496   C     0.65420   0.83339   0.18566   0.00000  Uiso   1.00
C497   C     0.46617   0.68621   0.13006   0.00000  Uiso   1.00
C498   C     0.52062   0.98194   0.20632   0.00000  Uiso   1.00
C499   C     0.46698   0.97636   0.12958   0.00000  Uiso   1.00
C500   C     0.52858   0.69106   0.20185   0.00000  Uiso   1.00
C501   C     0.49454   0.95747   0.16804   0.00000  Uiso   1.00
C502   C     0.49931   0.70976   0.16485   0.00000  Uiso   1.00
C503   C     0.46207   0.81135   0.01906   0.00000  Uiso   1.00
C504   C     0.53956   0.85356   0.31456   0.00000  Uiso   1.00
C505   C     0.46312   0.81026   0.30249   0.00000  Uiso   1.00
C506   C     0.53695   0.85635   0.03079   0.00000  Uiso   1.00
Cu507  Cu    0.50000   0.83334   0.21355   0.00000  Uiso   1.00
Cu508  Cu    0.50000   0.83333   0.11978   0.00000  Uiso   1.00
H509   H     0.65864   0.81810   0.11463   0.00000  Uiso   1.00
H510   H     0.34124   0.84058   0.22080   0.00000  Uiso   1.00
N511   N     0.50001   0.83334   0.28403   0.00000  Uiso   1.00
N512   N     0.49999   0.83332   0.04931   0.00000  Uiso   1.00
O513   O     0.50000   0.77322   0.20625   0.00000  Uiso   1.00
O514   O     0.50000   0.89345   0.12709   0.00000  Uiso   1.00
O515   O     0.50000   0.77321   0.12706   0.00000  Uiso   1.00
O516   O     0.50000   0.89346   0.20628   0.00000  Uiso   1.00
O517   O     0.42495   0.83334   0.19712   0.00000  Uiso   1.00
O518   O     0.57505   0.83333   0.13621   0.00000  Uiso   1.00
O519   O     0.42494   0.83333   0.11793   0.00000  Uiso   1.00
O520   O     0.57506   0.83334   0.21540   0.00000  Uiso   1.00
O521   O     0.43452   0.70530   0.09562   0.00000  Uiso   1.00
C522   C     0.38605   0.70925   0.11077   0.00000  Uiso   1.00
H523   H     0.36046   0.72429   0.08308   0.00000  Uiso   1.00
H524   H     0.38956   0.72912   0.14336   0.00000  Uiso   1.00
H525   H     0.36716   0.67859   0.11624   0.00000  Uiso   1.00
O526   O     0.53786   0.96493   0.24834   0.00000  Uiso   1.00
C527   C     0.49792   0.96501   0.27687   0.00000  Uiso   1.00
H528   H     0.47746   0.93410   0.27532   0.00000  Uiso   1.00
H529   H     0.46888   0.98857   0.26819   0.00000  Uiso   1.00
H530   H     0.51587   0.97178   0.31367   0.00000  Uiso   1.00
O531   O     0.43502   0.95236   0.09556   0.00000  Uiso   1.00
C532   C     0.45515   0.95418   0.05273   0.00000  Uiso   1.00
H533   H     0.43591   0.92881   0.02883   0.00000  Uiso   1.00
H534   H     0.49745   0.94979   0.05727   0.00000  Uiso   1.00
H535   H     0.44674   0.98365   0.03545   0.00000  Uiso   1.00
O536   O     0.57073   0.71344   0.22741   0.00000  Uiso   1.00
C537   C     0.56595   0.71750   0.27542   0.00000  Uiso   1.00
H538   H     0.52532   0.71831   0.28194   0.00000  Uiso   1.00
H539   H     0.58596   0.74716   0.28956   0.00000  Uiso   1.00
H540   H     0.58565   0.69255   0.29503   0.00000  Uiso   1.00
O541   O     0.42317   0.78961   0.03739   0.00000  Uiso   1.00
C542   C     0.37588   0.80813   0.02425   0.00000  Uiso   1.00
H543   H     0.36082   0.80281   0.31984   0.00000  Uiso   1.00
H544   H     0.37927   0.84187   0.03298   0.00000  Uiso   1.00
H545   H     0.34653   0.79357   0.04367   0.00000  Uiso   1.00
O546   O     0.58764   0.85921   0.30028   0.00000  Uiso   1.00
C547   C     0.59891   0.90058   0.29069   0.00000  Uiso   1.00
H548   H     0.64142   0.90687   0.29810   0.00000  Uiso   1.00
H549   H     0.58124   0.92293   0.31260   0.00000  Uiso   1.00
H550   H     0.58821   0.90530   0.25283   0.00000  Uiso   1.00
O551   O     0.42628   0.78714   0.27159   0.00000  Uiso   1.00
C552   C     0.42418   0.74489   0.28237   0.00000  Uiso   1.00
H553   H     0.42933   0.72631   0.25062   0.00000  Uiso   1.00
H554   H     0.38532   0.73595   0.29124   0.00000  Uiso   1.00
H555   H     0.45364   0.73623   0.31170   0.00000  Uiso   1.00
O556   O     0.56446   0.88765   0.05929   0.00000  Uiso   1.00
C557   C     0.61833   0.88395   0.06454   0.00000  Uiso   1.00
H558   H     0.63698   0.90934   0.04703   0.00000  Uiso   1.00
H559   H     0.62978   0.85375   0.05183   0.00000  Uiso   1.00
H560   H     0.63390   0.88882   0.10218   0.00000  Uiso   1.00
C561   C     0.83321   0.75426   0.16596   0.00000  Uiso   1.00
C562   C     0.83126   0.91258   0.16710   0.00000  Uiso   1.00
C563   C     0.73463   0.83149   0.15469   0.00000  Uiso   1.00
C564   C     0.93202   0.83288   0.17881   0.00000  Uiso   1.00
C565   C     0.67920   0.82700   0.14897   0.00000  Uiso   1.00
C566   C     0.98754   0.83339   0.18566   0.00000  Uiso   1.00
C567   C     0.79950   0.68621   0.13006   0.00000  Uiso   1.00
C568   C     0.85396   0.98194   0.20632   0.00000  Uiso   1.00
C569   C     0.80032   0.97636   0.12958   0.00000  Uiso   1.00
C570   C     0.86192   0.69106   0.20185   0.00000  Uiso   1.00
C571   C     0.82788   0.95747   0.16804   0.00000  Uiso   1.00
C572   C     0.83264   0.70976   0.16485   0.00000  Uiso   1.00
C573   C     0.79540   0.81135   0.01906   0.00000  Uiso   1.00
C574   C     0.87289   0.85356   0.31456   0.00000  Uiso   1.00
C575   C     0.79646   0.81026   0.30249   0.00000  Uiso   1.00
C576   C     0.87029   0.85635   0.03079   0.00000  Uiso   1.00
Cu577  Cu    0.83333   0.83334   0.21355   0.00000  Uiso   1.00
Cu578  Cu    0.83333   0.83333   0.11978   0.00000  Uiso   1.00
H579   H     0.99198   0.81810   0.11463   0.00000  Uiso   1.00
H580   H     0.67457   0.84058   0.22080   0.00000  Uiso   1.00
N581   N     0.83335   0.83334   0.28403   0.00000  Uiso   1.00
N582   N     0.83332   0.83332   0.04931   0.00000  Uiso   1.00
O583   O     0.83333   0.77322   0.20625   0.00000  Uiso   1.00
O584   O     0.83334   0.89345   0.12709   0.00000  Uiso   1.00
O585   O     0.83333   0.77321   0.12706   0.00000  Uiso   1.00
O586   O     0.83334   0.89346   0.20628   0.00000  Uiso   1.00
O587   O     0.75828   0.83334   0.19712   0.00000  Uiso   1.00
O588   O     0.90839   0.83333   0.13621   0.00000  Uiso   1.00
O589   O     0.75828   0.83333   0.11793   0.00000  Uiso   1.00
O590   O     0.90839   0.83334   0.21540   0.00000  Uiso   1.00
O591   O     0.76786   0.70530   0.09562   0.00000  Uiso   1.00
C592   C     0.71939   0.70925   0.11077   0.00000  Uiso   1.00
H593   H     0.69380   0.72429   0.08308   0.00000  Uiso   1.00
H594   H     0.72289   0.72912   0.14336   0.00000  Uiso   1.00
H595   H     0.70049   0.67859   0.11624   0.00000  Uiso   1.00
O596   O     0.87119   0.96493   0.24834   0.00000  Uiso   1.00
C597   C     0.83125   0.96501   0.27687   0.00000  Uiso   1.00
H598   H     0.81079   0.93410   0.27532   0.00000  Uiso   1.00
H599   H     0.80221   0.98857   0.26819   0.00000  Uiso   1.00
H600   H     0.84921   0.97178   0.31367   0.00000  Uiso   1.00
O601   O     0.76836   0.95236   0.09556   0.00000  Uiso   1.00
C602   C     0.78848   0.95418   0.05273   0.00000  Uiso   1.00
H603   H     0.76924   0.92881   0.02883   0.00000  Uiso   1.00
H604   H     0.83079   0.94979   0.05727   0.00000  Uiso   1.00
H605   H     0.78007   0.98365   0.03545   0.00000  Uiso   1.00
O606   O     0.90406   0.71344   0.22741   0.00000  Uiso   1.00
C607   C     0.89928   0.71750   0.27542   0.00000  Uiso   1.00
H608   H     0.85866   0.71831   0.28194   0.00000  Uiso   1.00
H609   H     0.91930   0.74716   0.28956   0.00000  Uiso   1.00
H610   H     0.91898   0.69255   0.29503   0.00000  Uiso   1.00
O611   O     0.75651   0.78961   0.03739   0.00000  Uiso   1.00
C612   C     0.70921   0.80813   0.02425   0.00000  Uiso   1.00
H613   H     0.69415   0.80281   0.31984   0.00000  Uiso   1.00
H614   H     0.71260   0.84187   0.03298   0.00000  Uiso   1.00
H615   H     0.67986   0.79357   0.04367   0.00000  Uiso   1.00
O616   O     0.92097   0.85921   0.30028   0.00000  Uiso   1.00
C617   C     0.93225   0.90058   0.29069   0.00000  Uiso   1.00
H618   H     0.97475   0.90687   0.29810   0.00000  Uiso   1.00
H619   H     0.91457   0.92293   0.31260   0.00000  Uiso   1.00
H620   H     0.92155   0.90530   0.25283   0.00000  Uiso   1.00
O621   O     0.75961   0.78714   0.27159   0.00000  Uiso   1.00
C622   C     0.75752   0.74489   0.28237   0.00000  Uiso   1.00
H623   H     0.76266   0.72631   0.25062   0.00000  Uiso   1.00
H624   H     0.71865   0.73595   0.29124   0.00000  Uiso   1.00
H625   H     0.78698   0.73623   0.31170   0.00000  Uiso   1.00
O626   O     0.89779   0.88765   0.05929   0.00000  Uiso   1.00
C627   C     0.95166   0.88395   0.06454   0.00000  Uiso   1.00
H628   H     0.97031   0.90934   0.04703   0.00000  Uiso   1.00
H629   H     0.96311   0.85375   0.05183   0.00000  Uiso   1.00
H630   H     0.96723   0.88882   0.10218   0.00000  Uiso   1.00
C631   C     0.16655   0.08760   0.49930   0.00000  Uiso   1.00
C632   C     0.16459   0.24592   0.50043   0.00000  Uiso   1.00
C633   C     0.06796   0.16482   0.48802   0.00000  Uiso   1.00
C634   C     0.26536   0.16621   0.51214   0.00000  Uiso   1.00
C635   C     0.01254   0.16033   0.48230   0.00000  Uiso   1.00
C636   C     0.32087   0.16672   0.51900   0.00000  Uiso   1.00
C637   C     0.13283   0.01954   0.46339   0.00000  Uiso   1.00
C638   C     0.18729   0.31527   0.53965   0.00000  Uiso   1.00
C639   C     0.13365   0.30970   0.46291   0.00000  Uiso   1.00
C640   C     0.19525   0.02439   0.53519   0.00000  Uiso   1.00
C641   C     0.16121   0.29080   0.50138   0.00000  Uiso   1.00
C642   C     0.16597   0.04309   0.49818   0.00000  Uiso   1.00
C643   C     0.12874   0.14468   0.35239   0.00000  Uiso   1.00
C644   C     0.20622   0.18690   0.64790   0.00000  Uiso   1.00
C645   C     0.12979   0.14359   0.63583   0.00000  Uiso   1.00
C646   C     0.20362   0.18969   0.36412   0.00000  Uiso   1.00
Cu647  Cu    0.16667   0.16667   0.54689   0.00000  Uiso   1.00
Cu648  Cu    0.16667   0.16666   0.45311   0.00000  Uiso   1.00
H649   H     0.32531   0.15144   0.44796   0.00000  Uiso   1.00
H650   H     0.00791   0.17391   0.55413   0.00000  Uiso   1.00
N651   N     0.16668   0.16668   0.61736   0.00000  Uiso   1.00
N652   N     0.16665   0.16666   0.38264   0.00000  Uiso   1.00
O653   O     0.16666   0.10655   0.53958   0.00000  Uiso   1.00
O654   O     0.16667   0.22678   0.46042   0.00000  Uiso   1.00
O655   O     0.16666   0.10654   0.46039   0.00000  Uiso   1.00
O656   O     0.16667   0.22679   0.53961   0.00000  Uiso   1.00
O657   O     0.09161   0.16667   0.53046   0.00000  Uiso   1.00
O658   O     0.24172   0.16666   0.46954   0.00000  Uiso   1.00
O659   O     0.09161   0.16666   0.45127   0.00000  Uiso   1.00
O660   O     0.24172   0.16667   0.54873   0.00000  Uiso   1.00
O661   O     0.10119   0.03864   0.42896   0.00000  Uiso   1.00
C662   C     0.05272   0.04259   0.44410   0.00000  Uiso   1.00
H663   H     0.02713   0.05762   0.41642   0.00000  Uiso   1.00
H664   H     0.05622   0.06245   0.47669   0.00000  Uiso   1.00
H665   H     0.03383   0.01192   0.44957   0.00000  Uiso   1.00
O666   O     0.20453   0.29826   0.58167   0.00000  Uiso   1.00
C667   C     0.16459   0.29834   0.61021   0.00000  Uiso   1.00
H668   H     0.14412   0.26743   0.60866   0.00000  Uiso   1.00
H669   H     0.13555   0.32190   0.60153   0.00000  Uiso   1.00
H670   H     0.18254   0.30512   0.64700   0.00000  Uiso   1.00
O671   O     0.10169   0.28570   0.42889   0.00000  Uiso   1.00
C672   C     0.12182   0.28752   0.38606   0.00000  Uiso   1.00
H673   H     0.10258   0.26214   0.36216   0.00000  Uiso   1.00
H674   H     0.16412   0.28313   0.39060   0.00000  Uiso   1.00
H675   H     0.11341   0.31699   0.36878   0.00000  Uiso   1.00
O676   O     0.23739   0.04678   0.56075   0.00000  Uiso   1.00
C677   C     0.23262   0.05083   0.60876   0.00000  Uiso   1.00
H678   H     0.19199   0.05165   0.61527   0.00000  Uiso   1.00
H679   H     0.25263   0.08050   0.62289   0.00000  Uiso   1.00
H680   H     0.25232   0.02589   0.62836   0.00000  Uiso   1.00
O681   O     0.08984   0.12294   0.37073   0.00000  Uiso   1.00
C682   C     0.04255   0.14146   0.35758   0.00000  Uiso   1.00
H683   H     0.02749   0.13615   0.65317   0.00000  Uiso   1.00
H684   H     0.04593   0.17520   0.36632   0.00000  Uiso   1.00
H685   H     0.01320   0.12690   0.37701   0.00000  Uiso   1.00
O686   O     0.25430   0.19254   0.63362   0.00000  Uiso   1.00
C687   C     0.26558   0.23392   0.62402   0.00000  Uiso   1.00
H688   H     0.30809   0.24021   0.63143   0.00000  Uiso   1.00
H689   H     0.24790   0.25626   0.64593   0.00000  Uiso   1.00
H690   H     0.25488   0.23863   0.58617   0.00000  Uiso   1.00
O691   O     0.09295   0.12047   0.60492   0.00000  Uiso   1.00
C692   C     0.09085   0.07823   0.61570   0.00000  Uiso   1.00
H693   H     0.09600   0.05964   0.58396   0.00000  Uiso   1.00
H694   H     0.05198   0.06929   0.62457   0.00000  Uiso   1.00
H695   H     0.12031   0.06957   0.64504   0.00000  Uiso   1.00
O696   O     0.23112   0.22098   0.39263   0.00000  Uiso   1.00
C697   C     0.28500   0.21729   0.39788   0.00000  Uiso   1.00
H698   H     0.30364   0.24267   0.38037   0.00000  Uiso   1.00
H699   H     0.29644   0.18709   0.38516   0.00000  Uiso   1.00
H700   H     0.30057   0.22215   0.43551   0.00000  Uiso   1.00
C701   C     0.49988   0.08760   0.49930   0.00000  Uiso   1.00
C702   C     0.49792   0.24592   0.50043   0.00000  Uiso   1.00
C703   C     0.40129   0.16482   0.48802   0.00000  Uiso   1.00
C704   C     0.59869   0.16621   0.51214   0.00000  Uiso   1.00
C705   C     0.34587   0.16033   0.48230   0.00000  Uiso   1.00
C706   C     0.65420   0.16672   0.51900   0.00000  Uiso   1.00
C707   C     0.46617   0.01954   0.46339   0.00000  Uiso   1.00
C708   C     0.52062   0.31527   0.53965   0.00000  Uiso   1.00
C709   C     0.46698   0.30970   0.46291   0.00000  Uiso   1.00
C710   C     0.52858   0.02439   0.53519   0.00000  Uiso   1.00
C711   C     0.49454   0.29080   0.50138   0.00000  Uiso   1.00
C712   C     0.49931   0.04309   0.49818   0.00000  Uiso   1.00
C713   C     0.46207   0.14468   0.35239   0.00000  Uiso   1.00
C714   C     0.53956   0.18690   0.64790   0.00000  Uiso   1.00
C715   C     0.46312   0.14359   0.63583   0.00000  Uiso   1.00
C716   C     0.53695   0.18969   0.36412   0.00000  Uiso   1.00
Cu717  Cu    0.50000   0.16667   0.54689   0.00000  Uiso   1.00
Cu718  Cu    0.50000   0.16666   0.45311   0.00000  Uiso   1.00
H719   H     0.65864   0.15144   0.44796   0.00000  Uiso   1.00
H720   H     0.34124   0.17391   0.55413   0.00000  Uiso   1.00
N721   N     0.50001   0.16668   0.61736   0.00000  Uiso   1.00
N722   N     0.49999   0.16666   0.38264   0.00000  Uiso   1.00
O723   O     0.50000   0.10655   0.53958   0.00000  Uiso   1.00
O724   O     0.50000   0.22678   0.46042   0.00000  Uiso   1.00
O725   O     0.50000   0.10654   0.46039   0.00000  Uiso   1.00
O726   O     0.50000   0.22679   0.53961   0.00000  Uiso   1.00
O727   O     0.42495   0.16667   0.53046   0.00000  Uiso   1.00
O728   O     0.57505   0.16666   0.46954   0.00000  Uiso   1.00
O729   O     0.42494   0.16666   0.45127   0.00000  Uiso   1.00
O730   O     0.57506   0.16667   0.54873   0.00000  Uiso   1.00
O731   O     0.43452   0.03864   0.42896   0.00000  Uiso   1.00
C732   C     0.38605   0.04259   0.44410   0.00000  Uiso   1.00
H733   H     0.36046   0.05762   0.41642   0.00000  Uiso   1.00
H734   H     0.38956   0.06245   0.47669   0.00000  Uiso   1.00
H735   H     0.36716   0.01192   0.44957   0.00000  Uiso   1.00
O736   O     0.53786   0.29826   0.58167   0.00000  Uiso   1.00
C737   C     0.49792   0.29834   0.61021   0.00000  Uiso   1.00
H738   H     0.47746   0.26743   0.60866   0.00000  Uiso   1.00
H739   H     0.46888   0.32190   0.60153   0.00000  Uiso   1.00
H740   H     0.51587   0.30512   0.64700   0.00000  Uiso   1.00
O741   O     0.43502   0.28570   0.42889   0.00000  Uiso   1.00
C742   C     0.45515   0.28752   0.38606   0.00000  Uiso   1.00
H743   H     0.43591   0.26214   0.36216   0.00000  Uiso   1.00
H744   H     0.49745   0.28313   0.39060   0.00000  Uiso   1.00
H745   H     0.44674   0.31699   0.36878   0.00000  Uiso   1.00
O746   O     0.57073   0.04678   0.56075   0.00000  Uiso   1.00
C747   C     0.56595   0.05083   0.60876   0.00000  Uiso   1.00
H748   H     0.52532   0.05165   0.61527   0.00000  Uiso   1.00
H749   H     0.58596   0.08050   0.62289   0.00000  Uiso   1.00
H750   H     0.58565   0.02589   0.62836   0.00000  Uiso   1.00
O751   O     0.42317   0.12294   0.37073   0.00000  Uiso   1.00
C752   C     0.37588   0.14146   0.35758   0.00000  Uiso   1.00
H753   H     0.36082   0.13615   0.65317   0.00000  Uiso   1.00
H754   H     0.37927   0.17520   0.36632   0.00000  Uiso   1.00
H755   H     0.34653   0.12690   0.37701   0.00000  Uiso   1.00
O756   O     0.58764   0.19254   0.63362   0.00000  Uiso   1.00
C757   C     0.59891   0.23392   0.62402   0.00000  Uiso   1.00
H758   H     0.64142   0.24021   0.63143   0.00000  Uiso   1.00
H759   H     0.58124   0.25626   0.64593   0.00000  Uiso   1.00
H760   H     0.58821   0.23863   0.58617   0.00000  Uiso   1.00
O761   O     0.42628   0.12047   0.60492   0.00000  Uiso   1.00
C762   C     0.42418   0.07823   0.61570   0.00000  Uiso   1.00
H763   H     0.42933   0.05964   0.58396   0.00000  Uiso   1.00
H764   H     0.38532   0.06929   0.62457   0.00000  Uiso   1.00
H765   H     0.45364   0.06957   0.64504   0.00000  Uiso   1.00
O766   O     0.56446   0.22098   0.39263   0.00000  Uiso   1.00
C767   C     0.61833   0.21729   0.39788   0.00000  Uiso   1.00
H768   H     0.63698   0.24267   0.38037   0.00000  Uiso   1.00
H769   H     0.62978   0.18709   0.38516   0.00000  Uiso   1.00
H770   H     0.63390   0.22215   0.43551   0.00000  Uiso   1.00
C771   C     0.83321   0.08760   0.49930   0.00000  Uiso   1.00
C772   C     0.83126   0.24592   0.50043   0.00000  Uiso   1.00
C773   C     0.73463   0.16482   0.48802   0.00000  Uiso   1.00
C774   C     0.93202   0.16621   0.51214   0.00000  Uiso   1.00
C775   C     0.67920   0.16033   0.48230   0.00000  Uiso   1.00
C776   C     0.98754   0.16672   0.51900   0.00000  Uiso   1.00
C777   C     0.79950   0.01954   0.46339   0.00000  Uiso   1.00
C778   C     0.85396   0.31527   0.53965   0.00000  Uiso   1.00
C779   C     0.80032   0.30970   0.46291   0.00000  Uiso   1.00
C780   C     0.86192   0.02439   0.53519   0.00000  Uiso   1.00
C781   C     0.82788   0.29080   0.50138   0.00000  Uiso   1.00
C782   C     0.83264   0.04309   0.49818   0.00000  Uiso   1.00
C783   C     0.79540   0.14468   0.35239   0.00000  Uiso   1.00
C784   C     0.87289   0.18690   0.64790   0.00000  Uiso   1.00
C785   C     0.79646   0.14359   0.63583   0.00000  Uiso   1.00
C786   C     0.87029   0.18969   0.36412   0.00000  Uiso   1.00
Cu787  Cu    0.83333   0.16667   0.54689   0.00000  Uiso   1.00
Cu788  Cu    0.83333   0.16666   0.45311   0.00000  Uiso   1.00
H789   H     0.99198   0.15144   0.44796   0.00000  Uiso   1.00
H790   H     0.67457   0.17391   0.55413   0.00000  Uiso   1.00
N791   N     0.83335   0.16668   0.61736   0.00000  Uiso   1.00
N792   N     0.83332   0.16666   0.38264   0.00000  Uiso   1.00
O793   O     0.83333   0.10655   0.53958   0.00000  Uiso   1.00
O794   O     0.83334   0.22678   0.46042   0.00000  Uiso   1.00
O795   O     0.83333   0.10654   0.46039   0.00000  Uiso   1.00
O796   O     0.83334   0.22679   0.53961   0.00000  Uiso   1.00
O797   O     0.75828   0.16667   0.53046   0.00000  Uiso   1.00
O798   O     0.90839   0.16666   0.46954   0.00000  Uiso   1.00
O799   O     0.75828   0.16666   0.45127   0.00000  Uiso   1.00
O800   O     0.90839   0.16667   0.54873   0.00000  Uiso   1.00
O801   O     0.76786   0.03864   0.42896   0.00000  Uiso   1.00
C802   C     0.71939   0.04259   0.44410   0.00000  Uiso   1.00
H803   H     0.69380   0.05762   0.41642   0.00000  Uiso   1.00
H804   H     0.72289   0.06245   0.47669   0.00000  Uiso   1.00
H805   H     0.70049   0.01192   0.44957   0.00000  Uiso   1.00
O806   O     0.87119   0.29826   0.58167   0.00000  Uiso   1.00
C807   C     0.83125   0.29834   0.61021   0.00000  Uiso   1.00
H808   H     0.81079   0.26743   0.60866   0.00000  Uiso   1.00
H809   H     0.80221   0.32190   0.60153   0.00000  Uiso   1.00
H810   H     0.84921   0.30512   0.64700   0.00000  Uiso   1.00
O811   O     0.76836   0.28570   0.42889   0.00000  Uiso   1.00
C812   C     0.78848   0.28752   0.38606   0.00000  Uiso   1.00
H813   H     0.76924   0.26214   0.36216   0.00000  Uiso   1.00
H814   H     0.83079   0.28313   0.39060   0.00000  Uiso   1.00
H815   H     0.78007   0.31699   0.36878   0.00000  Uiso   1.00
O816   O     0.90406   0.04678   0.56075   0.00000  Uiso   1.00
C817   C     0.89928   0.05083   0.60876   0.00000  Uiso   1.00
H818   H     0.85866   0.05165   0.61527   0.00000  Uiso   1.00
H819   H     0.91930   0.08050   0.62289   0.00000  Uiso   1.00
H820   H     0.91898   0.02589   0.62836   0.00000  Uiso   1.00
O821   O     0.75651   0.12294   0.37073   0.00000  Uiso   1.00
C822   C     0.70921   0.14146   0.35758   0.00000  Uiso   1.00
H823   H     0.69415   0.13615   0.65317   0.00000  Uiso   1.00
H824   H     0.71260   0.17520   0.36632   0.00000  Uiso   1.00
H825   H     0.67986   0.12690   0.37701   0.00000  Uiso   1.00
O826   O     0.92097   0.19254   0.63362   0.00000  Uiso   1.00
C827   C     0.93225   0.23392   0.62402   0.00000  Uiso   1.00
H828   H     0.97475   0.24021   0.63143   0.00000  Uiso   1.00
H829   H     0.91457   0.25626   0.64593   0.00000  Uiso   1.00
H830   H     0.92155   0.23863   0.58617   0.00000  Uiso   1.00
O831   O     0.75961   0.12047   0.60492   0.00000  Uiso   1.00
C832   C     0.75752   0.07823   0.61570   0.00000  Uiso   1.00
H833   H     0.76266   0.05964   0.58396   0.00000  Uiso   1.00
H834   H     0.71865   0.06929   0.62457   0.00000  Uiso   1.00
H835   H     0.78698   0.06957   0.64504   0.00000  Uiso   1.00
O836   O     0.89779   0.22098   0.39263   0.00000  Uiso   1.00
C837   C     0.95166   0.21729   0.39788   0.00000  Uiso   1.00
H838   H     0.97031   0.24267   0.38037   0.00000  Uiso   1.00
H839   H     0.96311   0.18709   0.38516   0.00000  Uiso   1.00
H840   H     0.96723   0.22215   0.43551   0.00000  Uiso   1.00
C841   C     0.16655   0.42093   0.49930   0.00000  Uiso   1.00
C842   C     0.16459   0.57925   0.50043   0.00000  Uiso   1.00
C843   C     0.06796   0.49815   0.48802   0.00000  Uiso   1.00
C844   C     0.26536   0.49955   0.51214   0.00000  Uiso   1.00
C845   C     0.01254   0.49367   0.48230   0.00000  Uiso   1.00
C846   C     0.32087   0.50006   0.51900   0.00000  Uiso   1.00
C847   C     0.13283   0.35287   0.46339   0.00000  Uiso   1.00
C848   C     0.18729   0.64861   0.53965   0.00000  Uiso   1.00
C849   C     0.13365   0.64303   0.46291   0.00000  Uiso   1.00
C850   C     0.19525   0.35772   0.53519   0.00000  Uiso   1.00
C851   C     0.16121   0.62413   0.50138   0.00000  Uiso   1.00
C852   C     0.16597   0.37643   0.49818   0.00000  Uiso   1.00
C853   C     0.12874   0.47801   0.35239   0.00000  Uiso   1.00
C854   C     0.20622   0.52023   0.64790   0.00000  Uiso   1.00
C855   C     0.12979   0.47693   0.63583   0.00000  Uiso   1.00
C856   C     0.20362   0.52302   0.36412   0.00000  Uiso   1.00
Cu857  Cu    0.16667   0.50001   0.54689   0.00000  Uiso   1.00
Cu858  Cu    0.16667   0.49999   0.45311   0.00000  Uiso   1.00
H859   H     0.32531   0.48477   0.44796   0.00000  Uiso   1.00
H860   H     0.00791   0.50725   0.55413   0.00000  Uiso   1.00
N861   N     0.16668   0.50001   0.61736   0.00000  Uiso   1.00
N862   N     0.16665   0.49999   0.38264   0.00000  Uiso   1.00
O863   O     0.16666   0.43989   0.53958   0.00000  Uiso   1.00
O864   O     0.16667   0.56011   0.46042   0.00000  Uiso   1.00
O865   O     0.16666   0.43988   0.46039   0.00000  Uiso   1.00
O866   O     0.16667   0.56012   0.53961   0.00000  Uiso   1.00
O867   O     0.09161   0.50000   0.53046   0.00000  Uiso   1.00
O868   O     0.24172   0.50000   0.46954   0.00000  Uiso   1.00
O869   O     0.09161   0.49999   0.45127   0.00000  Uiso   1.00
O870   O     0.24172   0.50001   0.54873   0.00000  Uiso   1.00
O871   O     0.10119   0.37197   0.42896   0.00000  Uiso   1.00
C872   C     0.05272   0.37592   0.44410   0.00000  Uiso   1.00
H873   H     0.02713   0.39095   0.41642   0.00000  Uiso   1.00
H874   H     0.05622   0.39579   0.47669   0.00000  Uiso   1.00
H875   H     0.03383   0.34526   0.44957   0.00000  Uiso   1.00
O876   O     0.20453   0.63160   0.58167   0.00000  Uiso   1.00
C877   C     0.16459   0.63168   0.61021   0.00000  Uiso   1.00
H878   H     0.14412   0.60076   0.60866   0.00000  Uiso   1.00
H879   H     0.13555   0.65523   0.60153   0.00000  Uiso   1.00
H880   H     0.18254   0.63845   0.64700   0.00000  Uiso   1.00
O881   O     0.10169   0.61903   0.42889   0.00000  Uiso   1.00
C882   C     0.12182   0.62085   0.38606   0.00000  Uiso   1.00
H883   H     0.10258   0.59547   0.36216   0.00000  Uiso   1.00
H884   H     0.16412   0.61646   0.39060   0.00000  Uiso   1.00
H885   H     0.11341   0.65032   0.36878   0.00000  Uiso   1.00
O886   O     0.23739   0.38011   0.56075   0.00000  Uiso   1.00
C887   C     0.23262   0.38416   0.60876   0.00000  Uiso   1.00
H888   H     0.19199   0.38498   0.61527   0.00000  Uiso   1.00
H889   H     0.25263   0.41383   0.62289   0.00000  Uiso   1.00
H890   H     0.25232   0.35922   0.62836   0.00000  Uiso   1.00
O891   O     0.08984   0.45627   0.37073   0.00000  Uiso   1.00
C892   C     0.04255   0.47479   0.35758   0.00000  Uiso   1.00
H893   H     0.02749   0.46948   0.65317   0.00000  Uiso   1.00
H894   H     0.04593   0.50853   0.36632   0.00000  Uiso   1.00
H895   H     0.01320   0.46024   0.37701   0.00000  Uiso   1.00
O896   O     0.25430   0.52587   0.63362   0.00000  Uiso   1.00
C897   C     0.26558   0.56725   0.62402   0.00000  Uiso   1.00
H898   H     0.30809   0.57354   0.63143   0.00000  Uiso   1.00
H899   H     0.24790   0.58960   0.64593   0.00000  Uiso   1.00
H900   H     0.25488   0.57197   0.58617   0.00000  Uiso   1.00
O901   O     0.09295   0.45381   0.60492   0.00000  Uiso   1.00
C902   C     0.09085   0.41156   0.61570   0.00000  Uiso   1.00
H903   H     0.09600   0.39297   0.58396   0.00000  Uiso   1.00
H904   H     0.05198   0.40262   0.62457   0.00000  Uiso   1.00
H905   H     0.12031   0.40290   0.64504   0.00000  Uiso   1.00
O906   O     0.23112   0.55431   0.39263   0.00000  Uiso   1.00
C907   C     0.28500   0.55062   0.39788   0.00000  Uiso   1.00
H908   H     0.30364   0.57600   0.38037   0.00000  Uiso   1.00
H909   H     0.29644   0.52042   0.38516   0.00000  Uiso   1.00
H910   H     0.30057   0.55548   0.43551   0.00000  Uiso   1.00
C911   C     0.49988   0.42093   0.49930   0.00000  Uiso   1.00
C912   C     0.49792   0.57925   0.50043   0.00000  Uiso   1.00
C913   C     0.40129   0.49815   0.48802   0.00000  Uiso   1.00
C914   C     0.59869   0.49955   0.51214   0.00000  Uiso   1.00
C915   C     0.34587   0.49367   0.48230   0.00000  Uiso   1.00
C916   C     0.65420   0.50006   0.51900   0.00000  Uiso   1.00
C917   C     0.46617   0.35287   0.46339   0.00000  Uiso   1.00
C918   C     0.52062   0.64861   0.53965   0.00000  Uiso   1.00
C919   C     0.46698   0.64303   0.46291   0.00000  Uiso   1.00
C920   C     0.52858   0.35772   0.53519   0.00000  Uiso   1.00
C921   C     0.49454   0.62413   0.50138   0.00000  Uiso   1.00
C922   C     0.49931   0.37643   0.49818   0.00000  Uiso   1.00
C923   C     0.46207   0.47801   0.35239   0.00000  Uiso   1.00
C924   C     0.53956   0.52023   0.64790   0.00000  Uiso   1.00
C925   C     0.46312   0.47693   0.63583   0.00000  Uiso   1.00
C926   C     0.53695   0.52302   0.36412   0.00000  Uiso   1.00
Cu927  Cu    0.50000   0.50001   0.54689   0.00000  Uiso   1.00
Cu928  Cu    0.50000   0.49999   0.45311   0.00000  Uiso   1.00
H929   H     0.65864   0.48477   0.44796   0.00000  Uiso   1.00
H930   H     0.34124   0.50725   0.55413   0.00000  Uiso   1.00
N931   N     0.50001   0.50001   0.61736   0.00000  Uiso   1.00
N932   N     0.49999   0.49999   0.38264   0.00000  Uiso   1.00
O933   O     0.50000   0.43989   0.53958   0.00000  Uiso   1.00
O934   O     0.50000   0.56011   0.46042   0.00000  Uiso   1.00
O935   O     0.50000   0.43988   0.46039   0.00000  Uiso   1.00
O936   O     0.50000   0.56012   0.53961   0.00000  Uiso   1.00
O937   O     0.42495   0.50000   0.53046   0.00000  Uiso   1.00
O938   O     0.57505   0.50000   0.46954   0.00000  Uiso   1.00
O939   O     0.42494   0.49999   0.45127   0.00000  Uiso   1.00
O940   O     0.57506   0.50001   0.54873   0.00000  Uiso   1.00
O941   O     0.43452   0.37197   0.42896   0.00000  Uiso   1.00
C942   C     0.38605   0.37592   0.44410   0.00000  Uiso   1.00
H943   H     0.36046   0.39095   0.41642   0.00000  Uiso   1.00
H944   H     0.38956   0.39579   0.47669   0.00000  Uiso   1.00
H945   H     0.36716   0.34526   0.44957   0.00000  Uiso   1.00
O946   O     0.53786   0.63160   0.58167   0.00000  Uiso   1.00
C947   C     0.49792   0.63168   0.61021   0.00000  Uiso   1.00
H948   H     0.47746   0.60076   0.60866   0.00000  Uiso   1.00
H949   H     0.46888   0.65523   0.60153   0.00000  Uiso   1.00
H950   H     0.51587   0.63845   0.64700   0.00000  Uiso   1.00
O951   O     0.43502   0.61903   0.42889   0.00000  Uiso   1.00
C952   C     0.45515   0.62085   0.38606   0.00000  Uiso   1.00
H953   H     0.43591   0.59547   0.36216   0.00000  Uiso   1.00
H954   H     0.49745   0.61646   0.39060   0.00000  Uiso   1.00
H955   H     0.44674   0.65032   0.36878   0.00000  Uiso   1.00
O956   O     0.57073   0.38011   0.56075   0.00000  Uiso   1.00
C957   C     0.56595   0.38416   0.60876   0.00000  Uiso   1.00
H958   H     0.52532   0.38498   0.61527   0.00000  Uiso   1.00
H959   H     0.58596   0.41383   0.62289   0.00000  Uiso   1.00
H960   H     0.58565   0.35922   0.62836   0.00000  Uiso   1.00
O961   O     0.42317   0.45627   0.37073   0.00000  Uiso   1.00
C962   C     0.37588   0.47479   0.35758   0.00000  Uiso   1.00
H963   H     0.36082   0.46948   0.65317   0.00000  Uiso   1.00
H964   H     0.37927   0.50853   0.36632   0.00000  Uiso   1.00
H965   H     0.34653   0.46024   0.37701   0.00000  Uiso   1.00
O966   O     0.58764   0.52587   0.63362   0.00000  Uiso   1.00
C967   C     0.59891   0.56725   0.62402   0.00000  Uiso   1.00
H968   H     0.64142   0.57354   0.63143   0.00000  Uiso   1.00
H969   H     0.58124   0.58960   0.64593   0.00000  Uiso   1.00
H970   H     0.58821   0.57197   0.58617   0.00000  Uiso   1.00
O971   O     0.42628   0.45381   0.60492   0.00000  Uiso   1.00
C972   C     0.42418   0.41156   0.61570   0.00000  Uiso   1.00
H973   H     0.42933   0.39297   0.58396   0.00000  Uiso   1.00
H974   H     0.38532   0.40262   0.62457   0.00000  Uiso   1.00
H975   H     0.45364   0.40290   0.64504   0.00000  Uiso   1.00
O976   O     0.56446   0.55431   0.39263   0.00000  Uiso   1.00
C977   C     0.61833   0.55062   0.39788   0.00000  Uiso   1.00
H978   H     0.63698   0.57600   0.38037   0.00000  Uiso   1.00
H979   H     0.62978   0.52042   0.38516   0.00000  Uiso   1.00
H980   H     0.63390   0.55548   0.43551   0.00000  Uiso   1.00
C981   C     0.83321   0.42093   0.49930   0.00000  Uiso   1.00
C982   C     0.83126   0.57925   0.50043   0.00000  Uiso   1.00
C983   C     0.73463   0.49815   0.48802   0.00000  Uiso   1.00
C984   C     0.93202   0.49955   0.51214   0.00000  Uiso   1.00
C985   C     0.67920   0.49367   0.48230   0.00000  Uiso   1.00
C986   C     0.98754   0.50006   0.51900   0.00000  Uiso   1.00
C987   C     0.79950   0.35287   0.46339   0.00000  Uiso   1.00
C988   C     0.85396   0.64861   0.53965   0.00000  Uiso   1.00
C989   C     0.80032   0.64303   0.46291   0.00000  Uiso   1.00
C990   C     0.86192   0.35772   0.53519   0.00000  Uiso   1.00
C991   C     0.82788   0.62413   0.50138   0.00000  Uiso   1.00
C992   C     0.83264   0.37643   0.49818   0.00000  Uiso   1.00
C993   C     0.79540   0.47801   0.35239   0.00000  Uiso   1.00
C994   C     0.87289   0.52023   0.64790   0.00000  Uiso   1.00
C995   C     0.79646   0.47693   0.63583   0.00000  Uiso   1.00
C996   C     0.87029   0.52302   0.36412   0.00000  Uiso   1.00
Cu997  Cu    0.83333   0.50001   0.54689   0.00000  Uiso   1.00
Cu998  Cu    0.83333   0.49999   0.45311   0.00000  Uiso   1.00
H999   H     0.99198   0.48477   0.44796   0.00000  Uiso   1.00
H1000  H     0.67457   0.50725   0.55413   0.00000  Uiso   1.00
N1001  N     0.83335   0.50001   0.61736   0.00000  Uiso   1.00
N1002  N     0.83332   0.49999   0.38264   0.00000  Uiso   1.00
O1003  O     0.83333   0.43989   0.53958   0.00000  Uiso   1.00
O1004  O     0.83334   0.56011   0.46042   0.00000  Uiso   1.00
O1005  O     0.83333   0.43988   0.46039   0.00000  Uiso   1.00
O1006  O     0.83334   0.56012   0.53961   0.00000  Uiso   1.00
O1007  O     0.75828   0.50000   0.53046   0.00000  Uiso   1.00
O1008  O     0.90839   0.50000   0.46954   0.00000  Uiso   1.00
O1009  O     0.75828   0.49999   0.45127   0.00000  Uiso   1.00
O1010  O     0.90839   0.50001   0.54873   0.00000  Uiso   1.00
O1011  O     0.76786   0.37197   0.42896   0.00000  Uiso   1.00
C1012  C     0.71939   0.37592   0.44410   0.00000  Uiso   1.00
H1013  H     0.69380   0.39095   0.41642   0.00000  Uiso   1.00
H1014  H     0.72289   0.39579   0.47669   0.00000  Uiso   1.00
H1015  H     0.70049   0.34526   0.44957   0.00000  Uiso   1.00
O1016  O     0.87119   0.63160   0.58167   0.00000  Uiso   1.00
C1017  C     0.83125   0.63168   0.61021   0.00000  Uiso   1.00
H1018  H     0.81079   0.60076   0.60866   0.00000  Uiso   1.00
H1019  H     0.80221   0.65523   0.60153   0.00000  Uiso   1.00
H1020  H     0.84921   0.63845   0.64700   0.00000  Uiso   1.00
O1021  O     0.76836   0.61903   0.42889   0.00000  Uiso   1.00
C1022  C     0.78848   0.62085   0.38606   0.00000  Uiso   1.00
H1023  H     0.76924   0.59547   0.36216   0.00000  Uiso   1.00
H1024  H     0.83079   0.61646   0.39060   0.00000  Uiso   1.00
H1025  H     0.78007   0.65032   0.36878   0.00000  Uiso   1.00
O1026  O     0.90406   0.38011   0.56075   0.00000  Uiso   1.00
C1027  C     0.89928   0.38416   0.60876   0.00000  Uiso   1.00
H1028  H     0.85866   0.38498   0.61527   0.00000  Uiso   1.00
H1029  H     0.91930   0.41383   0.62289   0.00000  Uiso   1.00
H1030  H     0.91898   0.35922   0.62836   0.00000  Uiso   1.00
O1031  O     0.75651   0.45627   0.37073   0.00000  Uiso   1.00
C1032  C     0.70921   0.47479   0.35758   0.00000  Uiso   1.00
H1033  H     0.69415   0.46948   0.65317   0.00000  Uiso   1.00
H1034  H     0.71260   0.50853   0.36632   0.00000  Uiso   1.00
H1035  H     0.67986   0.46024   0.37701   0.00000  Uiso   1.00
O1036  O     0.92097   0.52587   0.63362   0.00000  Uiso   1.00
C1037  C     0.93225   0.56725   0.62402   0.00000  Uiso   1.00
H1038  H     0.97475   0.57354   0.63143   0.00000  Uiso   1.00
H1039  H     0.91457   0.58960   0.64593   0.00000  Uiso   1.00
H1040  H     0.92155   0.57197   0.58617   0.00000  Uiso   1.00
O1041  O     0.75961   0.45381   0.60492   0.00000  Uiso   1.00
C1042  C     0.75752   0.41156   0.61570   0.00000  Uiso   1.00
H1043  H     0.76266   0.39297   0.58396   0.00000  Uiso   1.00
H1044  H     0.71865   0.40262   0.62457   0.00000  Uiso   1.00
H1045  H     0.78698   0.40290   0.64504   0.00000  Uiso   1.00
O1046  O     0.89779   0.55431   0.39263   0.00000  Uiso   1.00
C1047  C     0.95166   0.55062   0.39788   0.00000  Uiso   1.00
H1048  H     0.97031   0.57600   0.38037   0.00000  Uiso   1.00
H1049  H     0.96311   0.52042   0.38516   0.00000  Uiso   1.00
H1050  H     0.96723   0.55548   0.43551   0.00000  Uiso   1.00
C1051  C     0.16655   0.75426   0.49930   0.00000  Uiso   1.00
C1052  C     0.16459   0.91258   0.50043   0.00000  Uiso   1.00
C1053  C     0.06796   0.83149   0.48802   0.00000  Uiso   1.00
C1054  C     0.26536   0.83288   0.51214   0.00000  Uiso   1.00
C1055  C     0.01254   0.82700   0.48230   0.00000  Uiso   1.00
C1056  C     0.32087   0.83339   0.51900   0.00000  Uiso   1.00
C1057  C     0.13283   0.68621   0.46339   0.00000  Uiso   1.00
C1058  C     0.18729   0.98194   0.53965   0.00000  Uiso   1.00
C1059  C     0.13365   0.97636   0.46291   0.00000  Uiso   1.00
C1060  C     0.19525   0.69106   0.53519   0.00000  Uiso   1.00
C1061  C     0.16121   0.95747   0.50138   0.00000  Uiso   1.00
C1062  C     0.16597   0.70976   0.49818   0.00000  Uiso   1.00
C1063  C     0.12874   0.81135   0.35239   0.00000  Uiso   1.00
C1064  C     0.20622   0.85356   0.64790   0.00000  Uiso   1.00
C1065  C     0.12979   0.81026   0.63583   0.00000  Uiso   1.00
C1066  C     0.20362   0.85635   0.36412   0.00000  Uiso   1.00
Cu1067 Cu    0.16667   0.83334   0.54689   0.00000  Uiso   1.00
Cu1068 Cu    0.16667   0.83333   0.45311   0.00000  Uiso   1.00
H1069  H     0.32531   0.81810   0.44796   0.00000  Uiso   1.00
H1070  H     0.00791   0.84058   0.55413   0.00000  Uiso   1.00
N1071  N     0.16668   0.83334   0.61736   0.00000  Uiso   1.00
N1072  N     0.16665   0.83332   0.38264   0.00000  Uiso   1.00
O1073  O     0.16666   0.77322   0.53958   0.00000  Uiso   1.00
O1074  O     0.16667   0.89345   0.46042   0.00000  Uiso   1.00
O1075  O     0.16666   0.77321   0.46039   0.00000  Uiso   1.00
O1076  O     0.16667   0.89346   0.53961   0.00000  Uiso   1.00
O1077  O     0.09161   0.83334   0.53046   0.00000  Uiso   1.00
O1078  O     0.24172   0.83333   0.46954   0.00000  Uiso   1.00
O1079  O     0.09161   0.83333   0.45127   0.00000  Uiso   1.00
O1080  O     0.24172   0.83334   0.54873   0.00000  Uiso   1.00
O1081  O     0.10119   0.70530   0.42896   0.00000  Uiso   1.00
C1082  C     0.05272   0.70925   0.44410   0.00000  Uiso   1.00
H1083  H     0.02713   0.72429   0.41642   0.00000  Uiso   1.00
H1084  H     0.05622   0.72912   0.47669   0.00000  Uiso   1.00
H1085  H     0.03383   0.67859   0.44957   0.00000  Uiso   1.00
O1086  O     0.20453   0.96493   0.58167   0.00000  Uiso   1.00
C1087  C     0.16459   0.96501   0.61021   0.00000  Uiso   1.00
H1088  H     0.14412   0.93410   0.60866   0.00000  Uiso   1.00
H1089  H     0.13555   0.98857   0.60153   0.00000  Uiso   1.00
H1090  H     0.18254   0.97178   0.64700   0.00000  Uiso   1.00
O1091  O     0.10169   0.95236   0.42889   0.00000  Uiso   1.00
C1092  C     0.12182   0.95418   0.38606   0.00000  Uiso   1.00
H1093  H     0.10258   0.92881   0.36216   0.00000  Uiso   1.00
H1094  H     0.16412   0.94979   0.39060   0.00000  Uiso   1.00
H1095  H     0.11341   0.98365   0.36878   0.00000  Uiso   1.00
O1096  O     0.23739   0.71344   0.56075   0.00000  Uiso   1.00
C1097  C     0.23262   0.71750   0.60876   0.00000  Uiso   1.00
H1098  H     0.19199   0.71831   0.61527   0.00000  Uiso   1.00
H1099  H     0.25263   0.74716   0.62289   0.00000  Uiso   1.00
H1100  H     0.25232   0.69255   0.62836   0.00000  Uiso   1.00
O1101  O     0.08984   0.78961   0.37073   0.00000  Uiso   1.00
C1102  C     0.04255   0.80813   0.35758   0.00000  Uiso   1.00
H1103  H     0.02749   0.80281   0.65317   0.00000  Uiso   1.00
H1104  H     0.04593   0.84187   0.36632   0.00000  Uiso   1.00
H1105  H     0.01320   0.79357   0.37701   0.00000  Uiso   1.00
O1106  O     0.25430   0.85921   0.63362   0.00000  Uiso   1.00
C1107  C     0.26558   0.90058   0.62402   0.00000  Uiso   1.00
H1108  H     0.30809   0.90687   0.63143   0.00000  Uiso   1.00
H1109  H     0.24790   0.92293   0.64593   0.00000  Uiso   1.00
H1110  H     0.25488   0.90530   0.58617   0.00000  Uiso   1.00
O1111  O     0.09295   0.78714   0.60492   0.00000  Uiso   1.00
C1112  C     0.09085   0.74489   0.61570   0.00000  Uiso   1.00
H1113  H     0.09600   0.72631   0.58396   0.00000  Uiso   1.00
H1114  H     0.05198   0.73595   0.62457   0.00000  Uiso   1.00
H1115  H     0.12031   0.73623   0.64504   0.00000  Uiso   1.00
O1116  O     0.23112   0.88765   0.39263   0.00000  Uiso   1.00
C1117  C     0.28500   0.88395   0.39788   0.00000  Uiso   1.00
H1118  H     0.30364   0.90934   0.38037   0.00000  Uiso   1.00
H1119  H     0.29644   0.85375   0.38516   0.00000  Uiso   1.00
H1120  H     0.30057   0.88882   0.43551   0.00000  Uiso   1.00
C1121  C     0.49988   0.75426   0.49930   0.00000  Uiso   1.00
C1122  C     0.49792   0.91258   0.50043   0.00000  Uiso   1.00
C1123  C     0.40129   0.83149   0.48802   0.00000  Uiso   1.00
C1124  C     0.59869   0.83288   0.51214   0.00000  Uiso   1.00
C1125  C     0.34587   0.82700   0.48230   0.00000  Uiso   1.00
C1126  C     0.65420   0.83339   0.51900   0.00000  Uiso   1.00
C1127  C     0.46617   0.68621   0.46339   0.00000  Uiso   1.00
C1128  C     0.52062   0.98194   0.53965   0.00000  Uiso   1.00
C1129  C     0.46698   0.97636   0.46291   0.00000  Uiso   1.00
C1130  C     0.52858   0.69106   0.53519   0.00000  Uiso   1.00
C1131  C     0.49454   0.95747   0.50138   0.00000  Uiso   1.00
C1132  C     0.49931   0.70976   0.49818   0.00000  Uiso   1.00
C1133  C     0.46207   0.81135   0.35239   0.00000  Uiso   1.00
C1134  C     0.53956   0.85356   0.64790   0.00000  Uiso   1.00
C1135  C     0.46312   0.81026   0.63583   0.00000  Uiso   1.00
C1136  C     0.53695   0.85635   0.36412   0.00000  Uiso   1.00
Cu1137 Cu    0.50000   0.83334   0.54689   0.00000  Uiso   1.00
Cu1138 Cu    0.50000   0.83333   0.45311   0.00000  Uiso   1.00
H1139  H     0.65864   0.81810   0.44796   0.00000  Uiso   1.00
H1140  H     0.34124   0.84058   0.55413   0.00000  Uiso   1.00
N1141  N     0.50001   0.83334   0.61736   0.00000  Uiso   1.00
N1142  N     0.49999   0.83332   0.38264   0.00000  Uiso   1.00
O1143  O     0.50000   0.77322   0.53958   0.00000  Uiso   1.00
O1144  O     0.50000   0.89345   0.46042   0.00000  Uiso   1.00
O1145  O     0.50000   0.77321   0.46039   0.00000  Uiso   1.00
O1146  O     0.50000   0.89346   0.53961   0.00000  Uiso   1.00
O1147  O     0.42495   0.83334   0.53046   0.00000  Uiso   1.00
O1148  O     0.57505   0.83333   0.46954   0.00000  Uiso   1.00
O1149  O     0.42494   0.83333   0.45127   0.00000  Uiso   1.00
O1150  O     0.57506   0.83334   0.54873   0.00000  Uiso   1.00
O1151  O     0.43452   0.70530   0.42896   0.00000  Uiso   1.00
C1152  C     0.38605   0.70925   0.44410   0.00000  Uiso   1.00
H1153  H     0.36046   0.72429   0.41642   0.00000  Uiso   1.00
H1154  H     0.38956   0.72912   0.47669   0.00000  Uiso   1.00
H1155  H     0.36716   0.67859   0.44957   0.00000  Uiso   1.00
O1156  O     0.53786   0.96493   0.58167   0.00000  Uiso   1.00
C1157  C     0.49792   0.96501   0.61021   0.00000  Uiso   1.00
H1158  H     0.47746   0.93410   0.60866   0.00000  Uiso   1.00
H1159  H     0.46888   0.98857   0.60153   0.00000  Uiso   1.00
H1160  H     0.51587   0.97178   0.64700   0.00000  Uiso   1.00
O1161  O     0.43502   0.95236   0.42889   0.00000  Uiso   1.00
C1162  C     0.45515   0.95418   0.38606   0.00000  Uiso   1.00
H1163  H     0.43591   0.92881   0.36216   0.00000  Uiso   1.00
H1164  H     0.49745   0.94979   0.39060   0.00000  Uiso   1.00
H1165  H     0.44674   0.98365   0.36878   0.00000  Uiso   1.00
O1166  O     0.57073   0.71344   0.56075   0.00000  Uiso   1.00
C1167  C     0.56595   0.71750   0.60876   0.00000  Uiso   1.00
H1168  H     0.52532   0.71831   0.61527   0.00000  Uiso   1.00
H1169  H     0.58596   0.74716   0.62289   0.00000  Uiso   1.00
H1170  H     0.58565   0.69255   0.62836   0.00000  Uiso   1.00
O1171  O     0.42317   0.78961   0.37073   0.00000  Uiso   1.00
C1172  C     0.37588   0.80813   0.35758   0.00000  Uiso   1.00
H1173  H     0.36082   0.80281   0.65317   0.00000  Uiso   1.00
H1174  H     0.37927   0.84187   0.36632   0.00000  Uiso   1.00
H1175  H     0.34653   0.79357   0.37701   0.00000  Uiso   1.00
O1176  O     0.58764   0.85921   0.63362   0.00000  Uiso   1.00
C1177  C     0.59891   0.90058   0.62402   0.00000  Uiso   1.00
H1178  H     0.64142   0.90687   0.63143   0.00000  Uiso   1.00
H1179  H     0.58124   0.92293   0.64593   0.00000  Uiso   1.00
H1180  H     0.58821   0.90530   0.58617   0.00000  Uiso   1.00
O1181  O     0.42628   0.78714   0.60492   0.00000  Uiso   1.00
C1182  C     0.42418   0.74489   0.61570   0.00000  Uiso   1.00
H1183  H     0.42933   0.72631   0.58396   0.00000  Uiso   1.00
H1184  H     0.38532   0.73595   0.62457   0.00000  Uiso   1.00
H1185  H     0.45364   0.73623   0.64504   0.00000  Uiso   1.00
O1186  O     0.56446   0.88765   0.39263   0.00000  Uiso   1.00
C1187  C     0.61833   0.88395   0.39788   0.00000  Uiso   1.00
H1188  H     0.63698   0.90934   0.38037   0.00000  Uiso   1.00
H1189  H     0.62978   0.85375   0.38516   0.00000  Uiso   1.00
H1190  H     0.63390   0.88882   0.43551   0.00000  Uiso   1.00
C1191  C     0.83321   0.75426   0.49930   0.00000  Uiso   1.00
C1192  C     0.83126   0.91258   0.50043   0.00000  Uiso   1.00
C1193  C     0.73463   0.83149   0.48802   0.00000  Uiso   1.00
C1194  C     0.93202   0.83288   0.51214   0.00000  Uiso   1.00
C1195  C     0.67920   0.82700   0.48230   0.00000  Uiso   1.00
C1196  C     0.98754   0.83339   0.51900   0.00000  Uiso   1.00
C1197  C     0.79950   0.68621   0.46339   0.00000  Uiso   1.00
C1198  C     0.85396   0.98194   0.53965   0.00000  Uiso   1.00
C1199  C     0.80032   0.97636   0.46291   0.00000  Uiso   1.00
C1200  C     0.86192   0.69106   0.53519   0.00000  Uiso   1.00
C1201  C     0.82788   0.95747   0.50138   0.00000  Uiso   1.00
C1202  C     0.83264   0.70976   0.49818   0.00000  Uiso   1.00
C1203  C     0.79540   0.81135   0.35239   0.00000  Uiso   1.00
C1204  C     0.87289   0.85356   0.64790   0.00000  Uiso   1.00
C1205  C     0.79646   0.81026   0.63583   0.00000  Uiso   1.00
C1206  C     0.87029   0.85635   0.36412   0.00000  Uiso   1.00
Cu1207 Cu    0.83333   0.83334   0.54689   0.00000  Uiso   1.00
Cu1208 Cu    0.83333   0.83333   0.45311   0.00000  Uiso   1.00
H1209  H     0.99198   0.81810   0.44796   0.00000  Uiso   1.00
H1210  H     0.67457   0.84058   0.55413   0.00000  Uiso   1.00
N1211  N     0.83335   0.83334   0.61736   0.00000  Uiso   1.00
N1212  N     0.83332   0.83332   0.38264   0.00000  Uiso   1.00
O1213  O     0.83333   0.77322   0.53958   0.00000  Uiso   1.00
O1214  O     0.83334   0.89345   0.46042   0.00000  Uiso   1.00
O1215  O     0.83333   0.77321   0.46039   0.00000  Uiso   1.00
O1216  O     0.83334   0.89346   0.53961   0.00000  Uiso   1.00
O1217  O     0.75828   0.83334   0.53046   0.00000  Uiso   1.00
O1218  O     0.90839   0.83333   0.46954   0.00000  Uiso   1.00
O1219  O     0.75828   0.83333   0.45127   0.00000  Uiso   1.00
O1220  O     0.90839   0.83334   0.54873   0.00000  Uiso   1.00
O1221  O     0.76786   0.70530   0.42896   0.00000  Uiso   1.00
C1222  C     0.71939   0.70925   0.44410   0.00000  Uiso   1.00
H1223  H     0.69380   0.72429   0.41642   0.00000  Uiso   1.00
H1224  H     0.72289   0.72912   0.47669   0.00000  Uiso   1.00
H1225  H     0.70049   0.67859   0.44957   0.00000  Uiso   1.00
O1226  O     0.87119   0.96493   0.58167   0.00000  Uiso   1.00
C1227  C     0.83125   0.96501   0.61021   0.00000  Uiso   1.00
H1228  H     0.81079   0.93410   0.60866   0.00000  Uiso   1.00
H1229  H     0.80221   0.98857   0.60153   0.00000  Uiso   1.00
H1230  H     0.84921   0.97178   0.64700   0.00000  Uiso   1.00
O1231  O     0.76836   0.95236   0.42889   0.00000  Uiso   1.00
C1232  C     0.78848   0.95418   0.38606   0.00000  Uiso   1.00
H1233  H     0.76924   0.92881   0.36216   0.00000  Uiso   1.00
H1234  H     0.83079   0.94979   0.39060   0.00000  Uiso   1.00
H1235  H     0.78007   0.98365   0.36878   0.00000  Uiso   1.00
O1236  O     0.90406   0.71344   0.56075   0.00000  Uiso   1.00
C1237  C     0.89928   0.71750   0.60876   0.00000  Uiso   1.00
H1238  H     0.85866   0.71831   0.61527   0.00000  Uiso   1.00
H1239  H     0.91930   0.74716   0.62289   0.00000  Uiso   1.00
H1240  H     0.91898   0.69255   0.62836   0.00000  Uiso   1.00
O1241  O     0.75651   0.78961   0.37073   0.00000  Uiso   1.00
C1242  C     0.70921   0.80813   0.35758   0.00000  Uiso   1.00
H1243  H     0.69415   0.80281   0.65317   0.00000  Uiso   1.00
H1244  H     0.71260   0.84187   0.36632   0.00000  Uiso   1.00
H1245  H     0.67986   0.79357   0.37701   0.00000  Uiso   1.00
O1246  O     0.92097   0.85921   0.63362   0.00000  Uiso   1.00
C1247  C     0.93225   0.90058   0.62402   0.00000  Uiso   1.00
H1248  H     0.97475   0.90687   0.63143   0.00000  Uiso   1.00
H1249  H     0.91457   0.92293   0.64593   0.00000  Uiso   1.00
H1250  H     0.92155   0.90530   0.58617   0.00000  Uiso   1.00
O1251  O     0.75961   0.78714   0.60492   0.00000  Uiso   1.00
C1252  C     0.75752   0.74489   0.61570   0.00000  Uiso   1.00
H1253  H     0.76266   0.72631   0.58396   0.00000  Uiso   1.00
H1254  H     0.71865   0.73595   0.62457   0.00000  Uiso   1.00
H1255  H     0.78698   0.73623   0.64504   0.00000  Uiso   1.00
O1256  O     0.89779   0.88765   0.39263   0.00000  Uiso   1.00
C1257  C     0.95166   0.88395   0.39788   0.00000  Uiso   1.00
H1258  H     0.97031   0.90934   0.38037   0.00000  Uiso   1.00
H1259  H     0.96311   0.85375   0.38516   0.00000  Uiso   1.00
H1260  H     0.96723   0.88882   0.43551   0.00000  Uiso   1.00
C1261  C     0.16655   0.08760   0.83263   0.00000  Uiso   1.00
C1262  C     0.16459   0.24592   0.83376   0.00000  Uiso   1.00
C1263  C     0.06796   0.16482   0.82135   0.00000  Uiso   1.00
C1264  C     0.26536   0.16621   0.84547   0.00000  Uiso   1.00
C1265  C     0.01254   0.16033   0.81563   0.00000  Uiso   1.00
C1266  C     0.32087   0.16672   0.85233   0.00000  Uiso   1.00
C1267  C     0.13283   0.01954   0.79673   0.00000  Uiso   1.00
C1268  C     0.18729   0.31527   0.87298   0.00000  Uiso   1.00
C1269  C     0.13365   0.30970   0.79625   0.00000  Uiso   1.00
C1270  C     0.19525   0.02439   0.86852   0.00000  Uiso   1.00
C1271  C     0.16121   0.29080   0.83471   0.00000  Uiso   1.00
C1272  C     0.16597   0.04309   0.83151   0.00000  Uiso   1.00
C1273  C     0.12874   0.14468   0.68572   0.00000  Uiso   1.00
C1274  C     0.20622   0.18690   0.98123   0.00000  Uiso   1.00
C1275  C     0.12979   0.14359   0.96916   0.00000  Uiso   1.00
C1276  C     0.20362   0.18969   0.69746   0.00000  Uiso   1.00
Cu1277 Cu    0.16667   0.16667   0.88022   0.00000  Uiso   1.00
Cu1278 Cu    0.16667   0.16666   0.78645   0.00000  Uiso   1.00
H1279  H     0.32531   0.15144   0.78130   0.00000  Uiso   1.00
H1280  H     0.00791   0.17391   0.88746   0.00000  Uiso   1.00
N1281  N     0.16668   0.16668   0.95069   0.00000  Uiso   1.00
N1282  N     0.16665   0.16666   0.71597   0.00000  Uiso   1.00
O1283  O     0.16666   0.10655   0.87291   0.00000  Uiso   1.00
O1284  O     0.16667   0.22678   0.79375   0.00000  Uiso   1.00
O1285  O     0.16666   0.10654   0.79372   0.00000  Uiso   1.00
O1286  O     0.16667   0.22679   0.87294   0.00000  Uiso   1.00
O1287  O     0.09161   0.16667   0.86379   0.00000  Uiso   1.00
O1288  O     0.24172   0.16666   0.80288   0.00000  Uiso   1.00
O1289  O     0.09161   0.16666   0.78460   0.00000  Uiso   1.00
O1290  O     0.24172   0.16667   0.88207   0.00000  Uiso   1.00
O1291  O     0.10119   0.03864   0.76229   0.00000  Uiso   1.00
C1292  C     0.05272   0.04259   0.77744   0.00000  Uiso   1.00
H1293  H     0.02713   0.05762   0.74975   0.00000  Uiso   1.00
H1294  H     0.05622   0.06245   0.81002   0.00000  Uiso   1.00
H1295  H     0.03383   0.01192   0.78290   0.00000  Uiso   1.00
O1296  O     0.20453   0.29826   0.91501   0.00000  Uiso   1.00
C1297  C     0.16459   0.29834   0.94354   0.00000  Uiso   1.00
H1298  H     0.14412   0.26743   0.94199   0.00000  Uiso   1.00
H1299  H     0.13555   0.32190   0.93486   0.00000  Uiso   1.00
H1300  H     0.18254   0.30512   0.98033   0.00000  Uiso   1.00
O1301  O     0.10169   0.28570   0.76222   0.00000  Uiso   1.00
C1302  C     0.12182   0.28752   0.71940   0.00000  Uiso   1.00
H1303  H     0.10258   0.26214   0.69549   0.00000  Uiso   1.00
H1304  H     0.16412   0.28313   0.72393   0.00000  Uiso   1.00
H1305  H     0.11341   0.31699   0.70212   0.00000  Uiso   1.00
O1306  O     0.23739   0.04678   0.89408   0.00000  Uiso   1.00
C1307  C     0.23262   0.05083   0.94209   0.00000  Uiso   1.00
H1308  H     0.19199   0.05165   0.94860   0.00000  Uiso   1.00
H1309  H     0.25263   0.08050   0.95623   0.00000  Uiso   1.00
H1310  H     0.25232   0.02589   0.96169   0.00000  Uiso   1.00
O1311  O     0.08984   0.12294   0.70406   0.00000  Uiso   1.00
C1312  C     0.04255   0.14146   0.69091   0.00000  Uiso   1.00
H1313  H     0.02749   0.13615   0.98650   0.00000  Uiso   1.00
H1314  H     0.04593   0.17520   0.69965   0.00000  Uiso   1.00
H1315  H     0.01320   0.12690   0.71034   0.00000  Uiso   1.00
O1316  O     0.25430   0.19254   0.96695   0.00000  Uiso   1.00
C1317  C     0.26558   0.23392   0.95735   0.00000  Uiso   1.00
H1318  H     0.30809   0.24021   0.96477   0.00000  Uiso   1.00
H1319  H     0.24790   0.25626   0.97926   0.00000  Uiso   1.00
H1320  H     0.25488   0.23863   0.91950   0.00000  Uiso   1.00
O1321  O     0.09295   0.12047   0.93825   0.00000  Uiso   1.00
C1322  C     0.09085   0.07823   0.94903   0.00000  Uiso   1.00
H1323  H     0.09600   0.05964   0.91729   0.00000  Uiso   1.00
H1324  H     0.05198   0.06929   0.95790   0.00000  Uiso   1.00
H1325  H     0.12031   0.06957   0.97837   0.00000  Uiso   1.00
O1326  O     0.23112   0.22098   0.72596   0.00000  Uiso   1.00
C1327  C     0.28500   0.21729   0.73121   0.00000  Uiso   1.00
H1328  H     0.30364   0.24267   0.71370   0.00000  Uiso   1.00
H1329  H     0.29644   0.18709   0.71850   0.00000  Uiso   1.00
H1330  H     0.30057   0.22215   0.76884   0.00000  Uiso   1.00
C1331  C     0.49988   0.08760   0.83263   0.00000  Uiso   1.00
C1332  C     0.49792   0.24592   0.83376   0.00000  Uiso   1.00
C1333  C     0.40129   0.16482   0.82135   0.00000  Uiso   1.00
C1334  C     0.59869   0.16621   0.84547   0.00000  Uiso   1.00
C1335  C     0.34587   0.16033   0.81563   0.00000  Uiso   1.00
C1336  C     0.65420   0.16672   0.85233   0.00000  Uiso   1.00
C1337  C     0.46617   0.01954   0.79673   0.00000  Uiso   1.00
C1338  C     0.52062   0.31527   0.87298   0.00000  Uiso   1.00
C1339  C     0.46698   0.30970   0.79625   0.00000  Uiso   1.00
C1340  C     0.52858   0.02439   0.86852   0.00000  Uiso   1.00
C1341  C     0.49454   0.29080   0.83471   0.00000  Uiso   1.00
C1342  C     0.49931   0.04309   0.83151   0.00000  Uiso   1.00
C1343  C     0.46207   0.14468   0.68572   0.00000  Uiso   1.00
C1344  C     0.53956   0.18690   0.98123   0.00000  Uiso   1.00
C1345  C     0.46312   0.14359   0.96916   0.00000  Uiso   1.00
C1346  C     0.53695   0.18969   0.69746   0.00000  Uiso   1.00
Cu1347 Cu    0.50000   0.16667   0.88022   0.00000  Uiso   1.00
Cu1348 Cu    0.50000   0.16666   0.78645   0.00000  Uiso   1.00
H1349  H     0.65864   0.15144   0.78130   0.00000  Uiso   1.00
H1350  H     0.34124   0.17391   0.88746   0.00000  Uiso   1.00
N1351  N     0.50001   0.16668   0.95069   0.00000  Uiso   1.00
N1352  N     0.49999   0.16666   0.71597   0.00000  Uiso   1.00
O1353  O     0.50000   0.10655   0.87291   0.00000  Uiso   1.00
O1354  O     0.50000   0.22678   0.79375   0.00000  Uiso   1.00
O1355  O     0.50000   0.10654   0.79372   0.00000  Uiso   1.00
O1356  O     0.50000   0.22679   0.87294   0.00000  Uiso   1.00
O1357  O     0.42495   0.16667   0.86379   0.00000  Uiso   1.00
O1358  O     0.57505   0.16666   0.80288   0.00000  Uiso   1.00
O1359  O     0.42494   0.16666   0.78460   0.00000  Uiso   1.00
O1360  O     0.57506   0.16667   0.88207   0.00000  Uiso   1.00
O1361  O     0.43452   0.03864   0.76229   0.00000  Uiso   1.00
C1362  C     0.38605   0.04259   0.77744   0.00000  Uiso   1.00
H1363  H     0.36046   0.05762   0.74975   0.00000  Uiso   1.00
H1364  H     0.38956   0.06245   0.81002   0.00000  Uiso   1.00
H1365  H     0.36716   0.01192   0.78290   0.00000  Uiso   1.00
O1366  O     0.53786   0.29826   0.91501   0.00000  Uiso   1.00
C1367  C     0.49792   0.29834   0.94354   0.00000  Uiso   1.00
H1368  H     0.47746   0.26743   0.94199   0.00000  Uiso   1.00
H1369  H     0.46888   0.32190   0.93486   0.00000  Uiso   1.00
H1370  H     0.51587   0.30512   0.98033   0.00000  Uiso   1.00
O1371  O     0.43502   0.28570   0.76222   0.00000  Uiso   1.00
C1372  C     0.45515   0.28752   0.71940   0.00000  Uiso   1.00
H1373  H     0.43591   0.26214   0.69549   0.00000  Uiso   1.00
H1374  H     0.49745   0.28313   0.72393   0.00000  Uiso   1.00
H1375  H     0.44674   0.31699   0.70212   0.00000  Uiso   1.00
O1376  O     0.57073   0.04678   0.89408   0.00000  Uiso   1.00
C1377  C     0.56595   0.05083   0.94209   0.00000  Uiso   1.00
H1378  H     0.52532   0.05165   0.94860   0.00000  Uiso   1.00
H1379  H     0.58596   0.08050   0.95623   0.00000  Uiso   1.00
H1380  H     0.58565   0.02589   0.96169   0.00000  Uiso   1.00
O1381  O     0.42317   0.12294   0.70406   0.00000  Uiso   1.00
C1382  C     0.37588   0.14146   0.69091   0.00000  Uiso   1.00
H1383  H     0.36082   0.13615   0.98650   0.00000  Uiso   1.00
H1384  H     0.37927   0.17520   0.69965   0.00000  Uiso   1.00
H1385  H     0.34653   0.12690   0.71034   0.00000  Uiso   1.00
O1386  O     0.58764   0.19254   0.96695   0.00000  Uiso   1.00
C1387  C     0.59891   0.23392   0.95735   0.00000  Uiso   1.00
H1388  H     0.64142   0.24021   0.96477   0.00000  Uiso   1.00
H1389  H     0.58124   0.25626   0.97926   0.00000  Uiso   1.00
H1390  H     0.58821   0.23863   0.91950   0.00000  Uiso   1.00
O1391  O     0.42628   0.12047   0.93825   0.00000  Uiso   1.00
C1392  C     0.42418   0.07823   0.94903   0.00000  Uiso   1.00
H1393  H     0.42933   0.05964   0.91729   0.00000  Uiso   1.00
H1394  H     0.38532   0.06929   0.95790   0.00000  Uiso   1.00
H1395  H     0.45364   0.06957   0.97837   0.00000  Uiso   1.00
O1396  O     0.56446   0.22098   0.72596   0.00000  Uiso   1.00
C1397  C     0.61833   0.21729   0.73121   0.00000  Uiso   1.00
H1398  H     0.63698   0.24267   0.71370   0.00000  Uiso   1.00
H1399  H     0.62978   0.18709   0.71850   0.00000  Uiso   1.00
H1400  H     0.63390   0.22215   0.76884   0.00000  Uiso   1.00
C1401  C     0.83321   0.08760   0.83263   0.00000  Uiso   1.00
C1402  C     0.83126   0.24592   0.83376   0.00000  Uiso   1.00
C1403  C     0.73463   0.16482   0.82135   0.00000  Uiso   1.00
C1404  C     0.93202   0.16621   0.84547   0.00000  Uiso   1.00
C1405  C     0.67920   0.16033   0.81563   0.00000  Uiso   1.00
C1406  C     0.98754   0.16672   0.85233   0.00000  Uiso   1.00
C1407  C     0.79950   0.01954   0.79673   0.00000  Uiso   1.00
C1408  C     0.85396   0.31527   0.87298   0.00000  Uiso   1.00
C1409  C     0.80032   0.30970   0.79625   0.00000  Uiso   1.00
C1410  C     0.86192   0.02439   0.86852   0.00000  Uiso   1.00
C1411  C     0.82788   0.29080   0.83471   0.00000  Uiso   1.00
C1412  C     0.83264   0.04309   0.83151   0.00000  Uiso   1.00
C1413  C     0.79540   0.14468   0.68572   0.00000  Uiso   1.00
C1414  C     0.87289   0.18690   0.98123   0.00000  Uiso   1.00
C1415  C     0.79646   0.14359   0.96916   0.00000  Uiso   1.00
C1416  C     0.87029   0.18969   0.69746   0.00000  Uiso   1.00
Cu1417 Cu    0.83333   0.16667   0.88022   0.00000  Uiso   1.00
Cu1418 Cu    0.83333   0.16666   0.78645   0.00000  Uiso   1.00
H1419  H     0.99198   0.15144   0.78130   0.00000  Uiso   1.00
H1420  H     0.67457   0.17391   0.88746   0.00000  Uiso   1.00
N1421  N     0.83335   0.16668   0.95069   0.00000  Uiso   1.00
N1422  N     0.83332   0.16666   0.71597   0.00000  Uiso   1.00
O1423  O     0.83333   0.10655   0.87291   0.00000  Uiso   1.00
O1424  O     0.83334   0.22678   0.79375   0.00000  Uiso   1.00
O1425  O     0.83333   0.10654   0.79372   0.00000  Uiso   1.00
O1426  O     0.83334   0.22679   0.87294   0.00000  Uiso   1.00
O1427  O     0.75828   0.16667   0.86379   0.00000  Uiso   1.00
O1428  O     0.90839   0.16666   0.80288   0.00000  Uiso   1.00
O1429  O     0.75828   0.16666   0.78460   0.00000  Uiso   1.00
O1430  O     0.90839   0.16667   0.88207   0.00000  Uiso   1.00
O1431  O     0.76786   0.03864   0.76229   0.00000  Uiso   1.00
C1432  C     0.71939   0.04259   0.77744   0.00000  Uiso   1.00
H1433  H     0.69380   0.05762   0.74975   0.00000  Uiso   1.00
H1434  H     0.72289   0.06245   0.81002   0.00000  Uiso   1.00
H1435  H     0.70049   0.01192   0.78290   0.00000  Uiso   1.00
O1436  O     0.87119   0.29826   0.91501   0.00000  Uiso   1.00
C1437  C     0.83125   0.29834   0.94354   0.00000  Uiso   1.00
H1438  H     0.81079   0.26743   0.94199   0.00000  Uiso   1.00
H1439  H     0.80221   0.32190   0.93486   0.00000  Uiso   1.00
H1440  H     0.84921   0.30512   0.98033   0.00000  Uiso   1.00
O1441  O     0.76836   0.28570   0.76222   0.00000  Uiso   1.00
C1442  C     0.78848   0.28752   0.71940   0.00000  Uiso   1.00
H1443  H     0.76924   0.26214   0.69549   0.00000  Uiso   1.00
H1444  H     0.83079   0.28313   0.72393   0.00000  Uiso   1.00
H1445  H     0.78007   0.31699   0.70212   0.00000  Uiso   1.00
O1446  O     0.90406   0.04678   0.89408   0.00000  Uiso   1.00
C1447  C     0.89928   0.05083   0.94209   0.00000  Uiso   1.00
H1448  H     0.85866   0.05165   0.94860   0.00000  Uiso   1.00
H1449  H     0.91930   0.08050   0.95623   0.00000  Uiso   1.00
H1450  H     0.91898   0.02589   0.96169   0.00000  Uiso   1.00
O1451  O     0.75651   0.12294   0.70406   0.00000  Uiso   1.00
C1452  C     0.70921   0.14146   0.69091   0.00000  Uiso   1.00
H1453  H     0.69415   0.13615   0.98650   0.00000  Uiso   1.00
H1454  H     0.71260   0.17520   0.69965   0.00000  Uiso   1.00
H1455  H     0.67986   0.12690   0.71034   0.00000  Uiso   1.00
O1456  O     0.92097   0.19254   0.96695   0.00000  Uiso   1.00
C1457  C     0.93225   0.23392   0.95735   0.00000  Uiso   1.00
H1458  H     0.97475   0.24021   0.96477   0.00000  Uiso   1.00
H1459  H     0.91457   0.25626   0.97926   0.00000  Uiso   1.00
H1460  H     0.92155   0.23863   0.91950   0.00000  Uiso   1.00
O1461  O     0.75961   0.12047   0.93825   0.00000  Uiso   1.00
C1462  C     0.75752   0.07823   0.94903   0.00000  Uiso   1.00
H1463  H     0.76266   0.05964   0.91729   0.00000  Uiso   1.00
H1464  H     0.71865   0.06929   0.95790   0.00000  Uiso   1.00
H1465  H     0.78698   0.06957   0.97837   0.00000  Uiso   1.00
O1466  O     0.89779   0.22098   0.72596   0.00000  Uiso   1.00
C1467  C     0.95166   0.21729   0.73121   0.00000  Uiso   1.00
H1468  H     0.97031   0.24267   0.71370   0.00000  Uiso   1.00
H1469  H     0.96311   0.18709   0.71850   0.00000  Uiso   1.00
H1470  H     0.96723   0.22215   0.76884   0.00000  Uiso   1.00
C1471  C     0.16655   0.42093   0.83263   0.00000  Uiso   1.00
C1472  C     0.16459   0.57925   0.83376   0.00000  Uiso   1.00
C1473  C     0.06796   0.49815   0.82135   0.00000  Uiso   1.00
C1474  C     0.26536   0.49955   0.84547   0.00000  Uiso   1.00
C1475  C     0.01254   0.49367   0.81563   0.00000  Uiso   1.00
C1476  C     0.32087   0.50006   0.85233   0.00000  Uiso   1.00
C1477  C     0.13283   0.35287   0.79673   0.00000  Uiso   1.00
C1478  C     0.18729   0.64861   0.87298   0.00000  Uiso   1.00
C1479  C     0.13365   0.64303   0.79625   0.00000  Uiso   1.00
C1480  C     0.19525   0.35772   0.86852   0.00000  Uiso   1.00
C1481  C     0.16121   0.62413   0.83471   0.00000  Uiso   1.00
C1482  C     0.16597   0.37643   0.83151   0.00000  Uiso   1.00
C1483  C     0.12874   0.47801   0.68572   0.00000  Uiso   1.00
C1484  C     0.20622   0.52023   0.98123   0.00000  Uiso   1.00
C1485  C     0.12979   0.47693   0.96916   0.00000  Uiso   1.00
C1486  C     0.20362   0.52302   0.69746   0.00000  Uiso   1.00
Cu1487 Cu    0.16667   0.50001   0.88022   0.00000  Uiso   1.00
Cu1488 Cu    0.16667   0.49999   0.78645   0.00000  Uiso   1.00
H1489  H     0.32531   0.48477   0.78130   0.00000  Uiso   1.00
H1490  H     0.00791   0.50725   0.88746   0.00000  Uiso   1.00
N1491  N     0.16668   0.50001   0.95069   0.00000  Uiso   1.00
N1492  N     0.16665   0.49999   0.71597   0.00000  Uiso   1.00
O1493  O     0.16666   0.43989   0.87291   0.00000  Uiso   1.00
O1494  O     0.16667   0.56011   0.79375   0.00000  Uiso   1.00
O1495  O     0.16666   0.43988   0.79372   0.00000  Uiso   1.00
O1496  O     0.16667   0.56012   0.87294   0.00000  Uiso   1.00
O1497  O     0.09161   0.50000   0.86379   0.00000  Uiso   1.00
O1498  O     0.24172   0.50000   0.80288   0.00000  Uiso   1.00
O1499  O     0.09161   0.49999   0.78460   0.00000  Uiso   1.00
O1500  O     0.24172   0.50001   0.88207   0.00000  Uiso   1.00
O1501  O     0.10119   0.37197   0.76229   0.00000  Uiso   1.00
C1502  C     0.05272   0.37592   0.77744   0.00000  Uiso   1.00
H1503  H     0.02713   0.39095   0.74975   0.00000  Uiso   1.00
H1504  H     0.05622   0.39579   0.81002   0.00000  Uiso   1.00
H1505  H     0.03383   0.34526   0.78290   0.00000  Uiso   1.00
O1506  O     0.20453   0.63160   0.91501   0.00000  Uiso   1.00
C1507  C     0.16459   0.63168   0.94354   0.00000  Uiso   1.00
H1508  H     0.14412   0.60076   0.94199   0.00000  Uiso   1.00
H1509  H     0.13555   0.65523   0.93486   0.00000  Uiso   1.00
H1510  H     0.18254   0.63845   0.98033   0.00000  Uiso   1.00
O1511  O     0.10169   0.61903   0.76222   0.00000  Uiso   1.00
C1512  C     0.12182   0.62085   0.71940   0.00000  Uiso   1.00
H1513  H     0.10258   0.59547   0.69549   0.00000  Uiso   1.00
H1514  H     0.16412   0.61646   0.72393   0.00000  Uiso   1.00
H1515  H     0.11341   0.65032   0.70212   0.00000  Uiso   1.00
O1516  O     0.23739   0.38011   0.89408   0.00000  Uiso   1.00
C1517  C     0.23262   0.38416   0.94209   0.00000  Uiso   1.00
H1518  H     0.19199   0.38498   0.94860   0.00000  Uiso   1.00
H1519  H     0.25263   0.41383   0.95623   0.00000  Uiso   1.00
H1520  H     0.25232   0.35922   0.96169   0.00000  Uiso   1.00
O1521  O     0.08984   0.45627   0.70406   0.00000  Uiso   1.00
C1522  C     0.04255   0.47479   0.69091   0.00000  Uiso   1.00
H1523  H     0.02749   0.46948   0.98650   0.00000  Uiso   1.00
H1524  H     0.04593   0.50853   0.69965   0.00000  Uiso   1.00
H1525  H     0.01320   0.46024   0.71034   0.00000  Uiso   1.00
O1526  O     0.25430   0.52587   0.96695   0.00000  Uiso   1.00
C1527  C     0.26558   0.56725   0.95735   0.00000  Uiso   1.00
H1528  H     0.30809   0.57354   0.96477   0.00000  Uiso   1.00
H1529  H     0.24790   0.58960   0.97926   0.00000  Uiso   1.00
H1530  H     0.25488   0.57197   0.91950   0.00000  Uiso   1.00
O1531  O     0.09295   0.45381   0.93825   0.00000  Uiso   1.00
C1532  C     0.09085   0.41156   0.94903   0.00000  Uiso   1.00
H1533  H     0.09600   0.39297   0.91729   0.00000  Uiso   1.00
H1534  H     0.05198   0.40262   0.95790   0.00000  Uiso   1.00
H1535  H     0.12031   0.40290   0.97837   0.00000  Uiso   1.00
O1536  O     0.23112   0.55431   0.72596   0.00000  Uiso   1.00
C1537  C     0.28500   0.55062   0.73121   0.00000  Uiso   1.00
H1538  H     0.30364   0.57600   0.71370   0.00000  Uiso   1.00
H1539  H     0.29644   0.52042   0.71850   0.00000  Uiso   1.00
H1540  H     0.30057   0.55548   0.76884   0.00000  Uiso   1.00
C1541  C     0.49988   0.42093   0.83263   0.00000  Uiso   1.00
C1542  C     0.49792   0.57925   0.83376   0.00000  Uiso   1.00
C1543  C     0.40129   0.49815   0.82135   0.00000  Uiso   1.00
C1544  C     0.59869   0.49955   0.84547   0.00000  Uiso   1.00
C1545  C     0.34587   0.49367   0.81563   0.00000  Uiso   1.00
C1546  C     0.65420   0.50006   0.85233   0.00000  Uiso   1.00
C1547  C     0.46617   0.35287   0.79673   0.00000  Uiso   1.00
C1548  C     0.52062   0.64861   0.87298   0.00000  Uiso   1.00
C1549  C     0.46698   0.64303   0.79625   0.00000  Uiso   1.00
C1550  C     0.52858   0.35772   0.86852   0.00000  Uiso   1.00
C1551  C     0.49454   0.62413   0.83471   0.00000  Uiso   1.00
C1552  C     0.49931   0.37643   0.83151   0.00000  Uiso   1.00
C1553  C     0.46207   0.47801   0.68572   0.00000  Uiso   1.00
C1554  C     0.53956   0.52023   0.98123   0.00000  Uiso   1.00
C1555  C     0.46312   0.47693   0.96916   0.00000  Uiso   1.00
C1556  C     0.53695   0.52302   0.69746   0.00000  Uiso   1.00
Cu1557 Cu    0.50000   0.50001   0.88022   0.00000  Uiso   1.00
Cu1558 Cu    0.50000   0.49999   0.78645   0.00000  Uiso   1.00
H1559  H     0.65864   0.48477   0.78130   0.00000  Uiso   1.00
H1560  H     0.34124   0.50725   0.88746   0.00000  Uiso   1.00
N1561  N     0.50001   0.50001   0.95069   0.00000  Uiso   1.00
N1562  N     0.49999   0.49999   0.71597   0.00000  Uiso   1.00
O1563  O     0.50000   0.43989   0.87291   0.00000  Uiso   1.00
O1564  O     0.50000   0.56011   0.79375   0.00000  Uiso   1.00
O1565  O     0.50000   0.43988   0.79372   0.00000  Uiso   1.00
O1566  O     0.50000   0.56012   0.87294   0.00000  Uiso   1.00
O1567  O     0.42495   0.50000   0.86379   0.00000  Uiso   1.00
O1568  O     0.57505   0.50000   0.80288   0.00000  Uiso   1.00
O1569  O     0.42494   0.49999   0.78460   0.00000  Uiso   1.00
O1570  O     0.57506   0.50001   0.88207   0.00000  Uiso   1.00
O1571  O     0.43452   0.37197   0.76229   0.00000  Uiso   1.00
C1572  C     0.38605   0.37592   0.77744   0.00000  Uiso   1.00
H1573  H     0.36046   0.39095   0.74975   0.00000  Uiso   1.00
H1574  H     0.38956   0.39579   0.81002   0.00000  Uiso   1.00
H1575  H     0.36716   0.34526   0.78290   0.00000  Uiso   1.00
O1576  O     0.53786   0.63160   0.91501   0.00000  Uiso   1.00
C1577  C     0.49792   0.63168   0.94354   0.00000  Uiso   1.00
H1578  H     0.47746   0.60076   0.94199   0.00000  Uiso   1.00
H1579  H     0.46888   0.65523   0.93486   0.00000  Uiso   1.00
H1580  H     0.51587   0.63845   0.98033   0.00000  Uiso   1.00
O1581  O     0.43502   0.61903   0.76222   0.00000  Uiso   1.00
C1582  C     0.45515   0.62085   0.71940   0.00000  Uiso   1.00
H1583  H     0.43591   0.59547   0.69549   0.00000  Uiso   1.00
H1584  H     0.49745   0.61646   0.72393   0.00000  Uiso   1.00
H1585  H     0.44674   0.65032   0.70212   0.00000  Uiso   1.00
O1586  O     0.57073   0.38011   0.89408   0.00000  Uiso   1.00
C1587  C     0.56595   0.38416   0.94209   0.00000  Uiso   1.00
H1588  H     0.52532   0.38498   0.94860   0.00000  Uiso   1.00
H1589  H     0.58596   0.41383   0.95623   0.00000  Uiso   1.00
H1590  H     0.58565   0.35922   0.96169   0.00000  Uiso   1.00
O1591  O     0.42317   0.45627   0.70406   0.00000  Uiso   1.00
C1592  C     0.37588   0.47479   0.69091   0.00000  Uiso   1.00
H1593  H     0.36082   0.46948   0.98650   0.00000  Uiso   1.00
H1594  H     0.37927   0.50853   0.69965   0.00000  Uiso   1.00
H1595  H     0.34653   0.46024   0.71034   0.00000  Uiso   1.00
O1596  O     0.58764   0.52587   0.96695   0.00000  Uiso   1.00
C1597  C     0.59891   0.56725   0.95735   0.00000  Uiso   1.00
H1598  H     0.64142   0.57354   0.96477   0.00000  Uiso   1.00
H1599  H     0.58124   0.58960   0.97926   0.00000  Uiso   1.00
H1600  H     0.58821   0.57197   0.91950   0.00000  Uiso   1.00
O1601  O     0.42628   0.45381   0.93825   0.00000  Uiso   1.00
C1602  C     0.42418   0.41156   0.94903   0.00000  Uiso   1.00
H1603  H     0.42933   0.39297   0.91729   0.00000  Uiso   1.00
H1604  H     0.38532   0.40262   0.95790   0.00000  Uiso   1.00
H1605  H     0.45364   0.40290   0.97837   0.00000  Uiso   1.00
O1606  O     0.56446   0.55431   0.72596   0.00000  Uiso   1.00
C1607  C     0.61833   0.55062   0.73121   0.00000  Uiso   1.00
H1608  H     0.63698   0.57600   0.71370   0.00000  Uiso   1.00
H1609  H     0.62978   0.52042   0.71850   0.00000  Uiso   1.00
H1610  H     0.63390   0.55548   0.76884   0.00000  Uiso   1.00
C1611  C     0.83321   0.42093   0.83263   0.00000  Uiso   1.00
C1612  C     0.83126   0.57925   0.83376   0.00000  Uiso   1.00
C1613  C     0.73463   0.49815   0.82135   0.00000  Uiso   1.00
C1614  C     0.93202   0.49955   0.84547   0.00000  Uiso   1.00
C1615  C     0.67920   0.49367   0.81563   0.00000  Uiso   1.00
C1616  C     0.98754   0.50006   0.85233   0.00000  Uiso   1.00
C1617  C     0.79950   0.35287   0.79673   0.00000  Uiso   1.00
C1618  C     0.85396   0.64861   0.87298   0.00000  Uiso   1.00
C1619  C     0.80032   0.64303   0.79625   0.00000  Uiso   1.00
C1620  C     0.86192   0.35772   0.86852   0.00000  Uiso   1.00
C1621  C     0.82788   0.62413   0.83471   0.00000  Uiso   1.00
C1622  C     0.83264   0.37643   0.83151   0.00000  Uiso   1.00
C1623  C     0.79540   0.47801   0.68572   0.00000  Uiso   1.00
C1624  C     0.87289   0.52023   0.98123   0.00000  Uiso   1.00
C1625  C     0.79646   0.47693   0.96916   0.00000  Uiso   1.00
C1626  C     0.87029   0.52302   0.69746   0.00000  Uiso   1.00
Cu1627 Cu    0.83333   0.50001   0.88022   0.00000  Uiso   1.00
Cu1628 Cu    0.83333   0.49999   0.78645   0.00000  Uiso   1.00
H1629  H     0.99198   0.48477   0.78130   0.00000  Uiso   1.00
H1630  H     0.67457   0.50725   0.88746   0.00000  Uiso   1.00
N1631  N     0.83335   0.50001   0.95069   0.00000  Uiso   1.00
N1632  N     0.83332   0.49999   0.71597   0.00000  Uiso   1.00
O1633  O     0.83333   0.43989   0.87291   0.00000  Uiso   1.00
O1634  O     0.83334   0.56011   0.79375   0.00000  Uiso   1.00
O1635  O     0.83333   0.43988   0.79372   0.00000  Uiso   1.00
O1636  O     0.83334   0.56012   0.87294   0.00000  Uiso   1.00
O1637  O     0.75828   0.50000   0.86379   0.00000  Uiso   1.00
O1638  O     0.90839   0.50000   0.80288   0.00000  Uiso   1.00
O1639  O     0.75828   0.49999   0.78460   0.00000  Uiso   1.00
O1640  O     0.90839   0.50001   0.88207   0.00000  Uiso   1.00
O1641  O     0.76786   0.37197   0.76229   0.00000  Uiso   1.00
C1642  C     0.71939   0.37592   0.77744   0.00000  Uiso   1.00
H1643  H     0.69380   0.39095   0.74975   0.00000  Uiso   1.00
H1644  H     0.72289   0.39579   0.81002   0.00000  Uiso   1.00
H1645  H     0.70049   0.34526   0.78290   0.00000  Uiso   1.00
O1646  O     0.87119   0.63160   0.91501   0.00000  Uiso   1.00
C1647  C     0.83125   0.63168   0.94354   0.00000  Uiso   1.00
H1648  H     0.81079   0.60076   0.94199   0.00000  Uiso   1.00
H1649  H     0.80221   0.65523   0.93486   0.00000  Uiso   1.00
H1650  H     0.84921   0.63845   0.98033   0.00000  Uiso   1.00
O1651  O     0.76836   0.61903   0.76222   0.00000  Uiso   1.00
C1652  C     0.78848   0.62085   0.71940   0.00000  Uiso   1.00
H1653  H     0.76924   0.59547   0.69549   0.00000  Uiso   1.00
H1654  H     0.83079   0.61646   0.72393   0.00000  Uiso   1.00
H1655  H     0.78007   0.65032   0.70212   0.00000  Uiso   1.00
O1656  O     0.90406   0.38011   0.89408   0.00000  Uiso   1.00
C1657  C     0.89928   0.38416   0.94209   0.00000  Uiso   1.00
H1658  H     0.85866   0.38498   0.94860   0.00000  Uiso   1.00
H1659  H     0.91930   0.41383   0.95623   0.00000  Uiso   1.00
H1660  H     0.91898   0.35922   0.96169   0.00000  Uiso   1.00
O1661  O     0.75651   0.45627   0.70406   0.00000  Uiso   1.00
C1662  C     0.70921   0.47479   0.69091   0.00000  Uiso   1.00
H1663  H     0.69415   0.46948   0.98650   0.00000  Uiso   1.00
H1664  H     0.71260   0.50853   0.69965   0.00000  Uiso   1.00
H1665  H     0.67986   0.46024   0.71034   0.00000  Uiso   1.00
O1666  O     0.92097   0.52587   0.96695   0.00000  Uiso   1.00
C1667  C     0.93225   0.56725   0.95735   0.00000  Uiso   1.00
H1668  H     0.97475   0.57354   0.96477   0.00000  Uiso   1.00
H1669  H     0.91457   0.58960   0.97926   0.00000  Uiso   1.00
H1670  H     0.92155   0.57197   0.91950   0.00000  Uiso   1.00
O1671  O     0.75961   0.45381   0.93825   0.00000  Uiso   1.00
C1672  C     0.75752   0.41156   0.94903   0.00000  Uiso   1.00
H1673  H     0.76266   0.39297   0.91729   0.00000  Uiso   1.00
H1674  H     0.71865   0.40262   0.95790   0.00000  Uiso   1.00
H1675  H     0.78698   0.40290   0.97837   0.00000  Uiso   1.00
O1676  O     0.89779   0.55431   0.72596   0.00000  Uiso   1.00
C1677  C     0.95166   0.55062   0.73121   0.00000  Uiso   1.00
H1678  H     0.97031   0.57600   0.71370   0.00000  Uiso   1.00
H1679  H     0.96311   0.52042   0.71850   0.00000  Uiso   1.00
H1680  H     0.96723   0.55548   0.76884   0.00000  Uiso   1.00
C1681  C     0.16655   0.75426   0.83263   0.00000  Uiso   1.00
C1682  C     0.16459   0.91258   0.83376   0.00000  Uiso   1.00
C1683  C     0.06796   0.83149   0.82135   0.00000  Uiso   1.00
C1684  C     0.26536   0.83288   0.84547   0.00000  Uiso   1.00
C1685  C     0.01254   0.82700   0.81563   0.00000  Uiso   1.00
C1686  C     0.32087   0.83339   0.85233   0.00000  Uiso   1.00
C1687  C     0.13283   0.68621   0.79673   0.00000  Uiso   1.00
C1688  C     0.18729   0.98194   0.87298   0.00000  Uiso   1.00
C1689  C     0.13365   0.97636   0.79625   0.00000  Uiso   1.00
C1690  C     0.19525   0.69106   0.86852   0.00000  Uiso   1.00
C1691  C     0.16121   0.95747   0.83471   0.00000  Uiso   1.00
C1692  C     0.16597   0.70976   0.83151   0.00000  Uiso   1.00
C1693  C     0.12874   0.81135   0.68572   0.00000  Uiso   1.00
C1694  C     0.20622   0.85356   0.98123   0.00000  Uiso   1.00
C1695  C     0.12979   0.81026   0.96916   0.00000  Uiso   1.00
C1696  C     0.20362   0.85635   0.69746   0.00000  Uiso   1.00
Cu1697 Cu    0.16667   0.83334   0.88022   0.00000  Uiso   1.00
Cu1698 Cu    0.16667   0.83333   0.78645   0.00000  Uiso   1.00
H1699  H     0.32531   0.81810   0.78130   0.00000  Uiso   1.00
H1700  H     0.00791   0.84058   0.88746   0.00000  Uiso   1.00
N1701  N     0.16668   0.83334   0.95069   0.00000  Uiso   1.00
N1702  N     0.16665   0.83332   0.71597   0.00000  Uiso   1.00
O1703  O     0.16666   0.77322   0.87291   0.00000  Uiso   1.00
O1704  O     0.16667   0.89345   0.79375   0.00000  Uiso   1.00
O1705  O     0.16666   0.77321   0.79372   0.00000  Uiso   1.00
O1706  O     0.16667   0.89346   0.87294   0.00000  Uiso   1.00
O1707  O     0.09161   0.83334   0.86379   0.00000  Uiso   1.00
O1708  O     0.24172   0.83333   0.80288   0.00000  Uiso   1.00
O1709  O     0.09161   0.83333   0.78460   0.00000  Uiso   1.00
O1710  O     0.24172   0.83334   0.88207   0.00000  Uiso   1.00
O1711  O     0.10119   0.70530   0.76229   0.00000  Uiso   1.00
C1712  C     0.05272   0.70925   0.77744   0.00000  Uiso   1.00
H1713  H     0.02713   0.72429   0.74975   0.00000  Uiso   1.00
H1714  H     0.05622   0.72912   0.81002   0.00000  Uiso   1.00
H1715  H     0.03383   0.67859   0.78290   0.00000  Uiso   1.00
O1716  O     0.20453   0.96493   0.91501   0.00000  Uiso   1.00
C1717  C     0.16459   0.96501   0.94354   0.00000  Uiso   1.00
H1718  H     0.14412   0.93410   0.94199   0.00000  Uiso   1.00
H1719  H     0.13555   0.98857   0.93486   0.00000  Uiso   1.00
H1720  H     0.18254   0.97178   0.98033   0.00000  Uiso   1.00
O1721  O     0.10169   0.95236   0.76222   0.00000  Uiso   1.00
C1722  C     0.12182   0.95418   0.71940   0.00000  Uiso   1.00
H1723  H     0.10258   0.92881   0.69549   0.00000  Uiso   1.00
H1724  H     0.16412   0.94979   0.72393   0.00000  Uiso   1.00
H1725  H     0.11341   0.98365   0.70212   0.00000  Uiso   1.00
O1726  O     0.23739   0.71344   0.89408   0.00000  Uiso   1.00
C1727  C     0.23262   0.71750   0.94209   0.00000  Uiso   1.00
H1728  H     0.19199   0.71831   0.94860   0.00000  Uiso   1.00
H1729  H     0.25263   0.74716   0.95623   0.00000  Uiso   1.00
H1730  H     0.25232   0.69255   0.96169   0.00000  Uiso   1.00
O1731  O     0.08984   0.78961   0.70406   0.00000  Uiso   1.00
C1732  C     0.04255   0.80813   0.69091   0.00000  Uiso   1.00
H1733  H     0.02749   0.80281   0.98650   0.00000  Uiso   1.00
H1734  H     0.04593   0.84187   0.69965   0.00000  Uiso   1.00
H1735  H     0.01320   0.79357   0.71034   0.00000  Uiso   1.00
O1736  O     0.25430   0.85921   0.96695   0.00000  Uiso   1.00
C1737  C     0.26558   0.90058   0.95735   0.00000  Uiso   1.00
H1738  H     0.30809   0.90687   0.96477   0.00000  Uiso   1.00
H1739  H     0.24790   0.92293   0.97926   0.00000  Uiso   1.00
H1740  H     0.25488   0.90530   0.91950   0.00000  Uiso   1.00
O1741  O     0.09295   0.78714   0.93825   0.00000  Uiso   1.00
C1742  C     0.09085   0.74489   0.94903   0.00000  Uiso   1.00
H1743  H     0.09600   0.72631   0.91729   0.00000  Uiso   1.00
H1744  H     0.05198   0.73595   0.95790   0.00000  Uiso   1.00
H1745  H     0.12031   0.73623   0.97837   0.00000  Uiso   1.00
O1746  O     0.23112   0.88765   0.72596   0.00000  Uiso   1.00
C1747  C     0.28500   0.88395   0.73121   0.00000  Uiso   1.00
H1748  H     0.30364   0.90934   0.71370   0.00000  Uiso   1.00
H1749  H     0.29644   0.85375   0.71850   0.00000  Uiso   1.00
H1750  H     0.30057   0.88882   0.76884   0.00000  Uiso   1.00
C1751  C     0.49988   0.75426   0.83263   0.00000  Uiso   1.00
C1752  C     0.49792   0.91258   0.83376   0.00000  Uiso   1.00
C1753  C     0.40129   0.83149   0.82135   0.00000  Uiso   1.00
C1754  C     0.59869   0.83288   0.84547   0.00000  Uiso   1.00
C1755  C     0.34587   0.82700   0.81563   0.00000  Uiso   1.00
C1756  C     0.65420   0.83339   0.85233   0.00000  Uiso   1.00
C1757  C     0.46617   0.68621   0.79673   0.00000  Uiso   1.00
C1758  C     0.52062   0.98194   0.87298   0.00000  Uiso   1.00
C1759  C     0.46698   0.97636   0.79625   0.00000  Uiso   1.00
C1760  C     0.52858   0.69106   0.86852   0.00000  Uiso   1.00
C1761  C     0.49454   0.95747   0.83471   0.00000  Uiso   1.00
C1762  C     0.49931   0.70976   0.83151   0.00000  Uiso   1.00
C1763  C     0.46207   0.81135   0.68572   0.00000  Uiso   1.00
C1764  C     0.53956   0.85356   0.98123   0.00000  Uiso   1.00
C1765  C     0.46312   0.81026   0.96916   0.00000  Uiso   1.00
C1766  C     0.53695   0.85635   0.69746   0.00000  Uiso   1.00
Cu1767 Cu    0.50000   0.83334   0.88022   0.00000  Uiso   1.00
Cu1768 Cu    0.50000   0.83333   0.78645   0.00000  Uiso   1.00
H1769  H     0.65864   0.81810   0.78130   0.00000  Uiso   1.00
H1770  H     0.34124   0.84058   0.88746   0.00000  Uiso   1.00
N1771  N     0.50001   0.83334   0.95069   0.00000  Uiso   1.00
N1772  N     0.49999   0.83332   0.71597   0.00000  Uiso   1.00
O1773  O     0.50000   0.77322   0.87291   0.00000  Uiso   1.00
O1774  O     0.50000   0.89345   0.79375   0.00000  Uiso   1.00
O1775  O     0.50000   0.77321   0.79372   0.00000  Uiso   1.00
O1776  O     0.50000   0.89346   0.87294   0.00000  Uiso   1.00
O1777  O     0.42495   0.83334   0.86379   0.00000  Uiso   1.00
O1778  O     0.57505   0.83333   0.80288   0.00000  Uiso   1.00
O1779  O     0.42494   0.83333   0.78460   0.00000  Uiso   1.00
O1780  O     0.57506   0.83334   0.88207   0.00000  Uiso   1.00
O1781  O     0.43452   0.70530   0.76229   0.00000  Uiso   1.00
C1782  C     0.38605   0.70925   0.77744   0.00000  Uiso   1.00
H1783  H     0.36046   0.72429   0.74975   0.00000  Uiso   1.00
H1784  H     0.38956   0.72912   0.81002   0.00000  Uiso   1.00
H1785  H     0.36716   0.67859   0.78290   0.00000  Uiso   1.00
O1786  O     0.53786   0.96493   0.91501   0.00000  Uiso   1.00
C1787  C     0.49792   0.96501   0.94354   0.00000  Uiso   1.00
H1788  H     0.47746   0.93410   0.94199   0.00000  Uiso   1.00
H1789  H     0.46888   0.98857   0.93486   0.00000  Uiso   1.00
H1790  H     0.51587   0.97178   0.98033   0.00000  Uiso   1.00
O1791  O     0.43502   0.95236   0.76222   0.00000  Uiso   1.00
C1792  C     0.45515   0.95418   0.71940   0.00000  Uiso   1.00
H1793  H     0.43591   0.92881   0.69549   0.00000  Uiso   1.00
H1794  H     0.49745   0.94979   0.72393   0.00000  Uiso   1.00
H1795  H     0.44674   0.98365   0.70212   0.00000  Uiso   1.00
O1796  O     0.57073   0.71344   0.89408   0.00000  Uiso   1.00
C1797  C     0.56595   0.71750   0.94209   0.00000  Uiso   1.00
H1798  H     0.52532   0.71831   0.94860   0.00000  Uiso   1.00
H1799  H     0.58596   0.74716   0.95623   0.00000  Uiso   1.00
H1800  H     0.58565   0.69255   0.96169   0.00000  Uiso   1.00
O1801  O     0.42317   0.78961   0.70406   0.00000  Uiso   1.00
C1802  C     0.37588   0.80813   0.69091   0.00000  Uiso   1.00
H1803  H     0.36082   0.80281   0.98650   0.00000  Uiso   1.00
H1804  H     0.37927   0.84187   0.69965   0.00000  Uiso   1.00
H1805  H     0.34653   0.79357   0.71034   0.00000  Uiso   1.00
O1806  O     0.58764   0.85921   0.96695   0.00000  Uiso   1.00
C1807  C     0.59891   0.90058   0.95735   0.00000  Uiso   1.00
H1808  H     0.64142   0.90687   0.96477   0.00000  Uiso   1.00
H1809  H     0.58124   0.92293   0.97926   0.00000  Uiso   1.00
H1810  H     0.58821   0.90530   0.91950   0.00000  Uiso   1.00
O1811  O     0.42628   0.78714   0.93825   0.00000  Uiso   1.00
C1812  C     0.42418   0.74489   0.94903   0.00000  Uiso   1.00
H1813  H     0.42933   0.72631   0.91729   0.00000  Uiso   1.00
H1814  H     0.38532   0.73595   0.95790   0.00000  Uiso   1.00
H1815  H     0.45364   0.73623   0.97837   0.00000  Uiso   1.00
O1816  O     0.56446   0.88765   0.72596   0.00000  Uiso   1.00
C1817  C     0.61833   0.88395   0.73121   0.00000  Uiso   1.00
H1818  H     0.63698   0.90934   0.71370   0.00000  Uiso   1.00
H1819  H     0.62978   0.85375   0.71850   0.00000  Uiso   1.00
H1820  H     0.63390   0.88882   0.76884   0.00000  Uiso   1.00
C1821  C     0.83321   0.75426   0.83263   0.00000  Uiso   1.00
C1822  C     0.83126   0.91258   0.83376   0.00000  Uiso   1.00
C1823  C     0.73463   0.83149   0.82135   0.00000  Uiso   1.00
C1824  C     0.93202   0.83288   0.84547   0.00000  Uiso   1.00
C1825  C     0.67920   0.82700   0.81563   0.00000  Uiso   1.00
C1826  C     0.98754   0.83339   0.85233   0.00000  Uiso   1.00
C1827  C     0.79950   0.68621   0.79673   0.00000  Uiso   1.00
C1828  C     0.85396   0.98194   0.87298   0.00000  Uiso   1.00
C1829  C     0.80032   0.97636   0.79625   0.00000  Uiso   1.00
C1830  C     0.86192   0.69106   0.86852   0.00000  Uiso   1.00
C1831  C     0.82788   0.95747   0.83471   0.00000  Uiso   1.00
C1832  C     0.83264   0.70976   0.83151   0.00000  Uiso   1.00
C1833  C     0.79540   0.81135   0.68572   0.00000  Uiso   1.00
C1834  C     0.87289   0.85356   0.98123   0.00000  Uiso   1.00
C1835  C     0.79646   0.81026   0.96916   0.00000  Uiso   1.00
C1836  C     0.87029   0.85635   0.69746   0.00000  Uiso   1.00
Cu1837 Cu    0.83333   0.83334   0.88022   0.00000  Uiso   1.00
Cu1838 Cu    0.83333   0.83333   0.78645   0.00000  Uiso   1.00
H1839  H     0.99198   0.81810   0.78130   0.00000  Uiso   1.00
H1840  H     0.67457   0.84058   0.88746   0.00000  Uiso   1.00
N1841  N     0.83335   0.83334   0.95069   0.00000  Uiso   1.00
N1842  N     0.83332   0.83332   0.71597   0.00000  Uiso   1.00
O1843  O     0.83333   0.77322   0.87291   0.00000  Uiso   1.00
O1844  O     0.83334   0.89345   0.79375   0.00000  Uiso   1.00
O1845  O     0.83333   0.77321   0.79372   0.00000  Uiso   1.00
O1846  O     0.83334   0.89346   0.87294   0.00000  Uiso   1.00
O1847  O     0.75828   0.83334   0.86379   0.00000  Uiso   1.00
O1848  O     0.90839   0.83333   0.80288   0.00000  Uiso   1.00
O1849  O     0.75828   0.83333   0.78460   0.00000  Uiso   1.00
O1850  O     0.90839   0.83334   0.88207   0.00000  Uiso   1.00
O1851  O     0.76786   0.70530   0.76229   0.00000  Uiso   1.00
C1852  C     0.71939   0.70925   0.77744   0.00000  Uiso   1.00
H1853  H     0.69380   0.72429   0.74975   0.00000  Uiso   1.00
H1854  H     0.72289   0.72912   0.81002   0.00000  Uiso   1.00
H1855  H     0.70049   0.67859   0.78290   0.00000  Uiso   1.00
O1856  O     0.87119   0.96493   0.91501   0.00000  Uiso   1.00
C1857  C     0.83125   0.96501   0.94354   0.00000  Uiso   1.00
H1858  H     0.81079   0.93410   0.94199   0.00000  Uiso   1.00
H1859  H     0.80221   0.98857   0.93486   0.00000  Uiso   1.00
H1860  H     0.84921   0.97178   0.98033   0.00000  Uiso   1.00
O1861  O     0.76836   0.95236   0.76222   0.00000  Uiso   1.00
C1862  C     0.78848   0.95418   0.71940   0.00000  Uiso   1.00
H1863  H     0.76924   0.92881   0.69549   0.00000  Uiso   1.00
H1864  H     0.83079   0.94979   0.72393   0.00000  Uiso   1.00
H1865  H     0.78007   0.98365   0.70212   0.00000  Uiso   1.00
O1866  O     0.90406   0.71344   0.89408   0.00000  Uiso   1.00
C1867  C     0.89928   0.71750   0.94209   0.00000  Uiso   1.00
H1868  H     0.85866   0.71831   0.94860   0.00000  Uiso   1.00
H1869  H     0.91930   0.74716   0.95623   0.00000  Uiso   1.00
H1870  H     0.91898   0.69255   0.96169   0.00000  Uiso   1.00
O1871  O     0.75651   0.78961   0.70406   0.00000  Uiso   1.00
C1872  C     0.70921   0.80813   0.69091   0.00000  Uiso   1.00
H1873  H     0.69415   0.80281   0.98650   0.00000  Uiso   1.00
H1874  H     0.71260   0.84187   0.69965   0.00000  Uiso   1.00
H1875  H     0.67986   0.79357   0.71034   0.00000  Uiso   1.00
O1876  O     0.92097   0.85921   0.96695   0.00000  Uiso   1.00
C1877  C     0.93225   0.90058   0.95735   0.00000  Uiso   1.00
H1878  H     0.97475   0.90687   0.96477   0.00000  Uiso   1.00
H1879  H     0.91457   0.92293   0.97926   0.00000  Uiso   1.00
H1880  H     0.92155   0.90530   0.91950   0.00000  Uiso   1.00
O1881  O     0.75961   0.78714   0.93825   0.00000  Uiso   1.00
C1882  C     0.75752   0.74489   0.94903   0.00000  Uiso   1.00
H1883  H     0.76266   0.72631   0.91729   0.00000  Uiso   1.00
H1884  H     0.71865   0.73595   0.95790   0.00000  Uiso   1.00
H1885  H     0.78698   0.73623   0.97837   0.00000  Uiso   1.00
O1886  O     0.89779   0.88765   0.72596   0.00000  Uiso   1.00
C1887  C     0.95166   0.88395   0.73121   0.00000  Uiso   1.00
H1888  H     0.97031   0.90934   0.71370   0.00000  Uiso   1.00
H1889  H     0.96311   0.85375   0.71850   0.00000  Uiso   1.00
H1890  H     0.96723   0.88882   0.76884   0.00000  Uiso   1.00
loop_
_geom_bond_atom_site_label_1
_geom_bond_atom_site_label_2
_geom_bond_distance
_geom_bond_site_symmetry_2
_ccdc_geom_bond_type
C1     O23     1.297   .     A
C1     O25     1.294   .     A
C1     C12     1.445   .     S
C2     O26     1.300   .     A
C2     O24     1.303   .     A
C2     C11     1.466   .     S
C3     O27     1.288   .     A
C3     O29     1.301   .     A
C3     C5      1.436   .     S
C4     O28     1.294   .     A
C4     C6      1.438   .     S
C4     O30     1.296   .     A
C5     C146    1.337   1_455 S
C5     H159    1.080   1_455 S
C6     C75     1.337   .     S
C6     H90     1.087   .     S
C7     C12     1.407   .     A
C7     O31     1.383   .     S
C7     C429    1.404   1_545 S
C8     C11     1.411   .     A
C8     O36     1.373   .     S
C8     C220    1.396   .     S
C9     O41     1.386   .     S
C9     C11     1.409   .     A
C9     C217    1.404   .     S
C10    O46     1.393   .     S
C10    C12     1.396   .     A
C10    C428    1.396   1_545 S
C13    N22     1.377   .     A
C13    O51     1.382   .     S
C13    C1275   1.441   1_554 S
C14    O56     1.383   .     S
C14    N21     1.382   .     A
C14    C646    1.439   .     S
C15    O61     1.388   .     S
C15    N21     1.367   .     A
C15    C643    1.441   .     S
C16    O66     1.389   .     S
C16    N22     1.368   .     A
C16    C1274   1.439   1_554 S
Cu17   Cu18    2.701   .     S
Cu17   O30     1.958   .     S
Cu17   O23     1.959   .     S
Cu17   O26     1.971   .     S
Cu17   O27     1.954   .     S
Cu17   N21     2.030   .     S
Cu18   N22     2.030   .     S
Cu18   O29     1.958   .     S
Cu18   O25     1.971   .     S
Cu18   O24     1.959   .     S
Cu18   O28     1.954   .     S
H19    C75     1.080   .     S
H20    C146    1.087   1_455 S
O31    C32     1.410   .     S
C32    H33     1.109   .     S
C32    H35     1.113   .     S
C32    H34     1.114   .     S
O36    C37     1.419   .     S
C37    H38     1.109   .     S
C37    H40     1.107   .     S
C37    H39     1.117   .     S
O41    C42     1.410   .     S
C42    H44     1.114   .     S
C42    H43     1.110   .     S
C42    H45     1.110   .     S
O46    C47     1.409   .     S
C47    H48     1.107   .     S
C47    H50     1.109   .     S
C47    H49     1.110   .     S
O51    C52     1.414   .     S
C52    H55     1.107   .     S
C52    H54     1.114   .     S
C52    H1313   1.108   1_554 S
H53    C682    1.108   .     S
O56    C57     1.405   .     S
C57    H58     1.109   .     S
C57    H59     1.110   .     S
C57    H60     1.104   .     S
O61    C62     1.416   .     S
C62    H63     1.109   .     S
C62    H64     1.109   .     S
C62    H65     1.114   .     S
O66    C67     1.409   .     S
C67    H70     1.106   .     S
C67    H69     1.109   .     S
C67    H68     1.106   .     S
C71    O93     1.297   .     A
C71    O95     1.294   .     A
C71    C82     1.445   .     S
C72    O96     1.300   .     A
C72    O94     1.303   .     A
C72    C81     1.466   .     S
C73    O97     1.288   .     A
C73    O99     1.301   .     A
C73    C75     1.436   .     S
C74    O98     1.294   .     A
C74    C76     1.438   .     S
C74    O100    1.296   .     A
C76    C145    1.337   .     S
C76    H160    1.087   .     S
C77    C82     1.407   .     A
C77    O101    1.383   .     S
C77    C499    1.404   1_545 S
C78    C81     1.411   .     A
C78    O106    1.373   .     S
C78    C290    1.396   .     S
C79    O111    1.386   .     S
C79    C81     1.409   .     A
C79    C287    1.404   .     S
C80    O116    1.393   .     S
C80    C82     1.396   .     A
C80    C498    1.396   1_545 S
C83    N92     1.377   .     A
C83    O121    1.382   .     S
C83    C1345   1.441   1_554 S
C84    O126    1.383   .     S
C84    N91     1.382   .     A
C84    C716    1.439   .     S
C85    O131    1.388   .     S
C85    N91     1.367   .     A
C85    C713    1.441   .     S
C86    O136    1.389   .     S
C86    N92     1.368   .     A
C86    C1344   1.439   1_554 S
Cu87   Cu88    2.701   .     S
Cu87   O100    1.958   .     S
Cu87   O93     1.959   .     S
Cu87   O96     1.971   .     S
Cu87   O97     1.954   .     S
Cu87   N91     2.030   .     S
Cu88   N92     2.030   .     S
Cu88   O99     1.958   .     S
Cu88   O95     1.971   .     S
Cu88   O94     1.959   .     S
Cu88   O98     1.954   .     S
H89    C145    1.080   .     S
O101   C102    1.410   .     S
C102   H103    1.109   .     S
C102   H105    1.113   .     S
C102   H104    1.114   .     S
O106   C107    1.419   .     S
C107   H108    1.109   .     S
C107   H110    1.107   .     S
C107   H109    1.117   .     S
O111   C112    1.410   .     S
C112   H114    1.114   .     S
C112   H113    1.110   .     S
C112   H115    1.110   .     S
O116   C117    1.409   .     S
C117   H118    1.107   .     S
C117   H120    1.109   .     S
C117   H119    1.110   .     S
O121   C122    1.414   .     S
C122   H125    1.107   .     S
C122   H124    1.114   .     S
C122   H1383   1.108   1_554 S
H123   C752    1.108   .     S
O126   C127    1.405   .     S
C127   H128    1.109   .     S
C127   H129    1.110   .     S
C127   H130    1.104   .     S
O131   C132    1.416   .     S
C132   H133    1.109   .     S
C132   H134    1.109   .     S
C132   H135    1.114   .     S
O136   C137    1.409   .     S
C137   H140    1.106   .     S
C137   H139    1.109   .     S
C137   H138    1.106   .     S
C141   O163    1.297   .     A
C141   O165    1.294   .     A
C141   C152    1.445   .     S
C142   O166    1.300   .     A
C142   O164    1.303   .     A
C142   C151    1.466   .     S
C143   O167    1.288   .     A
C143   O169    1.301   .     A
C143   C145    1.436   .     S
C144   O168    1.294   .     A
C144   C146    1.438   .     S
C144   O170    1.296   .     A
C146   C5      1.337   1_655 S
C146   H20     1.087   1_655 S
C147   C152    1.407   .     A
C147   O171    1.383   .     S
C147   C569    1.404   1_545 S
C148   C151    1.411   .     A
C148   O176    1.373   .     S
C148   C360    1.396   .     S
C149   O181    1.386   .     S
C149   C151    1.409   .     A
C149   C357    1.404   .     S
C150   O186    1.393   .     S
C150   C152    1.396   .     A
C150   C568    1.396   1_545 S
C153   N162    1.377   .     A
C153   O191    1.382   .     S
C153   C1415   1.441   1_554 S
C154   O196    1.383   .     S
C154   N161    1.382   .     A
C154   C786    1.439   .     S
C155   O201    1.388   .     S
C155   N161    1.367   .     A
C155   C783    1.441   .     S
C156   O206    1.389   .     S
C156   N162    1.368   .     A
C156   C1414   1.439   1_554 S
Cu157  Cu158   2.701   .     S
Cu157  O170    1.958   .     S
Cu157  O163    1.959   .     S
Cu157  O166    1.971   .     S
Cu157  O167    1.954   .     S
Cu157  N161    2.030   .     S
Cu158  N162    2.030   .     S
Cu158  O169    1.958   .     S
Cu158  O165    1.971   .     S
Cu158  O164    1.959   .     S
Cu158  O168    1.954   .     S
H159   C5      1.080   1_655 S
O171   C172    1.410   .     S
C172   H173    1.109   .     S
C172   H175    1.113   .     S
C172   H174    1.114   .     S
O176   C177    1.419   .     S
C177   H178    1.109   .     S
C177   H180    1.107   .     S
C177   H179    1.117   .     S
O181   C182    1.410   .     S
C182   H184    1.114   .     S
C182   H183    1.110   .     S
C182   H185    1.110   .     S
O186   C187    1.409   .     S
C187   H188    1.107   .     S
C187   H190    1.109   .     S
C187   H189    1.110   .     S
O191   C192    1.414   .     S
C192   H195    1.107   .     S
C192   H194    1.114   .     S
C192   H1453   1.108   1_554 S
H193   C822    1.108   .     S
O196   C197    1.405   .     S
C197   H198    1.109   .     S
C197   H199    1.110   .     S
C197   H200    1.104   .     S
O201   C202    1.416   .     S
C202   H203    1.109   .     S
C202   H204    1.109   .     S
C202   H205    1.114   .     S
O206   C207    1.409   .     S
C207   H210    1.106   .     S
C207   H209    1.109   .     S
C207   H208    1.106   .     S
C211   O233    1.297   .     A
C211   O235    1.294   .     A
C211   C222    1.445   .     S
C212   O236    1.300   .     A
C212   O234    1.303   .     A
C212   C221    1.466   .     S
C213   O237    1.288   .     A
C213   O239    1.301   .     A
C213   C215    1.436   .     S
C214   O238    1.294   .     A
C214   C216    1.438   .     S
C214   O240    1.296   .     A
C215   C356    1.337   1_455 S
C215   H369    1.080   1_455 S
C216   C285    1.337   .     S
C216   H300    1.087   .     S
C217   C222    1.407   .     A
C217   O241    1.383   .     S
C218   C221    1.411   .     A
C218   O246    1.373   .     S
C218   C430    1.396   .     S
C219   O251    1.386   .     S
C219   C221    1.409   .     A
C219   C427    1.404   .     S
C220   O256    1.393   .     S
C220   C222    1.396   .     A
C223   N232    1.377   .     A
C223   O261    1.382   .     S
C223   C1485   1.441   1_554 S
C224   O266    1.383   .     S
C224   N231    1.382   .     A
C224   C856    1.439   .     S
C225   O271    1.388   .     S
C225   N231    1.367   .     A
C225   C853    1.441   .     S
C226   O276    1.389   .     S
C226   N232    1.368   .     A
C226   C1484   1.439   1_554 S
Cu227  Cu228   2.701   .     S
Cu227  O240    1.958   .     S
Cu227  O233    1.959   .     S
Cu227  O236    1.971   .     S
Cu227  O237    1.954   .     S
Cu227  N231    2.030   .     S
Cu228  N232    2.030   .     S
Cu228  O239    1.958   .     S
Cu228  O235    1.971   .     S
Cu228  O234    1.959   .     S
Cu228  O238    1.954   .     S
H229   C285    1.080   .     S
H230   C356    1.087   1_455 S
O241   C242    1.410   .     S
C242   H243    1.109   .     S
C242   H245    1.113   .     S
C242   H244    1.114   .     S
O246   C247    1.419   .     S
C247   H248    1.109   .     S
C247   H250    1.107   .     S
C247   H249    1.117   .     S
O251   C252    1.410   .     S
C252   H254    1.114   .     S
C252   H253    1.110   .     S
C252   H255    1.110   .     S
O256   C257    1.409   .     S
C257   H258    1.107   .     S
C257   H260    1.109   .     S
C257   H259    1.110   .     S
O261   C262    1.414   .     S
C262   H265    1.107   .     S
C262   H264    1.114   .     S
C262   H1523   1.108   1_554 S
H263   C892    1.108   .     S
O266   C267    1.405   .     S
C267   H268    1.109   .     S
C267   H269    1.110   .     S
C267   H270    1.104   .     S
O271   C272    1.416   .     S
C272   H273    1.109   .     S
C272   H274    1.109   .     S
C272   H275    1.114   .     S
O276   C277    1.409   .     S
C277   H280    1.106   .     S
C277   H279    1.109   .     S
C277   H278    1.106   .     S
C281   O303    1.297   .     A
C281   O305    1.294   .     A
C281   C292    1.445   .     S
C282   O306    1.300   .     A
C282   O304    1.303   .     A
C282   C291    1.466   .     S
C283   O307    1.288   .     A
C283   O309    1.301   .     A
C283   C285    1.436   .     S
C284   O308    1.294   .     A
C284   C286    1.438   .     S
C284   O310    1.296   .     A
C286   C355    1.337   .     S
C286   H370    1.087   .     S
C287   C292    1.407   .     A
C287   O311    1.383   .     S
C288   C291    1.411   .     A
C288   O316    1.373   .     S
C288   C500    1.396   .     S
C289   O321    1.386   .     S
C289   C291    1.409   .     A
C289   C497    1.404   .     S
C290   O326    1.393   .     S
C290   C292    1.396   .     A
C293   N302    1.377   .     A
C293   O331    1.382   .     S
C293   C1555   1.441   1_554 S
C294   O336    1.383   .     S
C294   N301    1.382   .     A
C294   C926    1.439   .     S
C295   O341    1.388   .     S
C295   N301    1.367   .     A
C295   C923    1.441   .     S
C296   O346    1.389   .     S
C296   N302    1.368   .     A
C296   C1554   1.439   1_554 S
Cu297  Cu298   2.701   .     S
Cu297  O310    1.958   .     S
Cu297  O303    1.959   .     S
Cu297  O306    1.971   .     S
Cu297  O307    1.954   .     S
Cu297  N301    2.030   .     S
Cu298  N302    2.030   .     S
Cu298  O309    1.958   .     S
Cu298  O305    1.971   .     S
Cu298  O304    1.959   .     S
Cu298  O308    1.954   .     S
H299   C355    1.080   .     S
O311   C312    1.410   .     S
C312   H313    1.109   .     S
C312   H315    1.113   .     S
C312   H314    1.114   .     S
O316   C317    1.419   .     S
C317   H318    1.109   .     S
C317   H320    1.107   .     S
C317   H319    1.117   .     S
O321   C322    1.410   .     S
C322   H324    1.114   .     S
C322   H323    1.110   .     S
C322   H325    1.110   .     S
O326   C327    1.409   .     S
C327   H328    1.107   .     S
C327   H330    1.109   .     S
C327   H329    1.110   .     S
O331   C332    1.414   .     S
C332   H335    1.107   .     S
C332   H334    1.114   .     S
C332   H1593   1.108   1_554 S
H333   C962    1.108   .     S
O336   C337    1.405   .     S
C337   H338    1.109   .     S
C337   H339    1.110   .     S
C337   H340    1.104   .     S
O341   C342    1.416   .     S
C342   H343    1.109   .     S
C342   H344    1.109   .     S
C342   H345    1.114   .     S
O346   C347    1.409   .     S
C347   H350    1.106   .     S
C347   H349    1.109   .     S
C347   H348    1.106   .     S
C351   O373    1.297   .     A
C351   O375    1.294   .     A
C351   C362    1.445   .     S
C352   O376    1.300   .     A
C352   O374    1.303   .     A
C352   C361    1.466   .     S
C353   O377    1.288   .     A
C353   O379    1.301   .     A
C353   C355    1.436   .     S
C354   O378    1.294   .     A
C354   C356    1.438   .     S
C354   O380    1.296   .     A
C356   C215    1.337   1_655 S
C356   H230    1.087   1_655 S
C357   C362    1.407   .     A
C357   O381    1.383   .     S
C358   C361    1.411   .     A
C358   O386    1.373   .     S
C358   C570    1.396   .     S
C359   O391    1.386   .     S
C359   C361    1.409   .     A
C359   C567    1.404   .     S
C360   O396    1.393   .     S
C360   C362    1.396   .     A
C363   N372    1.377   .     A
C363   O401    1.382   .     S
C363   C1625   1.441   1_554 S
C364   O406    1.383   .     S
C364   N371    1.382   .     A
C364   C996    1.439   .     S
C365   O411    1.388   .     S
C365   N371    1.367   .     A
C365   C993    1.441   .     S
C366   O416    1.389   .     S
C366   N372    1.368   .     A
C366   C1624   1.439   1_554 S
Cu367  Cu368   2.701   .     S
Cu367  O380    1.958   .     S
Cu367  O373    1.959   .     S
Cu367  O376    1.971   .     S
Cu367  O377    1.954   .     S
Cu367  N371    2.030   .     S
Cu368  N372    2.030   .     S
Cu368  O379    1.958   .     S
Cu368  O375    1.971   .     S
Cu368  O374    1.959   .     S
Cu368  O378    1.954   .     S
H369   C215    1.080   1_655 S
O381   C382    1.410   .     S
C382   H383    1.109   .     S
C382   H385    1.113   .     S
C382   H384    1.114   .     S
O386   C387    1.419   .     S
C387   H388    1.109   .     S
C387   H390    1.107   .     S
C387   H389    1.117   .     S
O391   C392    1.410   .     S
C392   H394    1.114   .     S
C392   H393    1.110   .     S
C392   H395    1.110   .     S
O396   C397    1.409   .     S
C397   H398    1.107   .     S
C397   H400    1.109   .     S
C397   H399    1.110   .     S
O401   C402    1.414   .     S
C402   H405    1.107   .     S
C402   H404    1.114   .     S
C402   H1663   1.108   1_554 S
H403   C1032   1.108   .     S
O406   C407    1.405   .     S
C407   H408    1.109   .     S
C407   H409    1.110   .     S
C407   H410    1.104   .     S
O411   C412    1.416   .     S
C412   H413    1.109   .     S
C412   H414    1.109   .     S
C412   H415    1.114   .     S
O416   C417    1.409   .     S
C417   H420    1.106   .     S
C417   H419    1.109   .     S
C417   H418    1.106   .     S
C421   O443    1.297   .     A
C421   O445    1.294   .     A
C421   C432    1.445   .     S
C422   O446    1.300   .     A
C422   O444    1.303   .     A
C422   C431    1.466   .     S
C423   O447    1.288   .     A
C423   O449    1.301   .     A
C423   C425    1.436   .     S
C424   O448    1.294   .     A
C424   C426    1.438   .     S
C424   O450    1.296   .     A
C425   C566    1.337   1_455 S
C425   H579    1.080   1_455 S
C426   C495    1.337   .     S
C426   H510    1.087   .     S
C427   C432    1.407   .     A
C427   O451    1.383   .     S
C428   C431    1.411   .     A
C428   O456    1.373   .     S
C428   C10     1.396   1_565 S
C429   O461    1.386   .     S
C429   C431    1.409   .     A
C429   C7      1.404   1_565 S
C430   O466    1.393   .     S
C430   C432    1.396   .     A
C433   N442    1.377   .     A
C433   O471    1.382   .     S
C433   C1695   1.441   1_554 S
C434   O476    1.383   .     S
C434   N441    1.382   .     A
C434   C1066   1.439   .     S
C435   O481    1.388   .     S
C435   N441    1.367   .     A
C435   C1063   1.441   .     S
C436   O486    1.389   .     S
C436   N442    1.368   .     A
C436   C1694   1.439   1_554 S
Cu437  Cu438   2.701   .     S
Cu437  O450    1.958   .     S
Cu437  O443    1.959   .     S
Cu437  O446    1.971   .     S
Cu437  O447    1.954   .     S
Cu437  N441    2.030   .     S
Cu438  N442    2.030   .     S
Cu438  O449    1.958   .     S
Cu438  O445    1.971   .     S
Cu438  O444    1.959   .     S
Cu438  O448    1.954   .     S
H439   C495    1.080   .     S
H440   C566    1.087   1_455 S
O451   C452    1.410   .     S
C452   H453    1.109   .     S
C452   H455    1.113   .     S
C452   H454    1.114   .     S
O456   C457    1.419   .     S
C457   H458    1.109   .     S
C457   H460    1.107   .     S
C457   H459    1.117   .     S
O461   C462    1.410   .     S
C462   H464    1.114   .     S
C462   H463    1.110   .     S
C462   H465    1.110   .     S
O466   C467    1.409   .     S
C467   H468    1.107   .     S
C467   H470    1.109   .     S
C467   H469    1.110   .     S
O471   C472    1.414   .     S
C472   H475    1.107   .     S
C472   H474    1.114   .     S
C472   H1733   1.108   1_554 S
H473   C1102   1.108   .     S
O476   C477    1.405   .     S
C477   H478    1.109   .     S
C477   H479    1.110   .     S
C477   H480    1.104   .     S
O481   C482    1.416   .     S
C482   H483    1.109   .     S
C482   H484    1.109   .     S
C482   H485    1.114   .     S
O486   C487    1.409   .     S
C487   H490    1.106   .     S
C487   H489    1.109   .     S
C487   H488    1.106   .     S
C491   O513    1.297   .     A
C491   O515    1.294   .     A
C491   C502    1.445   .     S
C492   O516    1.300   .     A
C492   O514    1.303   .     A
C492   C501    1.466   .     S
C493   O517    1.288   .     A
C493   O519    1.301   .     A
C493   C495    1.436   .     S
C494   O518    1.294   .     A
C494   C496    1.438   .     S
C494   O520    1.296   .     A
C496   C565    1.337   .     S
C496   H580    1.087   .     S
C497   C502    1.407   .     A
C497   O521    1.383   .     S
C498   C501    1.411   .     A
C498   O526    1.373   .     S
C498   C80     1.396   1_565 S
C499   O531    1.386   .     S
C499   C501    1.409   .     A
C499   C77     1.404   1_565 S
C500   O536    1.393   .     S
C500   C502    1.396   .     A
C503   N512    1.377   .     A
C503   O541    1.382   .     S
C503   C1765   1.441   1_554 S
C504   O546    1.383   .     S
C504   N511    1.382   .     A
C504   C1136   1.439   .     S
C505   O551    1.388   .     S
C505   N511    1.367   .     A
C505   C1133   1.441   .     S
C506   O556    1.389   .     S
C506   N512    1.368   .     A
C506   C1764   1.439   1_554 S
Cu507  Cu508   2.701   .     S
Cu507  O520    1.958   .     S
Cu507  O513    1.959   .     S
Cu507  O516    1.971   .     S
Cu507  O517    1.954   .     S
Cu507  N511    2.030   .     S
Cu508  N512    2.030   .     S
Cu508  O519    1.958   .     S
Cu508  O515    1.971   .     S
Cu508  O514    1.959   .     S
Cu508  O518    1.954   .     S
H509   C565    1.080   .     S
O521   C522    1.410   .     S
C522   H523    1.109   .     S
C522   H525    1.113   .     S
C522   H524    1.114   .     S
O526   C527    1.419   .     S
C527   H528    1.109   .     S
C527   H530    1.107   .     S
C527   H529    1.117   .     S
O531   C532    1.410   .     S
C532   H534    1.114   .     S
C532   H533    1.110   .     S
C532   H535    1.110   .     S
O536   C537    1.409   .     S
C537   H538    1.107   .     S
C537   H540    1.109   .     S
C537   H539    1.110   .     S
O541   C542    1.414   .     S
C542   H545    1.107   .     S
C542   H544    1.114   .     S
C542   H1803   1.108   1_554 S
H543   C1172   1.108   .     S
O546   C547    1.405   .     S
C547   H548    1.109   .     S
C547   H549    1.110   .     S
C547   H550    1.104   .     S
O551   C552    1.416   .     S
C552   H553    1.109   .     S
C552   H554    1.109   .     S
C552   H555    1.114   .     S
O556   C557    1.409   .     S
C557   H560    1.106   .     S
C557   H559    1.109   .     S
C557   H558    1.106   .     S
C561   O583    1.297   .     A
C561   O585    1.294   .     A
C561   C572    1.445   .     S
C562   O586    1.300   .     A
C562   O584    1.303   .     A
C562   C571    1.466   .     S
C563   O587    1.288   .     A
C563   O589    1.301   .     A
C563   C565    1.436   .     S
C564   O588    1.294   .     A
C564   C566    1.438   .     S
C564   O590    1.296   .     A
C566   C425    1.337   1_655 S
C566   H440    1.087   1_655 S
C567   C572    1.407   .     A
C567   O591    1.383   .     S
C568   C571    1.411   .     A
C568   O596    1.373   .     S
C568   C150    1.396   1_565 S
C569   O601    1.386   .     S
C569   C571    1.409   .     A
C569   C147    1.404   1_565 S
C570   O606    1.393   .     S
C570   C572    1.396   .     A
C573   N582    1.377   .     A
C573   O611    1.382   .     S
C573   C1835   1.441   1_554 S
C574   O616    1.383   .     S
C574   N581    1.382   .     A
C574   C1206   1.439   .     S
C575   O621    1.388   .     S
C575   N581    1.367   .     A
C575   C1203   1.441   .     S
C576   O626    1.389   .     S
C576   N582    1.368   .     A
C576   C1834   1.439   1_554 S
Cu577  Cu578   2.701   .     S
Cu577  O590    1.958   .     S
Cu577  O583    1.959   .     S
Cu577  O586    1.971   .     S
Cu577  O587    1.954   .     S
Cu577  N581    2.030   .     S
Cu578  N582    2.030   .     S
Cu578  O589    1.958   .     S
Cu578  O585    1.971   .     S
Cu578  O584    1.959   .     S
Cu578  O588    1.954   .     S
H579   C425    1.080   1_655 S
O591   C592    1.410   .     S
C592   H593    1.109   .     S
C592   H595    1.113   .     S
C592   H594    1.114   .     S
O596   C597    1.419   .     S
C597   H598    1.109   .     S
C597   H600    1.107   .     S
C597   H599    1.117   .     S
O601   C602    1.410   .     S
C602   H604    1.114   .     S
C602   H603    1.110   .     S
C602   H605    1.110   .     S
O606   C607    1.409   .     S
C607   H608    1.107   .     S
C607   H610    1.109   .     S
C607   H609    1.110   .     S
O611   C612    1.414   .     S
C612   H615    1.107   .     S
C612   H614    1.114   .     S
C612   H1873   1.108   1_554 S
H613   C1242   1.108   .     S
O616   C617    1.405   .     S
C617   H618    1.109   .     S
C617   H619    1.110   .     S
C617   H620    1.104   .     S
O621   C622    1.416   .     S
C622   H623    1.109   .     S
C622   H624    1.109   .     S
C622   H625    1.114   .     S
O626   C627    1.409   .     S
C627   H630    1.106   .     S
C627   H629    1.109   .     S
C627   H628    1.106   .     S
C631   O653    1.297   .     A
C631   O655    1.294   .     A
C631   C642    1.445   .     S
C632   O656    1.300   .     A
C632   O654    1.303   .     A
C632   C641    1.466   .     S
C633   O657    1.288   .     A
C633   O659    1.301   .     A
C633   C635    1.436   .     S
C634   O658    1.294   .     A
C634   C636    1.438   .     S
C634   O660    1.296   .     A
C635   C776    1.337   1_455 S
C635   H789    1.080   1_455 S
C636   C705    1.337   .     S
C636   H720    1.087   .     S
C637   C642    1.407   .     A
C637   O661    1.383   .     S
C637   C1059   1.404   1_545 S
C638   C641    1.411   .     A
C638   O666    1.373   .     S
C638   C850    1.396   .     S
C639   O671    1.386   .     S
C639   C641    1.409   .     A
C639   C847    1.404   .     S
C640   O676    1.393   .     S
C640   C642    1.396   .     A
C640   C1058   1.396   1_545 S
C643   N652    1.377   .     A
C643   O681    1.382   .     S
C644   O686    1.383   .     S
C644   N651    1.382   .     A
C644   C1276   1.439   .     S
C645   O691    1.388   .     S
C645   N651    1.367   .     A
C645   C1273   1.441   .     S
C646   O696    1.389   .     S
C646   N652    1.368   .     A
Cu647  Cu648   2.701   .     S
Cu647  O660    1.958   .     S
Cu647  O653    1.959   .     S
Cu647  O656    1.971   .     S
Cu647  O657    1.954   .     S
Cu647  N651    2.030   .     S
Cu648  N652    2.030   .     S
Cu648  O659    1.958   .     S
Cu648  O655    1.971   .     S
Cu648  O654    1.959   .     S
Cu648  O658    1.954   .     S
H649   C705    1.080   .     S
H650   C776    1.087   1_455 S
O661   C662    1.410   .     S
C662   H663    1.109   .     S
C662   H665    1.113   .     S
C662   H664    1.114   .     S
O666   C667    1.419   .     S
C667   H668    1.109   .     S
C667   H670    1.107   .     S
C667   H669    1.117   .     S
O671   C672    1.410   .     S
C672   H674    1.114   .     S
C672   H673    1.110   .     S
C672   H675    1.110   .     S
O676   C677    1.409   .     S
C677   H678    1.107   .     S
C677   H680    1.109   .     S
C677   H679    1.110   .     S
O681   C682    1.414   .     S
C682   H685    1.107   .     S
C682   H684    1.114   .     S
H683   C1312   1.108   .     S
O686   C687    1.405   .     S
C687   H688    1.109   .     S
C687   H689    1.110   .     S
C687   H690    1.104   .     S
O691   C692    1.416   .     S
C692   H693    1.109   .     S
C692   H694    1.109   .     S
C692   H695    1.114   .     S
O696   C697    1.409   .     S
C697   H700    1.106   .     S
C697   H699    1.109   .     S
C697   H698    1.106   .     S
C701   O723    1.297   .     A
C701   O725    1.294   .     A
C701   C712    1.445   .     S
C702   O726    1.300   .     A
C702   O724    1.303   .     A
C702   C711    1.466   .     S
C703   O727    1.288   .     A
C703   O729    1.301   .     A
C703   C705    1.436   .     S
C704   O728    1.294   .     A
C704   C706    1.438   .     S
C704   O730    1.296   .     A
C706   C775    1.337   .     S
C706   H790    1.087   .     S
C707   C712    1.407   .     A
C707   O731    1.383   .     S
C707   C1129   1.404   1_545 S
C708   C711    1.411   .     A
C708   O736    1.373   .     S
C708   C920    1.396   .     S
C709   O741    1.386   .     S
C709   C711    1.409   .     A
C709   C917    1.404   .     S
C710   O746    1.393   .     S
C710   C712    1.396   .     A
C710   C1128   1.396   1_545 S
C713   N722    1.377   .     A
C713   O751    1.382   .     S
C714   O756    1.383   .     S
C714   N721    1.382   .     A
C714   C1346   1.439   .     S
C715   O761    1.388   .     S
C715   N721    1.367   .     A
C715   C1343   1.441   .     S
C716   O766    1.389   .     S
C716   N722    1.368   .     A
Cu717  Cu718   2.701   .     S
Cu717  O730    1.958   .     S
Cu717  O723    1.959   .     S
Cu717  O726    1.971   .     S
Cu717  O727    1.954   .     S
Cu717  N721    2.030   .     S
Cu718  N722    2.030   .     S
Cu718  O729    1.958   .     S
Cu718  O725    1.971   .     S
Cu718  O724    1.959   .     S
Cu718  O728    1.954   .     S
H719   C775    1.080   .     S
O731   C732    1.410   .     S
C732   H733    1.109   .     S
C732   H735    1.113   .     S
C732   H734    1.114   .     S
O736   C737    1.419   .     S
C737   H738    1.109   .     S
C737   H740    1.107   .     S
C737   H739    1.117   .     S
O741   C742    1.410   .     S
C742   H744    1.114   .     S
C742   H743    1.110   .     S
C742   H745    1.110   .     S
O746   C747    1.409   .     S
C747   H748    1.107   .     S
C747   H750    1.109   .     S
C747   H749    1.110   .     S
O751   C752    1.414   .     S
C752   H755    1.107   .     S
C752   H754    1.114   .     S
H753   C1382   1.108   .     S
O756   C757    1.405   .     S
C757   H758    1.109   .     S
C757   H759    1.110   .     S
C757   H760    1.104   .     S
O761   C762    1.416   .     S
C762   H763    1.109   .     S
C762   H764    1.109   .     S
C762   H765    1.114   .     S
O766   C767    1.409   .     S
C767   H770    1.106   .     S
C767   H769    1.109   .     S
C767   H768    1.106   .     S
C771   O793    1.297   .     A
C771   O795    1.294   .     A
C771   C782    1.445   .     S
C772   O796    1.300   .     A
C772   O794    1.303   .     A
C772   C781    1.466   .     S
C773   O797    1.288   .     A
C773   O799    1.301   .     A
C773   C775    1.436   .     S
C774   O798    1.294   .     A
C774   C776    1.438   .     S
C774   O800    1.296   .     A
C776   C635    1.337   1_655 S
C776   H650    1.087   1_655 S
C777   C782    1.407   .     A
C777   O801    1.383   .     S
C777   C1199   1.404   1_545 S
C778   C781    1.411   .     A
C778   O806    1.373   .     S
C778   C990    1.396   .     S
C779   O811    1.386   .     S
C779   C781    1.409   .     A
C779   C987    1.404   .     S
C780   O816    1.393   .     S
C780   C782    1.396   .     A
C780   C1198   1.396   1_545 S
C783   N792    1.377   .     A
C783   O821    1.382   .     S
C784   O826    1.383   .     S
C784   N791    1.382   .     A
C784   C1416   1.439   .     S
C785   O831    1.388   .     S
C785   N791    1.367   .     A
C785   C1413   1.441   .     S
C786   O836    1.389   .     S
C786   N792    1.368   .     A
Cu787  Cu788   2.701   .     S
Cu787  O800    1.958   .     S
Cu787  O793    1.959   .     S
Cu787  O796    1.971   .     S
Cu787  O797    1.954   .     S
Cu787  N791    2.030   .     S
Cu788  N792    2.030   .     S
Cu788  O799    1.958   .     S
Cu788  O795    1.971   .     S
Cu788  O794    1.959   .     S
Cu788  O798    1.954   .     S
H789   C635    1.080   1_655 S
O801   C802    1.410   .     S
C802   H803    1.109   .     S
C802   H805    1.113   .     S
C802   H804    1.114   .     S
O806   C807    1.419   .     S
C807   H808    1.109   .     S
C807   H810    1.107   .     S
C807   H809    1.117   .     S
O811   C812    1.410   .     S
C812   H814    1.114   .     S
C812   H813    1.110   .     S
C812   H815    1.110   .     S
O816   C817    1.409   .     S
C817   H818    1.107   .     S
C817   H820    1.109   .     S
C817   H819    1.110   .     S
O821   C822    1.414   .     S
C822   H825    1.107   .     S
C822   H824    1.114   .     S
H823   C1452   1.108   .     S
O826   C827    1.405   .     S
C827   H828    1.109   .     S
C827   H829    1.110   .     S
C827   H830    1.104   .     S
O831   C832    1.416   .     S
C832   H833    1.109   .     S
C832   H834    1.109   .     S
C832   H835    1.114   .     S
O836   C837    1.409   .     S
C837   H840    1.106   .     S
C837   H839    1.109   .     S
C837   H838    1.106   .     S
C841   O863    1.297   .     A
C841   O865    1.294   .     A
C841   C852    1.445   .     S
C842   O866    1.300   .     A
C842   O864    1.303   .     A
C842   C851    1.466   .     S
C843   O867    1.288   .     A
C843   O869    1.301   .     A
C843   C845    1.436   .     S
C844   O868    1.294   .     A
C844   C846    1.438   .     S
C844   O870    1.296   .     A
C845   C986    1.337   1_455 S
C845   H999    1.080   1_455 S
C846   C915    1.337   .     S
C846   H930    1.087   .     S
C847   C852    1.407   .     A
C847   O871    1.383   .     S
C848   C851    1.411   .     A
C848   O876    1.373   .     S
C848   C1060   1.396   .     S
C849   O881    1.386   .     S
C849   C851    1.409   .     A
C849   C1057   1.404   .     S
C850   O886    1.393   .     S
C850   C852    1.396   .     A
C853   N862    1.377   .     A
C853   O891    1.382   .     S
C854   O896    1.383   .     S
C854   N861    1.382   .     A
C854   C1486   1.439   .     S
C855   O901    1.388   .     S
C855   N861    1.367   .     A
C855   C1483   1.441   .     S
C856   O906    1.389   .     S
C856   N862    1.368   .     A
Cu857  Cu858   2.701   .     S
Cu857  O870    1.958   .     S
Cu857  O863    1.959   .     S
Cu857  O866    1.971   .     S
Cu857  O867    1.954   .     S
Cu857  N861    2.030   .     S
Cu858  N862    2.030   .     S
Cu858  O869    1.958   .     S
Cu858  O865    1.971   .     S
Cu858  O864    1.959   .     S
Cu858  O868    1.954   .     S
H859   C915    1.080   .     S
H860   C986    1.087   1_455 S
O871   C872    1.410   .     S
C872   H873    1.109   .     S
C872   H875    1.113   .     S
C872   H874    1.114   .     S
O876   C877    1.419   .     S
C877   H878    1.109   .     S
C877   H880    1.107   .     S
C877   H879    1.117   .     S
O881   C882    1.410   .     S
C882   H884    1.114   .     S
C882   H883    1.110   .     S
C882   H885    1.110   .     S
O886   C887    1.409   .     S
C887   H888    1.107   .     S
C887   H890    1.109   .     S
C887   H889    1.110   .     S
O891   C892    1.414   .     S
C892   H895    1.107   .     S
C892   H894    1.114   .     S
H893   C1522   1.108   .     S
O896   C897    1.405   .     S
C897   H898    1.109   .     S
C897   H899    1.110   .     S
C897   H900    1.104   .     S
O901   C902    1.416   .     S
C902   H903    1.109   .     S
C902   H904    1.109   .     S
C902   H905    1.114   .     S
O906   C907    1.409   .     S
C907   H910    1.106   .     S
C907   H909    1.109   .     S
C907   H908    1.106   .     S
C911   O933    1.297   .     A
C911   O935    1.294   .     A
C911   C922    1.445   .     S
C912   O936    1.300   .     A
C912   O934    1.303   .     A
C912   C921    1.466   .     S
C913   O937    1.288   .     A
C913   O939    1.301   .     A
C913   C915    1.436   .     S
C914   O938    1.294   .     A
C914   C916    1.438   .     S
C914   O940    1.296   .     A
C916   C985    1.337   .     S
C916   H1000   1.087   .     S
C917   C922    1.407   .     A
C917   O941    1.383   .     S
C918   C921    1.411   .     A
C918   O946    1.373   .     S
C918   C1130   1.396   .     S
C919   O951    1.386   .     S
C919   C921    1.409   .     A
C919   C1127   1.404   .     S
C920   O956    1.393   .     S
C920   C922    1.396   .     A
C923   N932    1.377   .     A
C923   O961    1.382   .     S
C924   O966    1.383   .     S
C924   N931    1.382   .     A
C924   C1556   1.439   .     S
C925   O971    1.388   .     S
C925   N931    1.367   .     A
C925   C1553   1.441   .     S
C926   O976    1.389   .     S
C926   N932    1.368   .     A
Cu927  Cu928   2.701   .     S
Cu927  O940    1.958   .     S
Cu927  O933    1.959   .     S
Cu927  O936    1.971   .     S
Cu927  O937    1.954   .     S
Cu927  N931    2.030   .     S
Cu928  N932    2.030   .     S
Cu928  O939    1.958   .     S
Cu928  O935    1.971   .     S
Cu928  O934    1.959   .     S
Cu928  O938    1.954   .     S
H929   C985    1.080   .     S
O941   C942    1.410   .     S
C942   H943    1.109   .     S
C942   H945    1.113   .     S
C942   H944    1.114   .     S
O946   C947    1.419   .     S
C947   H948    1.109   .     S
C947   H950    1.107   .     S
C947   H949    1.117   .     S
O951   C952    1.410   .     S
C952   H954    1.114   .     S
C952   H953    1.110   .     S
C952   H955    1.110   .     S
O956   C957    1.409   .     S
C957   H958    1.107   .     S
C957   H960    1.109   .     S
C957   H959    1.110   .     S
O961   C962    1.414   .     S
C962   H965    1.107   .     S
C962   H964    1.114   .     S
H963   C1592   1.108   .     S
O966   C967    1.405   .     S
C967   H968    1.109   .     S
C967   H969    1.110   .     S
C967   H970    1.104   .     S
O971   C972    1.416   .     S
C972   H973    1.109   .     S
C972   H974    1.109   .     S
C972   H975    1.114   .     S
O976   C977    1.409   .     S
C977   H980    1.106   .     S
C977   H979    1.109   .     S
C977   H978    1.106   .     S
C981   O1003   1.297   .     A
C981   O1005   1.294   .     A
C981   C992    1.445   .     S
C982   O1006   1.300   .     A
C982   O1004   1.303   .     A
C982   C991    1.466   .     S
C983   O1007   1.288   .     A
C983   O1009   1.301   .     A
C983   C985    1.436   .     S
C984   O1008   1.294   .     A
C984   C986    1.438   .     S
C984   O1010   1.296   .     A
C986   C845    1.337   1_655 S
C986   H860    1.087   1_655 S
C987   C992    1.407   .     A
C987   O1011   1.383   .     S
C988   C991    1.411   .     A
C988   O1016   1.373   .     S
C988   C1200   1.396   .     S
C989   O1021   1.386   .     S
C989   C991    1.409   .     A
C989   C1197   1.404   .     S
C990   O1026   1.393   .     S
C990   C992    1.396   .     A
C993   N1002   1.377   .     A
C993   O1031   1.382   .     S
C994   O1036   1.383   .     S
C994   N1001   1.382   .     A
C994   C1626   1.439   .     S
C995   O1041   1.388   .     S
C995   N1001   1.367   .     A
C995   C1623   1.441   .     S
C996   O1046   1.389   .     S
C996   N1002   1.368   .     A
Cu997  Cu998   2.701   .     S
Cu997  O1010   1.958   .     S
Cu997  O1003   1.959   .     S
Cu997  O1006   1.971   .     S
Cu997  O1007   1.954   .     S
Cu997  N1001   2.030   .     S
Cu998  N1002   2.030   .     S
Cu998  O1009   1.958   .     S
Cu998  O1005   1.971   .     S
Cu998  O1004   1.959   .     S
Cu998  O1008   1.954   .     S
H999   C845    1.080   1_655 S
O1011  C1012   1.410   .     S
C1012  H1013   1.109   .     S
C1012  H1015   1.113   .     S
C1012  H1014   1.114   .     S
O1016  C1017   1.419   .     S
C1017  H1018   1.109   .     S
C1017  H1020   1.107   .     S
C1017  H1019   1.117   .     S
O1021  C1022   1.410   .     S
C1022  H1024   1.114   .     S
C1022  H1023   1.110   .     S
C1022  H1025   1.110   .     S
O1026  C1027   1.409   .     S
C1027  H1028   1.107   .     S
C1027  H1030   1.109   .     S
C1027  H1029   1.110   .     S
O1031  C1032   1.414   .     S
C1032  H1035   1.107   .     S
C1032  H1034   1.114   .     S
H1033  C1662   1.108   .     S
O1036  C1037   1.405   .     S
C1037  H1038   1.109   .     S
C1037  H1039   1.110   .     S
C1037  H1040   1.104   .     S
O1041  C1042   1.416   .     S
C1042  H1043   1.109   .     S
C1042  H1044   1.109   .     S
C1042  H1045   1.114   .     S
O1046  C1047   1.409   .     S
C1047  H1050   1.106   .     S
C1047  H1049   1.109   .     S
C1047  H1048   1.106   .     S
C1051  O1073   1.297   .     A
C1051  O1075   1.294   .     A
C1051  C1062   1.445   .     S
C1052  O1076   1.300   .     A
C1052  O1074   1.303   .     A
C1052  C1061   1.466   .     S
C1053  O1077   1.288   .     A
C1053  O1079   1.301   .     A
C1053  C1055   1.436   .     S
C1054  O1078   1.294   .     A
C1054  C1056   1.438   .     S
C1054  O1080   1.296   .     A
C1055  C1196   1.337   1_455 S
C1055  H1209   1.080   1_455 S
C1056  C1125   1.337   .     S
C1056  H1140   1.087   .     S
C1057  C1062   1.407   .     A
C1057  O1081   1.383   .     S
C1058  C1061   1.411   .     A
C1058  O1086   1.373   .     S
C1058  C640    1.396   1_565 S
C1059  O1091   1.386   .     S
C1059  C1061   1.409   .     A
C1059  C637    1.404   1_565 S
C1060  O1096   1.393   .     S
C1060  C1062   1.396   .     A
C1063  N1072   1.377   .     A
C1063  O1101   1.382   .     S
C1064  O1106   1.383   .     S
C1064  N1071   1.382   .     A
C1064  C1696   1.439   .     S
C1065  O1111   1.388   .     S
C1065  N1071   1.367   .     A
C1065  C1693   1.441   .     S
C1066  O1116   1.389   .     S
C1066  N1072   1.368   .     A
Cu1067 Cu1068  2.701   .     S
Cu1067 O1080   1.958   .     S
Cu1067 O1073   1.959   .     S
Cu1067 O1076   1.971   .     S
Cu1067 O1077   1.954   .     S
Cu1067 N1071   2.030   .     S
Cu1068 N1072   2.030   .     S
Cu1068 O1079   1.958   .     S
Cu1068 O1075   1.971   .     S
Cu1068 O1074   1.959   .     S
Cu1068 O1078   1.954   .     S
H1069  C1125   1.080   .     S
H1070  C1196   1.087   1_455 S
O1081  C1082   1.410   .     S
C1082  H1083   1.109   .     S
C1082  H1085   1.113   .     S
C1082  H1084   1.114   .     S
O1086  C1087   1.419   .     S
C1087  H1088   1.109   .     S
C1087  H1090   1.107   .     S
C1087  H1089   1.117   .     S
O1091  C1092   1.410   .     S
C1092  H1094   1.114   .     S
C1092  H1093   1.110   .     S
C1092  H1095   1.110   .     S
O1096  C1097   1.409   .     S
C1097  H1098   1.107   .     S
C1097  H1100   1.109   .     S
C1097  H1099   1.110   .     S
O1101  C1102   1.414   .     S
C1102  H1105   1.107   .     S
C1102  H1104   1.114   .     S
H1103  C1732   1.108   .     S
O1106  C1107   1.405   .     S
C1107  H1108   1.109   .     S
C1107  H1109   1.110   .     S
C1107  H1110   1.104   .     S
O1111  C1112   1.416   .     S
C1112  H1113   1.109   .     S
C1112  H1114   1.109   .     S
C1112  H1115   1.114   .     S
O1116  C1117   1.409   .     S
C1117  H1120   1.106   .     S
C1117  H1119   1.109   .     S
C1117  H1118   1.106   .     S
C1121  O1143   1.297   .     A
C1121  O1145   1.294   .     A
C1121  C1132   1.445   .     S
C1122  O1146   1.300   .     A
C1122  O1144   1.303   .     A
C1122  C1131   1.466   .     S
C1123  O1147   1.288   .     A
C1123  O1149   1.301   .     A
C1123  C1125   1.436   .     S
C1124  O1148   1.294   .     A
C1124  C1126   1.438   .     S
C1124  O1150   1.296   .     A
C1126  C1195   1.337   .     S
C1126  H1210   1.087   .     S
C1127  C1132   1.407   .     A
C1127  O1151   1.383   .     S
C1128  C1131   1.411   .     A
C1128  O1156   1.373   .     S
C1128  C710    1.396   1_565 S
C1129  O1161   1.386   .     S
C1129  C1131   1.409   .     A
C1129  C707    1.404   1_565 S
C1130  O1166   1.393   .     S
C1130  C1132   1.396   .     A
C1133  N1142   1.377   .     A
C1133  O1171   1.382   .     S
C1134  O1176   1.383   .     S
C1134  N1141   1.382   .     A
C1134  C1766   1.439   .     S
C1135  O1181   1.388   .     S
C1135  N1141   1.367   .     A
C1135  C1763   1.441   .     S
C1136  O1186   1.389   .     S
C1136  N1142   1.368   .     A
Cu1137 Cu1138  2.701   .     S
Cu1137 O1150   1.958   .     S
Cu1137 O1143   1.959   .     S
Cu1137 O1146   1.971   .     S
Cu1137 O1147   1.954   .     S
Cu1137 N1141   2.030   .     S
Cu1138 N1142   2.030   .     S
Cu1138 O1149   1.958   .     S
Cu1138 O1145   1.971   .     S
Cu1138 O1144   1.959   .     S
Cu1138 O1148   1.954   .     S
H1139  C1195   1.080   .     S
O1151  C1152   1.410   .     S
C1152  H1153   1.109   .     S
C1152  H1155   1.113   .     S
C1152  H1154   1.114   .     S
O1156  C1157   1.419   .     S
C1157  H1158   1.109   .     S
C1157  H1160   1.107   .     S
C1157  H1159   1.117   .     S
O1161  C1162   1.410   .     S
C1162  H1164   1.114   .     S
C1162  H1163   1.110   .     S
C1162  H1165   1.110   .     S
O1166  C1167   1.409   .     S
C1167  H1168   1.107   .     S
C1167  H1170   1.109   .     S
C1167  H1169   1.110   .     S
O1171  C1172   1.414   .     S
C1172  H1175   1.107   .     S
C1172  H1174   1.114   .     S
H1173  C1802   1.108   .     S
O1176  C1177   1.405   .     S
C1177  H1178   1.109   .     S
C1177  H1179   1.110   .     S
C1177  H1180   1.104   .     S
O1181  C1182   1.416   .     S
C1182  H1183   1.109   .     S
C1182  H1184   1.109   .     S
C1182  H1185   1.114   .     S
O1186  C1187   1.409   .     S
C1187  H1190   1.106   .     S
C1187  H1189   1.109   .     S
C1187  H1188   1.106   .     S
C1191  O1213   1.297   .     A
C1191  O1215   1.294   .     A
C1191  C1202   1.445   .     S
C1192  O1216   1.300   .     A
C1192  O1214   1.303   .     A
C1192  C1201   1.466   .     S
C1193  O1217   1.288   .     A
C1193  O1219   1.301   .     A
C1193  C1195   1.436   .     S
C1194  O1218   1.294   .     A
C1194  C1196   1.438   .     S
C1194  O1220   1.296   .     A
C1196  C1055   1.337   1_655 S
C1196  H1070   1.087   1_655 S
C1197  C1202   1.407   .     A
C1197  O1221   1.383   .     S
C1198  C1201   1.411   .     A
C1198  O1226   1.373   .     S
C1198  C780    1.396   1_565 S
C1199  O1231   1.386   .     S
C1199  C1201   1.409   .     A
C1199  C777    1.404   1_565 S
C1200  O1236   1.393   .     S
C1200  C1202   1.396   .     A
C1203  N1212   1.377   .     A
C1203  O1241   1.382   .     S
C1204  O1246   1.383   .     S
C1204  N1211   1.382   .     A
C1204  C1836   1.439   .     S
C1205  O1251   1.388   .     S
C1205  N1211   1.367   .     A
C1205  C1833   1.441   .     S
C1206  O1256   1.389   .     S
C1206  N1212   1.368   .     A
Cu1207 Cu1208  2.701   .     S
Cu1207 O1220   1.958   .     S
Cu1207 O1213   1.959   .     S
Cu1207 O1216   1.971   .     S
Cu1207 O1217   1.954   .     S
Cu1207 N1211   2.030   .     S
Cu1208 N1212   2.030   .     S
Cu1208 O1219   1.958   .     S
Cu1208 O1215   1.971   .     S
Cu1208 O1214   1.959   .     S
Cu1208 O1218   1.954   .     S
H1209  C1055   1.080   1_655 S
O1221  C1222   1.410   .     S
C1222  H1223   1.109   .     S
C1222  H1225   1.113   .     S
C1222  H1224   1.114   .     S
O1226  C1227   1.419   .     S
C1227  H1228   1.109   .     S
C1227  H1230   1.107   .     S
C1227  H1229   1.117   .     S
O1231  C1232   1.410   .     S
C1232  H1234   1.114   .     S
C1232  H1233   1.110   .     S
C1232  H1235   1.110   .     S
O1236  C1237   1.409   .     S
C1237  H1238   1.107   .     S
C1237  H1240   1.109   .     S
C1237  H1239   1.110   .     S
O1241  C1242   1.414   .     S
C1242  H1245   1.107   .     S
C1242  H1244   1.114   .     S
H1243  C1872   1.108   .     S
O1246  C1247   1.405   .     S
C1247  H1248   1.109   .     S
C1247  H1249   1.110   .     S
C1247  H1250   1.104   .     S
O1251  C1252   1.416   .     S
C1252  H1253   1.109   .     S
C1252  H1254   1.109   .     S
C1252  H1255   1.114   .     S
O1256  C1257   1.409   .     S
C1257  H1260   1.106   .     S
C1257  H1259   1.109   .     S
C1257  H1258   1.106   .     S
C1261  O1283   1.297   .     A
C1261  O1285   1.294   .     A
C1261  C1272   1.445   .     S
C1262  O1286   1.300   .     A
C1262  O1284   1.303   .     A
C1262  C1271   1.466   .     S
C1263  O1287   1.288   .     A
C1263  O1289   1.301   .     A
C1263  C1265   1.436   .     S
C1264  O1288   1.294   .     A
C1264  C1266   1.438   .     S
C1264  O1290   1.296   .     A
C1265  C1406   1.337   1_455 S
C1265  H1419   1.080   1_455 S
C1266  C1335   1.337   .     S
C1266  H1350   1.087   .     S
C1267  C1272   1.407   .     A
C1267  O1291   1.383   .     S
C1267  C1689   1.404   1_545 S
C1268  C1271   1.411   .     A
C1268  O1296   1.373   .     S
C1268  C1480   1.396   .     S
C1269  O1301   1.386   .     S
C1269  C1271   1.409   .     A
C1269  C1477   1.404   .     S
C1270  O1306   1.393   .     S
C1270  C1272   1.396   .     A
C1270  C1688   1.396   1_545 S
C1273  N1282   1.377   .     A
C1273  O1311   1.382   .     S
C1274  O1316   1.383   .     S
C1274  N1281   1.382   .     A
C1274  C16     1.439   1_556 S
C1275  O1321   1.388   .     S
C1275  N1281   1.367   .     A
C1275  C13     1.441   1_556 S
C1276  O1326   1.389   .     S
C1276  N1282   1.368   .     A
Cu1277 Cu1278  2.701   .     S
Cu1277 O1290   1.958   .     S
Cu1277 O1283   1.959   .     S
Cu1277 O1286   1.971   .     S
Cu1277 O1287   1.954   .     S
Cu1277 N1281   2.030   .     S
Cu1278 N1282   2.030   .     S
Cu1278 O1289   1.958   .     S
Cu1278 O1285   1.971   .     S
Cu1278 O1284   1.959   .     S
Cu1278 O1288   1.954   .     S
H1279  C1335   1.080   .     S
H1280  C1406   1.087   1_455 S
O1291  C1292   1.410   .     S
C1292  H1293   1.109   .     S
C1292  H1295   1.113   .     S
C1292  H1294   1.114   .     S
O1296  C1297   1.419   .     S
C1297  H1298   1.109   .     S
C1297  H1300   1.107   .     S
C1297  H1299   1.117   .     S
O1301  C1302   1.410   .     S
C1302  H1304   1.114   .     S
C1302  H1303   1.110   .     S
C1302  H1305   1.110   .     S
O1306  C1307   1.409   .     S
C1307  H1308   1.107   .     S
C1307  H1310   1.109   .     S
C1307  H1309   1.110   .     S
O1311  C1312   1.414   .     S
C1312  H1315   1.107   .     S
C1312  H1314   1.114   .     S
H1313  C52     1.108   1_556 S
O1316  C1317   1.405   .     S
C1317  H1318   1.109   .     S
C1317  H1319   1.110   .     S
C1317  H1320   1.104   .     S
O1321  C1322   1.416   .     S
C1322  H1323   1.109   .     S
C1322  H1324   1.109   .     S
C1322  H1325   1.114   .     S
O1326  C1327   1.409   .     S
C1327  H1330   1.106   .     S
C1327  H1329   1.109   .     S
C1327  H1328   1.106   .     S
C1331  O1353   1.297   .     A
C1331  O1355   1.294   .     A
C1331  C1342   1.445   .     S
C1332  O1356   1.300   .     A
C1332  O1354   1.303   .     A
C1332  C1341   1.466   .     S
C1333  O1357   1.288   .     A
C1333  O1359   1.301   .     A
C1333  C1335   1.436   .     S
C1334  O1358   1.294   .     A
C1334  C1336   1.438   .     S
C1334  O1360   1.296   .     A
C1336  C1405   1.337   .     S
C1336  H1420   1.087   .     S
C1337  C1342   1.407   .     A
C1337  O1361   1.383   .     S
C1337  C1759   1.404   1_545 S
C1338  C1341   1.411   .     A
C1338  O1366   1.373   .     S
C1338  C1550   1.396   .     S
C1339  O1371   1.386   .     S
C1339  C1341   1.409   .     A
C1339  C1547   1.404   .     S
C1340  O1376   1.393   .     S
C1340  C1342   1.396   .     A
C1340  C1758   1.396   1_545 S
C1343  N1352   1.377   .     A
C1343  O1381   1.382   .     S
C1344  O1386   1.383   .     S
C1344  N1351   1.382   .     A
C1344  C86     1.439   1_556 S
C1345  O1391   1.388   .     S
C1345  N1351   1.367   .     A
C1345  C83     1.441   1_556 S
C1346  O1396   1.389   .     S
C1346  N1352   1.368   .     A
Cu1347 Cu1348  2.701   .     S
Cu1347 O1360   1.958   .     S
Cu1347 O1353   1.959   .     S
Cu1347 O1356   1.971   .     S
Cu1347 O1357   1.954   .     S
Cu1347 N1351   2.030   .     S
Cu1348 N1352   2.030   .     S
Cu1348 O1359   1.958   .     S
Cu1348 O1355   1.971   .     S
Cu1348 O1354   1.959   .     S
Cu1348 O1358   1.954   .     S
H1349  C1405   1.080   .     S
O1361  C1362   1.410   .     S
C1362  H1363   1.109   .     S
C1362  H1365   1.113   .     S
C1362  H1364   1.114   .     S
O1366  C1367   1.419   .     S
C1367  H1368   1.109   .     S
C1367  H1370   1.107   .     S
C1367  H1369   1.117   .     S
O1371  C1372   1.410   .     S
C1372  H1374   1.114   .     S
C1372  H1373   1.110   .     S
C1372  H1375   1.110   .     S
O1376  C1377   1.409   .     S
C1377  H1378   1.107   .     S
C1377  H1380   1.109   .     S
C1377  H1379   1.110   .     S
O1381  C1382   1.414   .     S
C1382  H1385   1.107   .     S
C1382  H1384   1.114   .     S
H1383  C122    1.108   1_556 S
O1386  C1387   1.405   .     S
C1387  H1388   1.109   .     S
C1387  H1389   1.110   .     S
C1387  H1390   1.104   .     S
O1391  C1392   1.416   .     S
C1392  H1393   1.109   .     S
C1392  H1394   1.109   .     S
C1392  H1395   1.114   .     S
O1396  C1397   1.409   .     S
C1397  H1400   1.106   .     S
C1397  H1399   1.109   .     S
C1397  H1398   1.106   .     S
C1401  O1423   1.297   .     A
C1401  O1425   1.294   .     A
C1401  C1412   1.445   .     S
C1402  O1426   1.300   .     A
C1402  O1424   1.303   .     A
C1402  C1411   1.466   .     S
C1403  O1427   1.288   .     A
C1403  O1429   1.301   .     A
C1403  C1405   1.436   .     S
C1404  O1428   1.294   .     A
C1404  C1406   1.438   .     S
C1404  O1430   1.296   .     A
C1406  C1265   1.337   1_655 S
C1406  H1280   1.087   1_655 S
C1407  C1412   1.407   .     A
C1407  O1431   1.383   .     S
C1407  C1829   1.404   1_545 S
C1408  C1411   1.411   .     A
C1408  O1436   1.373   .     S
C1408  C1620   1.396   .     S
C1409  O1441   1.386   .     S
C1409  C1411   1.409   .     A
C1409  C1617   1.404   .     S
C1410  O1446   1.393   .     S
C1410  C1412   1.396   .     A
C1410  C1828   1.396   1_545 S
C1413  N1422   1.377   .     A
C1413  O1451   1.382   .     S
C1414  O1456   1.383   .     S
C1414  N1421   1.382   .     A
C1414  C156    1.439   1_556 S
C1415  O1461   1.388   .     S
C1415  N1421   1.367   .     A
C1415  C153    1.441   1_556 S
C1416  O1466   1.389   .     S
C1416  N1422   1.368   .     A
Cu1417 Cu1418  2.701   .     S
Cu1417 O1430   1.958   .     S
Cu1417 O1423   1.959   .     S
Cu1417 O1426   1.971   .     S
Cu1417 O1427   1.954   .     S
Cu1417 N1421   2.030   .     S
Cu1418 N1422   2.030   .     S
Cu1418 O1429   1.958   .     S
Cu1418 O1425   1.971   .     S
Cu1418 O1424   1.959   .     S
Cu1418 O1428   1.954   .     S
H1419  C1265   1.080   1_655 S
O1431  C1432   1.410   .     S
C1432  H1433   1.109   .     S
C1432  H1435   1.113   .     S
C1432  H1434   1.114   .     S
O1436  C1437   1.419   .     S
C1437  H1438   1.109   .     S
C1437  H1440   1.107   .     S
C1437  H1439   1.117   .     S
O1441  C1442   1.410   .     S
C1442  H1444   1.114   .     S
C1442  H1443   1.110   .     S
C1442  H1445   1.110   .     S
O1446  C1447   1.409   .     S
C1447  H1448   1.107   .     S
C1447  H1450   1.109   .     S
C1447  H1449   1.110   .     S
O1451  C1452   1.414   .     S
C1452  H1455   1.107   .     S
C1452  H1454   1.114   .     S
H1453  C192    1.108   1_556 S
O1456  C1457   1.405   .     S
C1457  H1458   1.109   .     S
C1457  H1459   1.110   .     S
C1457  H1460   1.104   .     S
O1461  C1462   1.416   .     S
C1462  H1463   1.109   .     S
C1462  H1464   1.109   .     S
C1462  H1465   1.114   .     S
O1466  C1467   1.409   .     S
C1467  H1470   1.106   .     S
C1467  H1469   1.109   .     S
C1467  H1468   1.106   .     S
C1471  O1493   1.297   .     A
C1471  O1495   1.294   .     A
C1471  C1482   1.445   .     S
C1472  O1496   1.300   .     A
C1472  O1494   1.303   .     A
C1472  C1481   1.466   .     S
C1473  O1497   1.288   .     A
C1473  O1499   1.301   .     A
C1473  C1475   1.436   .     S
C1474  O1498   1.294   .     A
C1474  C1476   1.438   .     S
C1474  O1500   1.296   .     A
C1475  C1616   1.337   1_455 S
C1475  H1629   1.080   1_455 S
C1476  C1545   1.337   .     S
C1476  H1560   1.087   .     S
C1477  C1482   1.407   .     A
C1477  O1501   1.383   .     S
C1478  C1481   1.411   .     A
C1478  O1506   1.373   .     S
C1478  C1690   1.396   .     S
C1479  O1511   1.386   .     S
C1479  C1481   1.409   .     A
C1479  C1687   1.404   .     S
C1480  O1516   1.393   .     S
C1480  C1482   1.396   .     A
C1483  N1492   1.377   .     A
C1483  O1521   1.382   .     S
C1484  O1526   1.383   .     S
C1484  N1491   1.382   .     A
C1484  C226    1.439   1_556 S
C1485  O1531   1.388   .     S
C1485  N1491   1.367   .     A
C1485  C223    1.441   1_556 S
C1486  O1536   1.389   .     S
C1486  N1492   1.368   .     A
Cu1487 Cu1488  2.701   .     S
Cu1487 O1500   1.958   .     S
Cu1487 O1493   1.959   .     S
Cu1487 O1496   1.971   .     S
Cu1487 O1497   1.954   .     S
Cu1487 N1491   2.030   .     S
Cu1488 N1492   2.030   .     S
Cu1488 O1499   1.958   .     S
Cu1488 O1495   1.971   .     S
Cu1488 O1494   1.959   .     S
Cu1488 O1498   1.954   .     S
H1489  C1545   1.080   .     S
H1490  C1616   1.087   1_455 S
O1501  C1502   1.410   .     S
C1502  H1503   1.109   .     S
C1502  H1505   1.113   .     S
C1502  H1504   1.114   .     S
O1506  C1507   1.419   .     S
C1507  H1508   1.109   .     S
C1507  H1510   1.107   .     S
C1507  H1509   1.117   .     S
O1511  C1512   1.410   .     S
C1512  H1514   1.114   .     S
C1512  H1513   1.110   .     S
C1512  H1515   1.110   .     S
O1516  C1517   1.409   .     S
C1517  H1518   1.107   .     S
C1517  H1520   1.109   .     S
C1517  H1519   1.110   .     S
O1521  C1522   1.414   .     S
C1522  H1525   1.107   .     S
C1522  H1524   1.114   .     S
H1523  C262    1.108   1_556 S
O1526  C1527   1.405   .     S
C1527  H1528   1.109   .     S
C1527  H1529   1.110   .     S
C1527  H1530   1.104   .     S
O1531  C1532   1.416   .     S
C1532  H1533   1.109   .     S
C1532  H1534   1.109   .     S
C1532  H1535   1.114   .     S
O1536  C1537   1.409   .     S
C1537  H1540   1.106   .     S
C1537  H1539   1.109   .     S
C1537  H1538   1.106   .     S
C1541  O1563   1.297   .     A
C1541  O1565   1.294   .     A
C1541  C1552   1.445   .     S
C1542  O1566   1.300   .     A
C1542  O1564   1.303   .     A
C1542  C1551   1.466   .     S
C1543  O1567   1.288   .     A
C1543  O1569   1.301   .     A
C1543  C1545   1.436   .     S
C1544  O1568   1.294   .     A
C1544  C1546   1.438   .     S
C1544  O1570   1.296   .     A
C1546  C1615   1.337   .     S
C1546  H1630   1.087   .     S
C1547  C1552   1.407   .     A
C1547  O1571   1.383   .     S
C1548  C1551   1.411   .     A
C1548  O1576   1.373   .     S
C1548  C1760   1.396   .     S
C1549  O1581   1.386   .     S
C1549  C1551   1.409   .     A
C1549  C1757   1.404   .     S
C1550  O1586   1.393   .     S
C1550  C1552   1.396   .     A
C1553  N1562   1.377   .     A
C1553  O1591   1.382   .     S
C1554  O1596   1.383   .     S
C1554  N1561   1.382   .     A
C1554  C296    1.439   1_556 S
C1555  O1601   1.388   .     S
C1555  N1561   1.367   .     A
C1555  C293    1.441   1_556 S
C1556  O1606   1.389   .     S
C1556  N1562   1.368   .     A
Cu1557 Cu1558  2.701   .     S
Cu1557 O1570   1.958   .     S
Cu1557 O1563   1.959   .     S
Cu1557 O1566   1.971   .     S
Cu1557 O1567   1.954   .     S
Cu1557 N1561   2.030   .     S
Cu1558 N1562   2.030   .     S
Cu1558 O1569   1.958   .     S
Cu1558 O1565   1.971   .     S
Cu1558 O1564   1.959   .     S
Cu1558 O1568   1.954   .     S
H1559  C1615   1.080   .     S
O1571  C1572   1.410   .     S
C1572  H1573   1.109   .     S
C1572  H1575   1.113   .     S
C1572  H1574   1.114   .     S
O1576  C1577   1.419   .     S
C1577  H1578   1.109   .     S
C1577  H1580   1.107   .     S
C1577  H1579   1.117   .     S
O1581  C1582   1.410   .     S
C1582  H1584   1.114   .     S
C1582  H1583   1.110   .     S
C1582  H1585   1.110   .     S
O1586  C1587   1.409   .     S
C1587  H1588   1.107   .     S
C1587  H1590   1.109   .     S
C1587  H1589   1.110   .     S
O1591  C1592   1.414   .     S
C1592  H1595   1.107   .     S
C1592  H1594   1.114   .     S
H1593  C332    1.108   1_556 S
O1596  C1597   1.405   .     S
C1597  H1598   1.109   .     S
C1597  H1599   1.110   .     S
C1597  H1600   1.104   .     S
O1601  C1602   1.416   .     S
C1602  H1603   1.109   .     S
C1602  H1604   1.109   .     S
C1602  H1605   1.114   .     S
O1606  C1607   1.409   .     S
C1607  H1610   1.106   .     S
C1607  H1609   1.109   .     S
C1607  H1608   1.106   .     S
C1611  O1633   1.297   .     A
C1611  O1635   1.294   .     A
C1611  C1622   1.445   .     S
C1612  O1636   1.300   .     A
C1612  O1634   1.303   .     A
C1612  C1621   1.466   .     S
C1613  O1637   1.288   .     A
C1613  O1639   1.301   .     A
C1613  C1615   1.436   .     S
C1614  O1638   1.294   .     A
C1614  C1616   1.438   .     S
C1614  O1640   1.296   .     A
C1616  C1475   1.337   1_655 S
C1616  H1490   1.087   1_655 S
C1617  C1622   1.407   .     A
C1617  O1641   1.383   .     S
C1618  C1621   1.411   .     A
C1618  O1646   1.373   .     S
C1618  C1830   1.396   .     S
C1619  O1651   1.386   .     S
C1619  C1621   1.409   .     A
C1619  C1827   1.404   .     S
C1620  O1656   1.393   .     S
C1620  C1622   1.396   .     A
C1623  N1632   1.377   .     A
C1623  O1661   1.382   .     S
C1624  O1666   1.383   .     S
C1624  N1631   1.382   .     A
C1624  C366    1.439   1_556 S
C1625  O1671   1.388   .     S
C1625  N1631   1.367   .     A
C1625  C363    1.441   1_556 S
C1626  O1676   1.389   .     S
C1626  N1632   1.368   .     A
Cu1627 Cu1628  2.701   .     S
Cu1627 O1640   1.958   .     S
Cu1627 O1633   1.959   .     S
Cu1627 O1636   1.971   .     S
Cu1627 O1637   1.954   .     S
Cu1627 N1631   2.030   .     S
Cu1628 N1632   2.030   .     S
Cu1628 O1639   1.958   .     S
Cu1628 O1635   1.971   .     S
Cu1628 O1634   1.959   .     S
Cu1628 O1638   1.954   .     S
H1629  C1475   1.080   1_655 S
O1641  C1642   1.410   .     S
C1642  H1643   1.109   .     S
C1642  H1645   1.113   .     S
C1642  H1644   1.114   .     S
O1646  C1647   1.419   .     S
C1647  H1648   1.109   .     S
C1647  H1650   1.107   .     S
C1647  H1649   1.117   .     S
O1651  C1652   1.410   .     S
C1652  H1654   1.114   .     S
C1652  H1653   1.110   .     S
C1652  H1655   1.110   .     S
O1656  C1657   1.409   .     S
C1657  H1658   1.107   .     S
C1657  H1660   1.109   .     S
C1657  H1659   1.110   .     S
O1661  C1662   1.414   .     S
C1662  H1665   1.107   .     S
C1662  H1664   1.114   .     S
H1663  C402    1.108   1_556 S
O1666  C1667   1.405   .     S
C1667  H1668   1.109   .     S
C1667  H1669   1.110   .     S
C1667  H1670   1.104   .     S
O1671  C1672   1.416   .     S
C1672  H1673   1.109   .     S
C1672  H1674   1.109   .     S
C1672  H1675   1.114   .     S
O1676  C1677   1.409   .     S
C1677  H1680   1.106   .     S
C1677  H1679   1.109   .     S
C1677  H1678   1.106   .     S
C1681  O1703   1.297   .     A
C1681  O1705   1.294   .     A
C1681  C1692   1.445   .     S
C1682  O1706   1.300   .     A
C1682  O1704   1.303   .     A
C1682  C1691   1.466   .     S
C1683  O1707   1.288   .     A
C1683  O1709   1.301   .     A
C1683  C1685   1.436   .     S
C1684  O1708   1.294   .     A
C1684  C1686   1.438   .     S
C1684  O1710   1.296   .     A
C1685  C1826   1.337   1_455 S
C1685  H1839   1.080   1_455 S
C1686  C1755   1.337   .     S
C1686  H1770   1.087   .     S
C1687  C1692   1.407   .     A
C1687  O1711   1.383   .     S
C1688  C1691   1.411   .     A
C1688  O1716   1.373   .     S
C1688  C1270   1.396   1_565 S
C1689  O1721   1.386   .     S
C1689  C1691   1.409   .     A
C1689  C1267   1.404   1_565 S
C1690  O1726   1.393   .     S
C1690  C1692   1.396   .     A
C1693  N1702   1.377   .     A
C1693  O1731   1.382   .     S
C1694  O1736   1.383   .     S
C1694  N1701   1.382   .     A
C1694  C436    1.439   1_556 S
C1695  O1741   1.388   .     S
C1695  N1701   1.367   .     A
C1695  C433    1.441   1_556 S
C1696  O1746   1.389   .     S
C1696  N1702   1.368   .     A
Cu1697 Cu1698  2.701   .     S
Cu1697 O1710   1.958   .     S
Cu1697 O1703   1.959   .     S
Cu1697 O1706   1.971   .     S
Cu1697 O1707   1.954   .     S
Cu1697 N1701   2.030   .     S
Cu1698 N1702   2.030   .     S
Cu1698 O1709   1.958   .     S
Cu1698 O1705   1.971   .     S
Cu1698 O1704   1.959   .     S
Cu1698 O1708   1.954   .     S
H1699  C1755   1.080   .     S
H1700  C1826   1.087   1_455 S
O1711  C1712   1.410   .     S
C1712  H1713   1.109   .     S
C1712  H1715   1.113   .     S
C1712  H1714   1.114   .     S
O1716  C1717   1.419   .     S
C1717  H1718   1.109   .     S
C1717  H1720   1.107   .     S
C1717  H1719   1.117   .     S
O1721  C1722   1.410   .     S
C1722  H1724   1.114   .     S
C1722  H1723   1.110   .     S
C1722  H1725   1.110   .     S
O1726  C1727   1.409   .     S
C1727  H1728   1.107   .     S
C1727  H1730   1.109   .     S
C1727  H1729   1.110   .     S
O1731  C1732   1.414   .     S
C1732  H1735   1.107   .     S
C1732  H1734   1.114   .     S
H1733  C472    1.108   1_556 S
O1736  C1737   1.405   .     S
C1737  H1738   1.109   .     S
C1737  H1739   1.110   .     S
C1737  H1740   1.104   .     S
O1741  C1742   1.416   .     S
C1742  H1743   1.109   .     S
C1742  H1744   1.109   .     S
C1742  H1745   1.114   .     S
O1746  C1747   1.409   .     S
C1747  H1750   1.106   .     S
C1747  H1749   1.109   .     S
C1747  H1748   1.106   .     S
C1751  O1773   1.297   .     A
C1751  O1775   1.294   .     A
C1751  C1762   1.445   .     S
C1752  O1776   1.300   .     A
C1752  O1774   1.303   .     A
C1752  C1761   1.466   .     S
C1753  O1777   1.288   .     A
C1753  O1779   1.301   .     A
C1753  C1755   1.436   .     S
C1754  O1778   1.294   .     A
C1754  C1756   1.438   .     S
C1754  O1780   1.296   .     A
C1756  C1825   1.337   .     S
C1756  H1840   1.087   .     S
C1757  C1762   1.407   .     A
C1757  O1781   1.383   .     S
C1758  C1761   1.411   .     A
C1758  O1786   1.373   .     S
C1758  C1340   1.396   1_565 S
C1759  O1791   1.386   .     S
C1759  C1761   1.409   .     A
C1759  C1337   1.404   1_565 S
C1760  O1796   1.393   .     S
C1760  C1762   1.396   .     A
C1763  N1772   1.377   .     A
C1763  O1801   1.382   .     S
C1764  O1806   1.383   .     S
C1764  N1771   1.382   .     A
C1764  C506    1.439   1_556 S
C1765  O1811   1.388   .     S
C1765  N1771   1.367   .     A
C1765  C503    1.441   1_556 S
C1766  O1816   1.389   .     S
C1766  N1772   1.368   .     A
Cu1767 Cu1768  2.701   .     S
Cu1767 O1780   1.958   .     S
Cu1767 O1773   1.959   .     S
Cu1767 O1776   1.971   .     S
Cu1767 O1777   1.954   .     S
Cu1767 N1771   2.030   .     S
Cu1768 N1772   2.030   .     S
Cu1768 O1779   1.958   .     S
Cu1768 O1775   1.971   .     S
Cu1768 O1774   1.959   .     S
Cu1768 O1778   1.954   .     S
H1769  C1825   1.080   .     S
O1781  C1782   1.410   .     S
C1782  H1783   1.109   .     S
C1782  H1785   1.113   .     S
C1782  H1784   1.114   .     S
O1786  C1787   1.419   .     S
C1787  H1788   1.109   .     S
C1787  H1790   1.107   .     S
C1787  H1789   1.117   .     S
O1791  C1792   1.410   .     S
C1792  H1794   1.114   .     S
C1792  H1793   1.110   .     S
C1792  H1795   1.110   .     S
O1796  C1797   1.409   .     S
C1797  H1798   1.107   .     S
C1797  H1800   1.109   .     S
C1797  H1799   1.110   .     S
O1801  C1802   1.414   .     S
C1802  H1805   1.107   .     S
C1802  H1804   1.114   .     S
H1803  C542    1.108   1_556 S
O1806  C1807   1.405   .     S
C1807  H1808   1.109   .     S
C1807  H1809   1.110   .     S
C1807  H1810   1.104   .     S
O1811  C1812   1.416   .     S
C1812  H1813   1.109   .     S
C1812  H1814   1.109   .     S
C1812  H1815   1.114   .     S
O1816  C1817   1.409   .     S
C1817  H1820   1.106   .     S
C1817  H1819   1.109   .     S
C1817  H1818   1.106   .     S
C1821  O1843   1.297   .     A
C1821  O1845   1.294   .     A
C1821  C1832   1.445   .     S
C1822  O1846   1.300   .     A
C1822  O1844   1.303   .     A
C1822  C1831   1.466   .     S
C1823  O1847   1.288   .     A
C1823  O1849   1.301   .     A
C1823  C1825   1.436   .     S
C1824  O1848   1.294   .     A
C1824  C1826   1.438   .     S
C1824  O1850   1.296   .     A
C1826  C1685   1.337   1_655 S
C1826  H1700   1.087   1_655 S
C1827  C1832   1.407   .     A
C1827  O1851   1.383   .     S
C1828  C1831   1.411   .     A
C1828  O1856   1.373   .     S
C1828  C1410   1.396   1_565 S
C1829  O1861   1.386   .     S
C1829  C1831   1.409   .     A
C1829  C1407   1.404   1_565 S
C1830  O1866   1.393   .     S
C1830  C1832   1.396   .     A
C1833  N1842   1.377   .     A
C1833  O1871   1.382   .     S
C1834  O1876   1.383   .     S
C1834  N1841   1.382   .     A
C1834  C576    1.439   1_556 S
C1835  O1881   1.388   .     S
C1835  N1841   1.367   .     A
C1835  C573    1.441   1_556 S
C1836  O1886   1.389   .     S
C1836  N1842   1.368   .     A
Cu1837 Cu1838  2.701   .     S
Cu1837 O1850   1.958   .     S
Cu1837 O1843   1.959   .     S
Cu1837 O1846   1.971   .     S
Cu1837 O1847   1.954   .     S
Cu1837 N1841   2.030   .     S
Cu1838 N1842   2.030   .     S
Cu1838 O1849   1.958   .     S
Cu1838 O1845   1.971   .     S
Cu1838 O1844   1.959   .     S
Cu1838 O1848   1.954   .     S
H1839  C1685   1.080   1_655 S
O1851  C1852   1.410   .     S
C1852  H1853   1.109   .     S
C1852  H1855   1.113   .     S
C1852  H1854   1.114   .     S
O1856  C1857   1.419   .     S
C1857  H1858   1.109   .     S
C1857  H1860   1.107   .     S
C1857  H1859   1.117   .     S
O1861  C1862   1.410   .     S
C1862  H1864   1.114   .     S
C1862  H1863   1.110   .     S
C1862  H1865   1.110   .     S
O1866  C1867   1.409   .     S
C1867  H1868   1.107   .     S
C1867  H1870   1.109   .     S
C1867  H1869   1.110   .     S
O1871  C1872   1.414   .     S
C1872  H1875   1.107   .     S
C1872  H1874   1.114   .     S
H1873  C612    1.108   1_556 S
O1876  C1877   1.405   .     S
C1877  H1878   1.109   .     S
C1877  H1879   1.110   .     S
C1877  H1880   1.104   .     S
O1881  C1882   1.416   .     S
C1882  H1883   1.109   .     S
C1882  H1884   1.109   .     S
C1882  H1885   1.114   .     S
O1886  C1887   1.409   .     S
C1887  H1890   1.106   .     S
C1887  H1889   1.109   .     S
C1887  H1888   1.106   .     S
