data_str_m1_o10_o16_pcu_sym.238
_audit_creation_date              2020-01-03
_audit_creation_method            'Materials Studio'
_symmetry_space_group_name_H-M    'P1'
_symmetry_Int_Tables_number       1
_symmetry_cell_setting            triclinic
loop_
_symmetry_equiv_pos_as_xyz
  x,y,z
_cell_length_a                    32.7003
_cell_length_b                    32.4292
_cell_length_c                    31.0090
_cell_angle_alpha                 96.9928
_cell_angle_beta                  75.1222
_cell_angle_gamma                 98.6514
loop_
_atom_site_label
_atom_site_type_symbol
_atom_site_fract_x
_atom_site_fract_y
_atom_site_fract_z
_atom_site_U_iso_or_equiv
_atom_site_adp_type
_atom_site_occupancy
C1     C     0.05303   0.15985   0.25939   0.00000  Uiso   1.00
C2     C     0.17353   0.16415   0.05939   0.00000  Uiso   1.00
C3     C     0.20582   0.10199   0.05996   0.00000  Uiso   1.00
C4     C     0.28059   0.17360   0.24030   0.00000  Uiso   1.00
C5     C     0.14143   0.19361   0.42053   0.00000  Uiso   1.00
C6     C     0.32601   0.17628   0.23786   0.00000  Uiso   1.00
C7     C     0.00792   0.15559   0.26442   0.00000  Uiso   1.00
C8     C     0.18167   0.32281   0.23841   0.00000  Uiso   1.00
C9     C     0.15133   0.01153   0.26287   0.00000  Uiso   1.00
C10    C     0.15597   0.05581   0.26007   0.00000  Uiso   1.00
C11    C     0.17675   0.27791   0.24053   0.00000  Uiso   1.00
C12    C     0.12235   0.24094   0.48780   0.00000  Uiso   1.00
C13    C     0.18526   0.14756   0.12944   0.00000  Uiso   1.00
C14    C     0.14839   0.18462   0.37115   0.00000  Uiso   1.00
C15    C     0.20272   0.08920   0.01617   0.00000  Uiso   1.00
C16    C     0.19069   0.13897   0.08148   0.00000  Uiso   1.00
C17    C     0.12888   0.23286   0.44152   0.00000  Uiso   1.00
C18    C     0.31542   0.12595   0.29672   0.00000  Uiso   1.00
C19    C     0.30390   0.08418   0.28190   0.00000  Uiso   1.00
C20    C     0.27885   0.05649   0.31232   0.00000  Uiso   1.00
C21    C     0.26536   0.07030   0.35758   0.00000  Uiso   1.00
C22    C     0.27694   0.11181   0.37254   0.00000  Uiso   1.00
C23    C     0.13359   0.21398   0.01287   0.00000  Uiso   1.00
C24    C     0.30207   0.13958   0.34226   0.00000  Uiso   1.00
C25    C     0.22392   0.05275   0.49286   0.00000  Uiso   1.00
C26    C     0.20123   0.01246   0.49202   0.00000  Uiso   1.00
C27    C     0.22209   0.31175   0.46974   0.00000  Uiso   1.00
C28    C     0.26536   0.31781   0.44805   0.00000  Uiso   1.00
C29    C     0.28804   0.02455   0.44893   0.00000  Uiso   1.00
C30    C     0.26748   0.05858   0.47146   0.00000  Uiso   1.00
C31    C     0.12628   0.26826   0.41666   0.00000  Uiso   1.00
C32    C     0.08824   0.28639   0.42550   0.00000  Uiso   1.00
C33    C     0.08706   0.32249   0.40563   0.00000  Uiso   1.00
C34    C     0.15043   0.17678   0.49261   0.00000  Uiso   1.00
C35    C     0.12380   0.00755   0.37707   0.00000  Uiso   1.00
C36    C     0.16169   0.32289   0.36781   0.00000  Uiso   1.00
C37    C     0.16307   0.28683   0.38766   0.00000  Uiso   1.00
C38    C     0.14972   0.16444   0.44725   0.00000  Uiso   1.00
C39    C     0.16817   0.15157   0.01591   0.00000  Uiso   1.00
C40    C     0.18210   0.11293   0.49461   0.00000  Uiso   1.00
C41    C     0.17426   0.09844   0.45279   0.00000  Uiso   1.00
C42    C     0.15740   0.12324   0.43009   0.00000  Uiso   1.00
H43    H     0.21962   0.08288   0.07751   0.00000  Uiso   1.00
H44    H     0.31403   0.07327   0.24685   0.00000  Uiso   1.00
H45    H     0.26984   0.02435   0.30079   0.00000  Uiso   1.00
H46    H     0.24600   0.04880   0.38102   0.00000  Uiso   1.00
H47    H     0.26642   0.12251   0.40756   0.00000  Uiso   1.00
H48    H     0.31075   0.17171   0.35412   0.00000  Uiso   1.00
H49    H     0.16763   0.00749   0.00848   0.00000  Uiso   1.00
H50    H     0.20486   0.28063   0.46917   0.00000  Uiso   1.00
H51    H     0.28132   0.29145   0.43064   0.00000  Uiso   1.00
H52    H     0.32150   0.02931   0.43208   0.00000  Uiso   1.00
H53    H     0.28538   0.08951   0.47198   0.00000  Uiso   1.00
H54    H     0.21014   0.00467   0.21670   0.00000  Uiso   1.00
H55    H     0.05973   0.27289   0.44826   0.00000  Uiso   1.00
H56    H     0.05777   0.00314   0.41274   0.00000  Uiso   1.00
H57    H     0.12289   0.03577   0.36215   0.00000  Uiso   1.00
H58    H     0.19004   0.00375   0.34551   0.00000  Uiso   1.00
H59    H     0.19293   0.27383   0.38112   0.00000  Uiso   1.00
H60    H     0.12171   0.33011   0.28302   0.00000  Uiso   1.00
H61    H     0.18109   0.06770   0.43722   0.00000  Uiso   1.00
H62    H     0.16352   0.19274   0.07784   0.00000  Uiso   1.00
H63    H     0.12899   0.22359   0.04807   0.00000  Uiso   1.00
H64    H     0.11158   0.27018   0.00433   0.00000  Uiso   1.00
H65    H     0.15015   0.10911   0.39917   0.00000  Uiso   1.00
H66    H     0.01459   0.19614   0.21393   0.00000  Uiso   1.00
O67    O     0.16667   0.16667   0.25000   0.00000  Uiso   1.00
O68    O     0.15451   0.12637   0.15458   0.00000  Uiso   1.00
O69    O     0.12940   0.20391   0.34968   0.00000  Uiso   1.00
O70    O     0.20824   0.17759   0.14606   0.00000  Uiso   1.00
O71    O     0.17451   0.15880   0.34968   0.00000  Uiso   1.00
O72    O     0.17930   0.08019   0.28213   0.00000  Uiso   1.00
O73    O     0.14632   0.26085   0.27013   0.00000  Uiso   1.00
O74    O     0.07412   0.13291   0.23413   0.00000  Uiso   1.00
O75    O     0.26693   0.19272   0.21360   0.00000  Uiso   1.00
O76    O     0.07071   0.18878   0.28213   0.00000  Uiso   1.00
O77    O     0.25491   0.15226   0.27013   0.00000  Uiso   1.00
O78    O     0.13760   0.06944   0.23413   0.00000  Uiso   1.00
O79    O     0.20345   0.25620   0.21360   0.00000  Uiso   1.00
Zn80   Zn    0.19338   0.13994   0.28734   0.00000  Uiso   1.00
Zn81   Zn    0.13379   0.12458   0.21875   0.00000  Uiso   1.00
Zn82   Zn    0.21056   0.19775   0.20657   0.00000  Uiso   1.00
Zn83   Zn    0.12893   0.20439   0.28733   0.00000  Uiso   1.00
C84    C     0.38636   0.15985   0.25939   0.00000  Uiso   1.00
C85    C     0.50686   0.16415   0.05939   0.00000  Uiso   1.00
C86    C     0.53916   0.10199   0.05996   0.00000  Uiso   1.00
C87    C     0.61392   0.17360   0.24030   0.00000  Uiso   1.00
C88    C     0.47476   0.19361   0.42053   0.00000  Uiso   1.00
C89    C     0.65934   0.17628   0.23786   0.00000  Uiso   1.00
C90    C     0.34126   0.15559   0.26442   0.00000  Uiso   1.00
C91    C     0.51500   0.32281   0.23841   0.00000  Uiso   1.00
C92    C     0.48466   0.01153   0.26287   0.00000  Uiso   1.00
C93    C     0.48930   0.05581   0.26007   0.00000  Uiso   1.00
C94    C     0.51008   0.27791   0.24053   0.00000  Uiso   1.00
C95    C     0.45568   0.24094   0.48780   0.00000  Uiso   1.00
C96    C     0.51860   0.14756   0.12944   0.00000  Uiso   1.00
C97    C     0.48173   0.18462   0.37115   0.00000  Uiso   1.00
C98    C     0.53605   0.08920   0.01617   0.00000  Uiso   1.00
C99    C     0.52403   0.13897   0.08148   0.00000  Uiso   1.00
C100   C     0.46221   0.23286   0.44152   0.00000  Uiso   1.00
C101   C     0.64875   0.12595   0.29672   0.00000  Uiso   1.00
C102   C     0.63723   0.08418   0.28190   0.00000  Uiso   1.00
C103   C     0.61218   0.05649   0.31232   0.00000  Uiso   1.00
C104   C     0.59869   0.07030   0.35758   0.00000  Uiso   1.00
C105   C     0.61028   0.11181   0.37254   0.00000  Uiso   1.00
C106   C     0.46692   0.21398   0.01287   0.00000  Uiso   1.00
C107   C     0.63540   0.13958   0.34226   0.00000  Uiso   1.00
C108   C     0.55726   0.05275   0.49286   0.00000  Uiso   1.00
C109   C     0.53456   0.01246   0.49202   0.00000  Uiso   1.00
C110   C     0.55542   0.31175   0.46974   0.00000  Uiso   1.00
C111   C     0.59869   0.31781   0.44805   0.00000  Uiso   1.00
C112   C     0.62137   0.02455   0.44893   0.00000  Uiso   1.00
C113   C     0.60081   0.05858   0.47146   0.00000  Uiso   1.00
C114   C     0.45962   0.26826   0.41666   0.00000  Uiso   1.00
C115   C     0.42157   0.28639   0.42550   0.00000  Uiso   1.00
C116   C     0.42039   0.32249   0.40563   0.00000  Uiso   1.00
C117   C     0.48376   0.17678   0.49261   0.00000  Uiso   1.00
C118   C     0.45713   0.00755   0.37707   0.00000  Uiso   1.00
C119   C     0.49502   0.32289   0.36781   0.00000  Uiso   1.00
C120   C     0.49641   0.28683   0.38766   0.00000  Uiso   1.00
C121   C     0.48305   0.16444   0.44725   0.00000  Uiso   1.00
C122   C     0.50150   0.15157   0.01591   0.00000  Uiso   1.00
C123   C     0.51544   0.11293   0.49461   0.00000  Uiso   1.00
C124   C     0.50760   0.09844   0.45279   0.00000  Uiso   1.00
C125   C     0.49073   0.12324   0.43009   0.00000  Uiso   1.00
H126   H     0.55296   0.08288   0.07751   0.00000  Uiso   1.00
H127   H     0.64737   0.07327   0.24685   0.00000  Uiso   1.00
H128   H     0.60317   0.02435   0.30079   0.00000  Uiso   1.00
H129   H     0.57934   0.04880   0.38102   0.00000  Uiso   1.00
H130   H     0.59975   0.12251   0.40756   0.00000  Uiso   1.00
H131   H     0.64409   0.17171   0.35412   0.00000  Uiso   1.00
H132   H     0.50096   0.00749   0.00848   0.00000  Uiso   1.00
H133   H     0.53820   0.28063   0.46917   0.00000  Uiso   1.00
H134   H     0.61465   0.29145   0.43064   0.00000  Uiso   1.00
H135   H     0.65483   0.02931   0.43208   0.00000  Uiso   1.00
H136   H     0.61872   0.08951   0.47198   0.00000  Uiso   1.00
H137   H     0.54347   0.00467   0.21670   0.00000  Uiso   1.00
H138   H     0.39306   0.27289   0.44826   0.00000  Uiso   1.00
H139   H     0.39110   0.00314   0.41274   0.00000  Uiso   1.00
H140   H     0.45622   0.03577   0.36215   0.00000  Uiso   1.00
H141   H     0.52337   0.00375   0.34551   0.00000  Uiso   1.00
H142   H     0.52626   0.27383   0.38112   0.00000  Uiso   1.00
H143   H     0.45504   0.33011   0.28302   0.00000  Uiso   1.00
H144   H     0.51442   0.06770   0.43722   0.00000  Uiso   1.00
H145   H     0.49685   0.19274   0.07784   0.00000  Uiso   1.00
H146   H     0.46232   0.22359   0.04807   0.00000  Uiso   1.00
H147   H     0.44491   0.27018   0.00433   0.00000  Uiso   1.00
H148   H     0.48348   0.10911   0.39917   0.00000  Uiso   1.00
H149   H     0.34792   0.19614   0.21393   0.00000  Uiso   1.00
O150   O     0.50000   0.16667   0.25000   0.00000  Uiso   1.00
O151   O     0.48784   0.12637   0.15458   0.00000  Uiso   1.00
O152   O     0.46274   0.20391   0.34968   0.00000  Uiso   1.00
O153   O     0.54157   0.17759   0.14606   0.00000  Uiso   1.00
O154   O     0.50785   0.15880   0.34968   0.00000  Uiso   1.00
O155   O     0.51264   0.08019   0.28213   0.00000  Uiso   1.00
O156   O     0.47965   0.26085   0.27013   0.00000  Uiso   1.00
O157   O     0.40745   0.13291   0.23413   0.00000  Uiso   1.00
O158   O     0.60026   0.19272   0.21360   0.00000  Uiso   1.00
O159   O     0.40405   0.18878   0.28213   0.00000  Uiso   1.00
O160   O     0.58824   0.15226   0.27013   0.00000  Uiso   1.00
O161   O     0.47093   0.06944   0.23413   0.00000  Uiso   1.00
O162   O     0.53678   0.25620   0.21360   0.00000  Uiso   1.00
Zn163  Zn    0.52672   0.13994   0.28734   0.00000  Uiso   1.00
Zn164  Zn    0.46713   0.12458   0.21875   0.00000  Uiso   1.00
Zn165  Zn    0.54389   0.19775   0.20657   0.00000  Uiso   1.00
Zn166  Zn    0.46226   0.20439   0.28733   0.00000  Uiso   1.00
C167   C     0.71969   0.15985   0.25939   0.00000  Uiso   1.00
C168   C     0.84019   0.16415   0.05939   0.00000  Uiso   1.00
C169   C     0.87249   0.10199   0.05996   0.00000  Uiso   1.00
C170   C     0.94725   0.17360   0.24030   0.00000  Uiso   1.00
C171   C     0.80809   0.19361   0.42053   0.00000  Uiso   1.00
C172   C     0.99267   0.17628   0.23786   0.00000  Uiso   1.00
C173   C     0.67459   0.15559   0.26442   0.00000  Uiso   1.00
C174   C     0.84834   0.32281   0.23841   0.00000  Uiso   1.00
C175   C     0.81799   0.01153   0.26287   0.00000  Uiso   1.00
C176   C     0.82263   0.05581   0.26007   0.00000  Uiso   1.00
C177   C     0.84341   0.27791   0.24053   0.00000  Uiso   1.00
C178   C     0.78901   0.24094   0.48780   0.00000  Uiso   1.00
C179   C     0.85193   0.14756   0.12944   0.00000  Uiso   1.00
C180   C     0.81506   0.18462   0.37115   0.00000  Uiso   1.00
C181   C     0.86938   0.08920   0.01617   0.00000  Uiso   1.00
C182   C     0.85736   0.13897   0.08148   0.00000  Uiso   1.00
C183   C     0.79554   0.23286   0.44152   0.00000  Uiso   1.00
C184   C     0.98209   0.12595   0.29672   0.00000  Uiso   1.00
C185   C     0.97056   0.08418   0.28190   0.00000  Uiso   1.00
C186   C     0.94551   0.05649   0.31232   0.00000  Uiso   1.00
C187   C     0.93202   0.07030   0.35758   0.00000  Uiso   1.00
C188   C     0.94361   0.11181   0.37254   0.00000  Uiso   1.00
C189   C     0.80025   0.21398   0.01287   0.00000  Uiso   1.00
C190   C     0.96874   0.13958   0.34226   0.00000  Uiso   1.00
C191   C     0.89059   0.05275   0.49286   0.00000  Uiso   1.00
C192   C     0.86790   0.01246   0.49202   0.00000  Uiso   1.00
C193   C     0.88875   0.31175   0.46974   0.00000  Uiso   1.00
C194   C     0.93203   0.31781   0.44805   0.00000  Uiso   1.00
C195   C     0.95471   0.02455   0.44893   0.00000  Uiso   1.00
C196   C     0.93415   0.05858   0.47146   0.00000  Uiso   1.00
C197   C     0.79295   0.26826   0.41666   0.00000  Uiso   1.00
C198   C     0.75490   0.28639   0.42550   0.00000  Uiso   1.00
C199   C     0.75372   0.32249   0.40563   0.00000  Uiso   1.00
C200   C     0.81710   0.17678   0.49261   0.00000  Uiso   1.00
C201   C     0.79047   0.00755   0.37707   0.00000  Uiso   1.00
C202   C     0.82835   0.32289   0.36781   0.00000  Uiso   1.00
C203   C     0.82974   0.28683   0.38766   0.00000  Uiso   1.00
C204   C     0.81639   0.16444   0.44725   0.00000  Uiso   1.00
C205   C     0.83484   0.15157   0.01591   0.00000  Uiso   1.00
C206   C     0.84877   0.11293   0.49461   0.00000  Uiso   1.00
C207   C     0.84093   0.09844   0.45279   0.00000  Uiso   1.00
C208   C     0.82406   0.12324   0.43009   0.00000  Uiso   1.00
H209   H     0.88629   0.08288   0.07751   0.00000  Uiso   1.00
H210   H     0.98070   0.07327   0.24685   0.00000  Uiso   1.00
H211   H     0.93650   0.02435   0.30079   0.00000  Uiso   1.00
H212   H     0.91267   0.04880   0.38102   0.00000  Uiso   1.00
H213   H     0.93308   0.12251   0.40756   0.00000  Uiso   1.00
H214   H     0.97742   0.17171   0.35412   0.00000  Uiso   1.00
H215   H     0.83429   0.00749   0.00848   0.00000  Uiso   1.00
H216   H     0.87153   0.28063   0.46917   0.00000  Uiso   1.00
H217   H     0.94798   0.29145   0.43064   0.00000  Uiso   1.00
H218   H     0.98817   0.02931   0.43208   0.00000  Uiso   1.00
H219   H     0.95205   0.08951   0.47198   0.00000  Uiso   1.00
H220   H     0.87680   0.00467   0.21670   0.00000  Uiso   1.00
H221   H     0.72639   0.27289   0.44826   0.00000  Uiso   1.00
H222   H     0.72444   0.00314   0.41274   0.00000  Uiso   1.00
H223   H     0.78956   0.03577   0.36215   0.00000  Uiso   1.00
H224   H     0.85670   0.00375   0.34551   0.00000  Uiso   1.00
H225   H     0.85959   0.27383   0.38112   0.00000  Uiso   1.00
H226   H     0.78838   0.33011   0.28302   0.00000  Uiso   1.00
H227   H     0.84776   0.06770   0.43722   0.00000  Uiso   1.00
H228   H     0.83019   0.19274   0.07784   0.00000  Uiso   1.00
H229   H     0.79566   0.22359   0.04807   0.00000  Uiso   1.00
H230   H     0.77825   0.27018   0.00433   0.00000  Uiso   1.00
H231   H     0.81681   0.10911   0.39917   0.00000  Uiso   1.00
H232   H     0.68125   0.19614   0.21393   0.00000  Uiso   1.00
O233   O     0.83333   0.16667   0.25000   0.00000  Uiso   1.00
O234   O     0.82118   0.12637   0.15458   0.00000  Uiso   1.00
O235   O     0.79607   0.20391   0.34968   0.00000  Uiso   1.00
O236   O     0.87491   0.17759   0.14606   0.00000  Uiso   1.00
O237   O     0.84118   0.15880   0.34968   0.00000  Uiso   1.00
O238   O     0.84597   0.08019   0.28213   0.00000  Uiso   1.00
O239   O     0.81298   0.26085   0.27013   0.00000  Uiso   1.00
O240   O     0.74078   0.13291   0.23413   0.00000  Uiso   1.00
O241   O     0.93360   0.19272   0.21360   0.00000  Uiso   1.00
O242   O     0.73738   0.18878   0.28213   0.00000  Uiso   1.00
O243   O     0.92158   0.15226   0.27013   0.00000  Uiso   1.00
O244   O     0.80426   0.06944   0.23413   0.00000  Uiso   1.00
O245   O     0.87012   0.25620   0.21360   0.00000  Uiso   1.00
Zn246  Zn    0.86005   0.13994   0.28734   0.00000  Uiso   1.00
Zn247  Zn    0.80046   0.12458   0.21875   0.00000  Uiso   1.00
Zn248  Zn    0.87723   0.19775   0.20657   0.00000  Uiso   1.00
Zn249  Zn    0.79560   0.20439   0.28733   0.00000  Uiso   1.00
C250   C     0.05303   0.49318   0.25939   0.00000  Uiso   1.00
C251   C     0.17353   0.49749   0.05939   0.00000  Uiso   1.00
C252   C     0.20582   0.43533   0.05996   0.00000  Uiso   1.00
C253   C     0.28059   0.50693   0.24030   0.00000  Uiso   1.00
C254   C     0.14143   0.52694   0.42053   0.00000  Uiso   1.00
C255   C     0.32601   0.50961   0.23786   0.00000  Uiso   1.00
C256   C     0.00792   0.48892   0.26442   0.00000  Uiso   1.00
C257   C     0.18167   0.65614   0.23841   0.00000  Uiso   1.00
C258   C     0.15133   0.34486   0.26287   0.00000  Uiso   1.00
C259   C     0.15597   0.38915   0.26007   0.00000  Uiso   1.00
C260   C     0.17675   0.61124   0.24053   0.00000  Uiso   1.00
C261   C     0.12235   0.57427   0.48780   0.00000  Uiso   1.00
C262   C     0.18526   0.48089   0.12944   0.00000  Uiso   1.00
C263   C     0.14839   0.51796   0.37115   0.00000  Uiso   1.00
C264   C     0.20272   0.42253   0.01617   0.00000  Uiso   1.00
C265   C     0.19069   0.47230   0.08148   0.00000  Uiso   1.00
C266   C     0.12888   0.56619   0.44152   0.00000  Uiso   1.00
C267   C     0.31542   0.45928   0.29672   0.00000  Uiso   1.00
C268   C     0.30390   0.41751   0.28190   0.00000  Uiso   1.00
C269   C     0.27885   0.38982   0.31232   0.00000  Uiso   1.00
C270   C     0.26536   0.40363   0.35758   0.00000  Uiso   1.00
C271   C     0.27694   0.44514   0.37254   0.00000  Uiso   1.00
C272   C     0.13359   0.54731   0.01287   0.00000  Uiso   1.00
C273   C     0.30207   0.47291   0.34226   0.00000  Uiso   1.00
C274   C     0.22392   0.38609   0.49286   0.00000  Uiso   1.00
C275   C     0.20123   0.34579   0.49202   0.00000  Uiso   1.00
C276   C     0.22209   0.64509   0.46974   0.00000  Uiso   1.00
C277   C     0.26536   0.65115   0.44805   0.00000  Uiso   1.00
C278   C     0.28804   0.35788   0.44893   0.00000  Uiso   1.00
C279   C     0.26748   0.39191   0.47146   0.00000  Uiso   1.00
C280   C     0.12628   0.60159   0.41666   0.00000  Uiso   1.00
C281   C     0.08824   0.61972   0.42550   0.00000  Uiso   1.00
C282   C     0.08706   0.65583   0.40563   0.00000  Uiso   1.00
C283   C     0.15043   0.51011   0.49261   0.00000  Uiso   1.00
C284   C     0.12380   0.34089   0.37707   0.00000  Uiso   1.00
C285   C     0.16169   0.65623   0.36781   0.00000  Uiso   1.00
C286   C     0.16307   0.62017   0.38766   0.00000  Uiso   1.00
C287   C     0.14972   0.49777   0.44725   0.00000  Uiso   1.00
C288   C     0.16817   0.48490   0.01591   0.00000  Uiso   1.00
C289   C     0.18210   0.44626   0.49461   0.00000  Uiso   1.00
C290   C     0.17426   0.43177   0.45279   0.00000  Uiso   1.00
C291   C     0.15740   0.45657   0.43009   0.00000  Uiso   1.00
H292   H     0.21962   0.41621   0.07751   0.00000  Uiso   1.00
H293   H     0.31403   0.40660   0.24685   0.00000  Uiso   1.00
H294   H     0.26984   0.35769   0.30079   0.00000  Uiso   1.00
H295   H     0.24600   0.38213   0.38102   0.00000  Uiso   1.00
H296   H     0.26642   0.45585   0.40756   0.00000  Uiso   1.00
H297   H     0.31075   0.50505   0.35412   0.00000  Uiso   1.00
H298   H     0.16763   0.34083   0.00848   0.00000  Uiso   1.00
H299   H     0.20486   0.61397   0.46917   0.00000  Uiso   1.00
H300   H     0.28132   0.62479   0.43064   0.00000  Uiso   1.00
H301   H     0.32150   0.36264   0.43208   0.00000  Uiso   1.00
H302   H     0.28538   0.42284   0.47198   0.00000  Uiso   1.00
H303   H     0.21014   0.33800   0.21670   0.00000  Uiso   1.00
H304   H     0.05973   0.60622   0.44826   0.00000  Uiso   1.00
H305   H     0.05777   0.33647   0.41274   0.00000  Uiso   1.00
H306   H     0.12289   0.36910   0.36215   0.00000  Uiso   1.00
H307   H     0.19004   0.33709   0.34551   0.00000  Uiso   1.00
H308   H     0.19293   0.60716   0.38112   0.00000  Uiso   1.00
H309   H     0.12171   0.66344   0.28302   0.00000  Uiso   1.00
H310   H     0.18109   0.40104   0.43722   0.00000  Uiso   1.00
H311   H     0.16352   0.52608   0.07784   0.00000  Uiso   1.00
H312   H     0.12899   0.55692   0.04807   0.00000  Uiso   1.00
H313   H     0.11158   0.60352   0.00433   0.00000  Uiso   1.00
H314   H     0.15015   0.44245   0.39917   0.00000  Uiso   1.00
H315   H     0.01459   0.52947   0.21393   0.00000  Uiso   1.00
O316   O     0.16667   0.50000   0.25000   0.00000  Uiso   1.00
O317   O     0.15451   0.45970   0.15458   0.00000  Uiso   1.00
O318   O     0.12940   0.53724   0.34968   0.00000  Uiso   1.00
O319   O     0.20824   0.51092   0.14606   0.00000  Uiso   1.00
O320   O     0.17451   0.49213   0.34968   0.00000  Uiso   1.00
O321   O     0.17930   0.41352   0.28213   0.00000  Uiso   1.00
O322   O     0.14632   0.59418   0.27013   0.00000  Uiso   1.00
O323   O     0.07412   0.46625   0.23413   0.00000  Uiso   1.00
O324   O     0.26693   0.52605   0.21360   0.00000  Uiso   1.00
O325   O     0.07071   0.52211   0.28213   0.00000  Uiso   1.00
O326   O     0.25491   0.48559   0.27013   0.00000  Uiso   1.00
O327   O     0.13760   0.40277   0.23413   0.00000  Uiso   1.00
O328   O     0.20345   0.58953   0.21360   0.00000  Uiso   1.00
Zn329  Zn    0.19338   0.47327   0.28734   0.00000  Uiso   1.00
Zn330  Zn    0.13379   0.45791   0.21875   0.00000  Uiso   1.00
Zn331  Zn    0.21056   0.53109   0.20657   0.00000  Uiso   1.00
Zn332  Zn    0.12893   0.53773   0.28733   0.00000  Uiso   1.00
C333   C     0.38636   0.49318   0.25939   0.00000  Uiso   1.00
C334   C     0.50686   0.49749   0.05939   0.00000  Uiso   1.00
C335   C     0.53916   0.43533   0.05996   0.00000  Uiso   1.00
C336   C     0.61392   0.50693   0.24030   0.00000  Uiso   1.00
C337   C     0.47476   0.52694   0.42053   0.00000  Uiso   1.00
C338   C     0.65934   0.50961   0.23786   0.00000  Uiso   1.00
C339   C     0.34126   0.48892   0.26442   0.00000  Uiso   1.00
C340   C     0.51500   0.65614   0.23841   0.00000  Uiso   1.00
C341   C     0.48466   0.34486   0.26287   0.00000  Uiso   1.00
C342   C     0.48930   0.38915   0.26007   0.00000  Uiso   1.00
C343   C     0.51008   0.61124   0.24053   0.00000  Uiso   1.00
C344   C     0.45568   0.57427   0.48780   0.00000  Uiso   1.00
C345   C     0.51860   0.48089   0.12944   0.00000  Uiso   1.00
C346   C     0.48173   0.51796   0.37115   0.00000  Uiso   1.00
C347   C     0.53605   0.42253   0.01617   0.00000  Uiso   1.00
C348   C     0.52403   0.47230   0.08148   0.00000  Uiso   1.00
C349   C     0.46221   0.56619   0.44152   0.00000  Uiso   1.00
C350   C     0.64875   0.45928   0.29672   0.00000  Uiso   1.00
C351   C     0.63723   0.41751   0.28190   0.00000  Uiso   1.00
C352   C     0.61218   0.38982   0.31232   0.00000  Uiso   1.00
C353   C     0.59869   0.40363   0.35758   0.00000  Uiso   1.00
C354   C     0.61028   0.44514   0.37254   0.00000  Uiso   1.00
C355   C     0.46692   0.54731   0.01287   0.00000  Uiso   1.00
C356   C     0.63540   0.47291   0.34226   0.00000  Uiso   1.00
C357   C     0.55726   0.38609   0.49286   0.00000  Uiso   1.00
C358   C     0.53456   0.34579   0.49202   0.00000  Uiso   1.00
C359   C     0.55542   0.64509   0.46974   0.00000  Uiso   1.00
C360   C     0.59869   0.65115   0.44805   0.00000  Uiso   1.00
C361   C     0.62137   0.35788   0.44893   0.00000  Uiso   1.00
C362   C     0.60081   0.39191   0.47146   0.00000  Uiso   1.00
C363   C     0.45962   0.60159   0.41666   0.00000  Uiso   1.00
C364   C     0.42157   0.61972   0.42550   0.00000  Uiso   1.00
C365   C     0.42039   0.65583   0.40563   0.00000  Uiso   1.00
C366   C     0.48376   0.51011   0.49261   0.00000  Uiso   1.00
C367   C     0.45713   0.34089   0.37707   0.00000  Uiso   1.00
C368   C     0.49502   0.65623   0.36781   0.00000  Uiso   1.00
C369   C     0.49641   0.62017   0.38766   0.00000  Uiso   1.00
C370   C     0.48305   0.49777   0.44725   0.00000  Uiso   1.00
C371   C     0.50150   0.48490   0.01591   0.00000  Uiso   1.00
C372   C     0.51544   0.44626   0.49461   0.00000  Uiso   1.00
C373   C     0.50760   0.43177   0.45279   0.00000  Uiso   1.00
C374   C     0.49073   0.45657   0.43009   0.00000  Uiso   1.00
H375   H     0.55296   0.41621   0.07751   0.00000  Uiso   1.00
H376   H     0.64737   0.40660   0.24685   0.00000  Uiso   1.00
H377   H     0.60317   0.35769   0.30079   0.00000  Uiso   1.00
H378   H     0.57934   0.38213   0.38102   0.00000  Uiso   1.00
H379   H     0.59975   0.45585   0.40756   0.00000  Uiso   1.00
H380   H     0.64409   0.50505   0.35412   0.00000  Uiso   1.00
H381   H     0.50096   0.34083   0.00848   0.00000  Uiso   1.00
H382   H     0.53820   0.61397   0.46917   0.00000  Uiso   1.00
H383   H     0.61465   0.62479   0.43064   0.00000  Uiso   1.00
H384   H     0.65483   0.36264   0.43208   0.00000  Uiso   1.00
H385   H     0.61872   0.42284   0.47198   0.00000  Uiso   1.00
H386   H     0.54347   0.33800   0.21670   0.00000  Uiso   1.00
H387   H     0.39306   0.60622   0.44826   0.00000  Uiso   1.00
H388   H     0.39110   0.33647   0.41274   0.00000  Uiso   1.00
H389   H     0.45622   0.36910   0.36215   0.00000  Uiso   1.00
H390   H     0.52337   0.33709   0.34551   0.00000  Uiso   1.00
H391   H     0.52626   0.60716   0.38112   0.00000  Uiso   1.00
H392   H     0.45504   0.66344   0.28302   0.00000  Uiso   1.00
H393   H     0.51442   0.40104   0.43722   0.00000  Uiso   1.00
H394   H     0.49685   0.52608   0.07784   0.00000  Uiso   1.00
H395   H     0.46232   0.55692   0.04807   0.00000  Uiso   1.00
H396   H     0.44491   0.60352   0.00433   0.00000  Uiso   1.00
H397   H     0.48348   0.44245   0.39917   0.00000  Uiso   1.00
H398   H     0.34792   0.52947   0.21393   0.00000  Uiso   1.00
O399   O     0.50000   0.50000   0.25000   0.00000  Uiso   1.00
O400   O     0.48784   0.45970   0.15458   0.00000  Uiso   1.00
O401   O     0.46274   0.53724   0.34968   0.00000  Uiso   1.00
O402   O     0.54157   0.51092   0.14606   0.00000  Uiso   1.00
O403   O     0.50785   0.49213   0.34968   0.00000  Uiso   1.00
O404   O     0.51264   0.41352   0.28213   0.00000  Uiso   1.00
O405   O     0.47965   0.59418   0.27013   0.00000  Uiso   1.00
O406   O     0.40745   0.46625   0.23413   0.00000  Uiso   1.00
O407   O     0.60026   0.52605   0.21360   0.00000  Uiso   1.00
O408   O     0.40405   0.52211   0.28213   0.00000  Uiso   1.00
O409   O     0.58824   0.48559   0.27013   0.00000  Uiso   1.00
O410   O     0.47093   0.40277   0.23413   0.00000  Uiso   1.00
O411   O     0.53678   0.58953   0.21360   0.00000  Uiso   1.00
Zn412  Zn    0.52672   0.47327   0.28734   0.00000  Uiso   1.00
Zn413  Zn    0.46713   0.45791   0.21875   0.00000  Uiso   1.00
Zn414  Zn    0.54389   0.53109   0.20657   0.00000  Uiso   1.00
Zn415  Zn    0.46226   0.53773   0.28733   0.00000  Uiso   1.00
C416   C     0.71969   0.49318   0.25939   0.00000  Uiso   1.00
C417   C     0.84019   0.49749   0.05939   0.00000  Uiso   1.00
C418   C     0.87249   0.43533   0.05996   0.00000  Uiso   1.00
C419   C     0.94725   0.50693   0.24030   0.00000  Uiso   1.00
C420   C     0.80809   0.52694   0.42053   0.00000  Uiso   1.00
C421   C     0.99267   0.50961   0.23786   0.00000  Uiso   1.00
C422   C     0.67459   0.48892   0.26442   0.00000  Uiso   1.00
C423   C     0.84834   0.65614   0.23841   0.00000  Uiso   1.00
C424   C     0.81799   0.34486   0.26287   0.00000  Uiso   1.00
C425   C     0.82263   0.38915   0.26007   0.00000  Uiso   1.00
C426   C     0.84341   0.61124   0.24053   0.00000  Uiso   1.00
C427   C     0.78901   0.57427   0.48780   0.00000  Uiso   1.00
C428   C     0.85193   0.48089   0.12944   0.00000  Uiso   1.00
C429   C     0.81506   0.51796   0.37115   0.00000  Uiso   1.00
C430   C     0.86938   0.42253   0.01617   0.00000  Uiso   1.00
C431   C     0.85736   0.47230   0.08148   0.00000  Uiso   1.00
C432   C     0.79554   0.56619   0.44152   0.00000  Uiso   1.00
C433   C     0.98209   0.45928   0.29672   0.00000  Uiso   1.00
C434   C     0.97056   0.41751   0.28190   0.00000  Uiso   1.00
C435   C     0.94551   0.38982   0.31232   0.00000  Uiso   1.00
C436   C     0.93202   0.40363   0.35758   0.00000  Uiso   1.00
C437   C     0.94361   0.44514   0.37254   0.00000  Uiso   1.00
C438   C     0.80025   0.54731   0.01287   0.00000  Uiso   1.00
C439   C     0.96874   0.47291   0.34226   0.00000  Uiso   1.00
C440   C     0.89059   0.38609   0.49286   0.00000  Uiso   1.00
C441   C     0.86790   0.34579   0.49202   0.00000  Uiso   1.00
C442   C     0.88875   0.64509   0.46974   0.00000  Uiso   1.00
C443   C     0.93203   0.65115   0.44805   0.00000  Uiso   1.00
C444   C     0.95471   0.35788   0.44893   0.00000  Uiso   1.00
C445   C     0.93415   0.39191   0.47146   0.00000  Uiso   1.00
C446   C     0.79295   0.60159   0.41666   0.00000  Uiso   1.00
C447   C     0.75490   0.61972   0.42550   0.00000  Uiso   1.00
C448   C     0.75372   0.65583   0.40563   0.00000  Uiso   1.00
C449   C     0.81710   0.51011   0.49261   0.00000  Uiso   1.00
C450   C     0.79047   0.34089   0.37707   0.00000  Uiso   1.00
C451   C     0.82835   0.65623   0.36781   0.00000  Uiso   1.00
C452   C     0.82974   0.62017   0.38766   0.00000  Uiso   1.00
C453   C     0.81639   0.49777   0.44725   0.00000  Uiso   1.00
C454   C     0.83484   0.48490   0.01591   0.00000  Uiso   1.00
C455   C     0.84877   0.44626   0.49461   0.00000  Uiso   1.00
C456   C     0.84093   0.43177   0.45279   0.00000  Uiso   1.00
C457   C     0.82406   0.45657   0.43009   0.00000  Uiso   1.00
H458   H     0.88629   0.41621   0.07751   0.00000  Uiso   1.00
H459   H     0.98070   0.40660   0.24685   0.00000  Uiso   1.00
H460   H     0.93650   0.35769   0.30079   0.00000  Uiso   1.00
H461   H     0.91267   0.38213   0.38102   0.00000  Uiso   1.00
H462   H     0.93308   0.45585   0.40756   0.00000  Uiso   1.00
H463   H     0.97742   0.50505   0.35412   0.00000  Uiso   1.00
H464   H     0.83429   0.34083   0.00848   0.00000  Uiso   1.00
H465   H     0.87153   0.61397   0.46917   0.00000  Uiso   1.00
H466   H     0.94798   0.62479   0.43064   0.00000  Uiso   1.00
H467   H     0.98817   0.36264   0.43208   0.00000  Uiso   1.00
H468   H     0.95205   0.42284   0.47198   0.00000  Uiso   1.00
H469   H     0.87680   0.33800   0.21670   0.00000  Uiso   1.00
H470   H     0.72639   0.60622   0.44826   0.00000  Uiso   1.00
H471   H     0.72444   0.33647   0.41274   0.00000  Uiso   1.00
H472   H     0.78956   0.36910   0.36215   0.00000  Uiso   1.00
H473   H     0.85670   0.33709   0.34551   0.00000  Uiso   1.00
H474   H     0.85959   0.60716   0.38112   0.00000  Uiso   1.00
H475   H     0.78838   0.66344   0.28302   0.00000  Uiso   1.00
H476   H     0.84776   0.40104   0.43722   0.00000  Uiso   1.00
H477   H     0.83019   0.52608   0.07784   0.00000  Uiso   1.00
H478   H     0.79566   0.55692   0.04807   0.00000  Uiso   1.00
H479   H     0.77825   0.60352   0.00433   0.00000  Uiso   1.00
H480   H     0.81681   0.44245   0.39917   0.00000  Uiso   1.00
H481   H     0.68125   0.52947   0.21393   0.00000  Uiso   1.00
O482   O     0.83333   0.50000   0.25000   0.00000  Uiso   1.00
O483   O     0.82118   0.45970   0.15458   0.00000  Uiso   1.00
O484   O     0.79607   0.53724   0.34968   0.00000  Uiso   1.00
O485   O     0.87491   0.51092   0.14606   0.00000  Uiso   1.00
O486   O     0.84118   0.49213   0.34968   0.00000  Uiso   1.00
O487   O     0.84597   0.41352   0.28213   0.00000  Uiso   1.00
O488   O     0.81298   0.59418   0.27013   0.00000  Uiso   1.00
O489   O     0.74078   0.46625   0.23413   0.00000  Uiso   1.00
O490   O     0.93360   0.52605   0.21360   0.00000  Uiso   1.00
O491   O     0.73738   0.52211   0.28213   0.00000  Uiso   1.00
O492   O     0.92158   0.48559   0.27013   0.00000  Uiso   1.00
O493   O     0.80426   0.40277   0.23413   0.00000  Uiso   1.00
O494   O     0.87012   0.58953   0.21360   0.00000  Uiso   1.00
Zn495  Zn    0.86005   0.47327   0.28734   0.00000  Uiso   1.00
Zn496  Zn    0.80046   0.45791   0.21875   0.00000  Uiso   1.00
Zn497  Zn    0.87723   0.53109   0.20657   0.00000  Uiso   1.00
Zn498  Zn    0.79560   0.53773   0.28733   0.00000  Uiso   1.00
C499   C     0.05303   0.82651   0.25939   0.00000  Uiso   1.00
C500   C     0.17353   0.83082   0.05939   0.00000  Uiso   1.00
C501   C     0.20582   0.76866   0.05996   0.00000  Uiso   1.00
C502   C     0.28059   0.84026   0.24030   0.00000  Uiso   1.00
C503   C     0.14143   0.86028   0.42053   0.00000  Uiso   1.00
C504   C     0.32601   0.84294   0.23786   0.00000  Uiso   1.00
C505   C     0.00792   0.82225   0.26442   0.00000  Uiso   1.00
C506   C     0.18167   0.98948   0.23841   0.00000  Uiso   1.00
C507   C     0.15133   0.67820   0.26287   0.00000  Uiso   1.00
C508   C     0.15597   0.72248   0.26007   0.00000  Uiso   1.00
C509   C     0.17675   0.94457   0.24053   0.00000  Uiso   1.00
C510   C     0.12235   0.90760   0.48780   0.00000  Uiso   1.00
C511   C     0.18526   0.81423   0.12944   0.00000  Uiso   1.00
C512   C     0.14839   0.85129   0.37115   0.00000  Uiso   1.00
C513   C     0.20272   0.75587   0.01617   0.00000  Uiso   1.00
C514   C     0.19069   0.80563   0.08148   0.00000  Uiso   1.00
C515   C     0.12888   0.89952   0.44152   0.00000  Uiso   1.00
C516   C     0.31542   0.79262   0.29672   0.00000  Uiso   1.00
C517   C     0.30390   0.75085   0.28190   0.00000  Uiso   1.00
C518   C     0.27885   0.72315   0.31232   0.00000  Uiso   1.00
C519   C     0.26536   0.73697   0.35758   0.00000  Uiso   1.00
C520   C     0.27694   0.77847   0.37254   0.00000  Uiso   1.00
C521   C     0.13359   0.88064   0.01287   0.00000  Uiso   1.00
C522   C     0.30207   0.80625   0.34226   0.00000  Uiso   1.00
C523   C     0.22392   0.71942   0.49286   0.00000  Uiso   1.00
C524   C     0.20123   0.67912   0.49202   0.00000  Uiso   1.00
C525   C     0.22209   0.97842   0.46974   0.00000  Uiso   1.00
C526   C     0.26536   0.98448   0.44805   0.00000  Uiso   1.00
C527   C     0.28804   0.69122   0.44893   0.00000  Uiso   1.00
C528   C     0.26748   0.72524   0.47146   0.00000  Uiso   1.00
C529   C     0.12628   0.93493   0.41666   0.00000  Uiso   1.00
C530   C     0.08824   0.95305   0.42550   0.00000  Uiso   1.00
C531   C     0.08706   0.98916   0.40563   0.00000  Uiso   1.00
C532   C     0.15043   0.84345   0.49261   0.00000  Uiso   1.00
C533   C     0.12380   0.67422   0.37707   0.00000  Uiso   1.00
C534   C     0.16169   0.98956   0.36781   0.00000  Uiso   1.00
C535   C     0.16307   0.95350   0.38766   0.00000  Uiso   1.00
C536   C     0.14972   0.83110   0.44725   0.00000  Uiso   1.00
C537   C     0.16817   0.81824   0.01591   0.00000  Uiso   1.00
C538   C     0.18210   0.77959   0.49461   0.00000  Uiso   1.00
C539   C     0.17426   0.76511   0.45279   0.00000  Uiso   1.00
C540   C     0.15740   0.78990   0.43009   0.00000  Uiso   1.00
H541   H     0.21962   0.74955   0.07751   0.00000  Uiso   1.00
H542   H     0.31403   0.73994   0.24685   0.00000  Uiso   1.00
H543   H     0.26984   0.69102   0.30079   0.00000  Uiso   1.00
H544   H     0.24600   0.71547   0.38102   0.00000  Uiso   1.00
H545   H     0.26642   0.78918   0.40756   0.00000  Uiso   1.00
H546   H     0.31075   0.83838   0.35412   0.00000  Uiso   1.00
H547   H     0.16763   0.67416   0.00848   0.00000  Uiso   1.00
H548   H     0.20486   0.94730   0.46917   0.00000  Uiso   1.00
H549   H     0.28132   0.95812   0.43064   0.00000  Uiso   1.00
H550   H     0.32150   0.69598   0.43208   0.00000  Uiso   1.00
H551   H     0.28538   0.75617   0.47198   0.00000  Uiso   1.00
H552   H     0.21014   0.67134   0.21670   0.00000  Uiso   1.00
H553   H     0.05973   0.93955   0.44826   0.00000  Uiso   1.00
H554   H     0.05777   0.66980   0.41274   0.00000  Uiso   1.00
H555   H     0.12289   0.70243   0.36215   0.00000  Uiso   1.00
H556   H     0.19004   0.67042   0.34551   0.00000  Uiso   1.00
H557   H     0.19293   0.94050   0.38112   0.00000  Uiso   1.00
H558   H     0.12171   0.99677   0.28302   0.00000  Uiso   1.00
H559   H     0.18109   0.73437   0.43722   0.00000  Uiso   1.00
H560   H     0.16352   0.85941   0.07784   0.00000  Uiso   1.00
H561   H     0.12899   0.89025   0.04807   0.00000  Uiso   1.00
H562   H     0.11158   0.93685   0.00433   0.00000  Uiso   1.00
H563   H     0.15015   0.77578   0.39917   0.00000  Uiso   1.00
H564   H     0.01459   0.86280   0.21393   0.00000  Uiso   1.00
O565   O     0.16667   0.83333   0.25000   0.00000  Uiso   1.00
O566   O     0.15451   0.79304   0.15458   0.00000  Uiso   1.00
O567   O     0.12940   0.87058   0.34968   0.00000  Uiso   1.00
O568   O     0.20824   0.84425   0.14606   0.00000  Uiso   1.00
O569   O     0.17451   0.82546   0.34968   0.00000  Uiso   1.00
O570   O     0.17930   0.74686   0.28213   0.00000  Uiso   1.00
O571   O     0.14632   0.92751   0.27013   0.00000  Uiso   1.00
O572   O     0.07412   0.79958   0.23413   0.00000  Uiso   1.00
O573   O     0.26693   0.85939   0.21360   0.00000  Uiso   1.00
O574   O     0.07071   0.85544   0.28213   0.00000  Uiso   1.00
O575   O     0.25491   0.81892   0.27013   0.00000  Uiso   1.00
O576   O     0.13760   0.73610   0.23413   0.00000  Uiso   1.00
O577   O     0.20345   0.92286   0.21360   0.00000  Uiso   1.00
Zn578  Zn    0.19338   0.80661   0.28734   0.00000  Uiso   1.00
Zn579  Zn    0.13379   0.79124   0.21875   0.00000  Uiso   1.00
Zn580  Zn    0.21056   0.86442   0.20657   0.00000  Uiso   1.00
Zn581  Zn    0.12893   0.87106   0.28733   0.00000  Uiso   1.00
C582   C     0.38636   0.82651   0.25939   0.00000  Uiso   1.00
C583   C     0.50686   0.83082   0.05939   0.00000  Uiso   1.00
C584   C     0.53916   0.76866   0.05996   0.00000  Uiso   1.00
C585   C     0.61392   0.84026   0.24030   0.00000  Uiso   1.00
C586   C     0.47476   0.86028   0.42053   0.00000  Uiso   1.00
C587   C     0.65934   0.84294   0.23786   0.00000  Uiso   1.00
C588   C     0.34126   0.82225   0.26442   0.00000  Uiso   1.00
C589   C     0.51500   0.98948   0.23841   0.00000  Uiso   1.00
C590   C     0.48466   0.67820   0.26287   0.00000  Uiso   1.00
C591   C     0.48930   0.72248   0.26007   0.00000  Uiso   1.00
C592   C     0.51008   0.94457   0.24053   0.00000  Uiso   1.00
C593   C     0.45568   0.90760   0.48780   0.00000  Uiso   1.00
C594   C     0.51860   0.81423   0.12944   0.00000  Uiso   1.00
C595   C     0.48173   0.85129   0.37115   0.00000  Uiso   1.00
C596   C     0.53605   0.75587   0.01617   0.00000  Uiso   1.00
C597   C     0.52403   0.80563   0.08148   0.00000  Uiso   1.00
C598   C     0.46221   0.89952   0.44152   0.00000  Uiso   1.00
C599   C     0.64875   0.79262   0.29672   0.00000  Uiso   1.00
C600   C     0.63723   0.75085   0.28190   0.00000  Uiso   1.00
C601   C     0.61218   0.72315   0.31232   0.00000  Uiso   1.00
C602   C     0.59869   0.73697   0.35758   0.00000  Uiso   1.00
C603   C     0.61028   0.77847   0.37254   0.00000  Uiso   1.00
C604   C     0.46692   0.88064   0.01287   0.00000  Uiso   1.00
C605   C     0.63540   0.80625   0.34226   0.00000  Uiso   1.00
C606   C     0.55726   0.71942   0.49286   0.00000  Uiso   1.00
C607   C     0.53456   0.67912   0.49202   0.00000  Uiso   1.00
C608   C     0.55542   0.97842   0.46974   0.00000  Uiso   1.00
C609   C     0.59869   0.98448   0.44805   0.00000  Uiso   1.00
C610   C     0.62137   0.69122   0.44893   0.00000  Uiso   1.00
C611   C     0.60081   0.72524   0.47146   0.00000  Uiso   1.00
C612   C     0.45962   0.93493   0.41666   0.00000  Uiso   1.00
C613   C     0.42157   0.95305   0.42550   0.00000  Uiso   1.00
C614   C     0.42039   0.98916   0.40563   0.00000  Uiso   1.00
C615   C     0.48376   0.84345   0.49261   0.00000  Uiso   1.00
C616   C     0.45713   0.67422   0.37707   0.00000  Uiso   1.00
C617   C     0.49502   0.98956   0.36781   0.00000  Uiso   1.00
C618   C     0.49641   0.95350   0.38766   0.00000  Uiso   1.00
C619   C     0.48305   0.83110   0.44725   0.00000  Uiso   1.00
C620   C     0.50150   0.81824   0.01591   0.00000  Uiso   1.00
C621   C     0.51544   0.77959   0.49461   0.00000  Uiso   1.00
C622   C     0.50760   0.76511   0.45279   0.00000  Uiso   1.00
C623   C     0.49073   0.78990   0.43009   0.00000  Uiso   1.00
H624   H     0.55296   0.74955   0.07751   0.00000  Uiso   1.00
H625   H     0.64737   0.73994   0.24685   0.00000  Uiso   1.00
H626   H     0.60317   0.69102   0.30079   0.00000  Uiso   1.00
H627   H     0.57934   0.71547   0.38102   0.00000  Uiso   1.00
H628   H     0.59975   0.78918   0.40756   0.00000  Uiso   1.00
H629   H     0.64409   0.83838   0.35412   0.00000  Uiso   1.00
H630   H     0.50096   0.67416   0.00848   0.00000  Uiso   1.00
H631   H     0.53820   0.94730   0.46917   0.00000  Uiso   1.00
H632   H     0.61465   0.95812   0.43064   0.00000  Uiso   1.00
H633   H     0.65483   0.69598   0.43208   0.00000  Uiso   1.00
H634   H     0.61872   0.75617   0.47198   0.00000  Uiso   1.00
H635   H     0.54347   0.67134   0.21670   0.00000  Uiso   1.00
H636   H     0.39306   0.93955   0.44826   0.00000  Uiso   1.00
H637   H     0.39110   0.66980   0.41274   0.00000  Uiso   1.00
H638   H     0.45622   0.70243   0.36215   0.00000  Uiso   1.00
H639   H     0.52337   0.67042   0.34551   0.00000  Uiso   1.00
H640   H     0.52626   0.94050   0.38112   0.00000  Uiso   1.00
H641   H     0.45504   0.99677   0.28302   0.00000  Uiso   1.00
H642   H     0.51442   0.73437   0.43722   0.00000  Uiso   1.00
H643   H     0.49685   0.85941   0.07784   0.00000  Uiso   1.00
H644   H     0.46232   0.89025   0.04807   0.00000  Uiso   1.00
H645   H     0.44491   0.93685   0.00433   0.00000  Uiso   1.00
H646   H     0.48348   0.77578   0.39917   0.00000  Uiso   1.00
H647   H     0.34792   0.86280   0.21393   0.00000  Uiso   1.00
O648   O     0.50000   0.83333   0.25000   0.00000  Uiso   1.00
O649   O     0.48784   0.79304   0.15458   0.00000  Uiso   1.00
O650   O     0.46274   0.87058   0.34968   0.00000  Uiso   1.00
O651   O     0.54157   0.84425   0.14606   0.00000  Uiso   1.00
O652   O     0.50785   0.82546   0.34968   0.00000  Uiso   1.00
O653   O     0.51264   0.74686   0.28213   0.00000  Uiso   1.00
O654   O     0.47965   0.92751   0.27013   0.00000  Uiso   1.00
O655   O     0.40745   0.79958   0.23413   0.00000  Uiso   1.00
O656   O     0.60026   0.85939   0.21360   0.00000  Uiso   1.00
O657   O     0.40405   0.85544   0.28213   0.00000  Uiso   1.00
O658   O     0.58824   0.81892   0.27013   0.00000  Uiso   1.00
O659   O     0.47093   0.73610   0.23413   0.00000  Uiso   1.00
O660   O     0.53678   0.92286   0.21360   0.00000  Uiso   1.00
Zn661  Zn    0.52672   0.80661   0.28734   0.00000  Uiso   1.00
Zn662  Zn    0.46713   0.79124   0.21875   0.00000  Uiso   1.00
Zn663  Zn    0.54389   0.86442   0.20657   0.00000  Uiso   1.00
Zn664  Zn    0.46226   0.87106   0.28733   0.00000  Uiso   1.00
C665   C     0.71969   0.82651   0.25939   0.00000  Uiso   1.00
C666   C     0.84019   0.83082   0.05939   0.00000  Uiso   1.00
C667   C     0.87249   0.76866   0.05996   0.00000  Uiso   1.00
C668   C     0.94725   0.84026   0.24030   0.00000  Uiso   1.00
C669   C     0.80809   0.86028   0.42053   0.00000  Uiso   1.00
C670   C     0.99267   0.84294   0.23786   0.00000  Uiso   1.00
C671   C     0.67459   0.82225   0.26442   0.00000  Uiso   1.00
C672   C     0.84834   0.98948   0.23841   0.00000  Uiso   1.00
C673   C     0.81799   0.67820   0.26287   0.00000  Uiso   1.00
C674   C     0.82263   0.72248   0.26007   0.00000  Uiso   1.00
C675   C     0.84341   0.94457   0.24053   0.00000  Uiso   1.00
C676   C     0.78901   0.90760   0.48780   0.00000  Uiso   1.00
C677   C     0.85193   0.81423   0.12944   0.00000  Uiso   1.00
C678   C     0.81506   0.85129   0.37115   0.00000  Uiso   1.00
C679   C     0.86938   0.75587   0.01617   0.00000  Uiso   1.00
C680   C     0.85736   0.80563   0.08148   0.00000  Uiso   1.00
C681   C     0.79554   0.89952   0.44152   0.00000  Uiso   1.00
C682   C     0.98209   0.79262   0.29672   0.00000  Uiso   1.00
C683   C     0.97056   0.75085   0.28190   0.00000  Uiso   1.00
C684   C     0.94551   0.72315   0.31232   0.00000  Uiso   1.00
C685   C     0.93202   0.73697   0.35758   0.00000  Uiso   1.00
C686   C     0.94361   0.77847   0.37254   0.00000  Uiso   1.00
C687   C     0.80025   0.88064   0.01287   0.00000  Uiso   1.00
C688   C     0.96874   0.80625   0.34226   0.00000  Uiso   1.00
C689   C     0.89059   0.71942   0.49286   0.00000  Uiso   1.00
C690   C     0.86790   0.67912   0.49202   0.00000  Uiso   1.00
C691   C     0.88875   0.97842   0.46974   0.00000  Uiso   1.00
C692   C     0.93203   0.98448   0.44805   0.00000  Uiso   1.00
C693   C     0.95471   0.69122   0.44893   0.00000  Uiso   1.00
C694   C     0.93415   0.72524   0.47146   0.00000  Uiso   1.00
C695   C     0.79295   0.93493   0.41666   0.00000  Uiso   1.00
C696   C     0.75490   0.95305   0.42550   0.00000  Uiso   1.00
C697   C     0.75372   0.98916   0.40563   0.00000  Uiso   1.00
C698   C     0.81710   0.84345   0.49261   0.00000  Uiso   1.00
C699   C     0.79047   0.67422   0.37707   0.00000  Uiso   1.00
C700   C     0.82835   0.98956   0.36781   0.00000  Uiso   1.00
C701   C     0.82974   0.95350   0.38766   0.00000  Uiso   1.00
C702   C     0.81639   0.83110   0.44725   0.00000  Uiso   1.00
C703   C     0.83484   0.81824   0.01591   0.00000  Uiso   1.00
C704   C     0.84877   0.77959   0.49461   0.00000  Uiso   1.00
C705   C     0.84093   0.76511   0.45279   0.00000  Uiso   1.00
C706   C     0.82406   0.78990   0.43009   0.00000  Uiso   1.00
H707   H     0.88629   0.74955   0.07751   0.00000  Uiso   1.00
H708   H     0.98070   0.73994   0.24685   0.00000  Uiso   1.00
H709   H     0.93650   0.69102   0.30079   0.00000  Uiso   1.00
H710   H     0.91267   0.71547   0.38102   0.00000  Uiso   1.00
H711   H     0.93308   0.78918   0.40756   0.00000  Uiso   1.00
H712   H     0.97742   0.83838   0.35412   0.00000  Uiso   1.00
H713   H     0.83429   0.67416   0.00848   0.00000  Uiso   1.00
H714   H     0.87153   0.94730   0.46917   0.00000  Uiso   1.00
H715   H     0.94798   0.95812   0.43064   0.00000  Uiso   1.00
H716   H     0.98817   0.69598   0.43208   0.00000  Uiso   1.00
H717   H     0.95205   0.75617   0.47198   0.00000  Uiso   1.00
H718   H     0.87680   0.67134   0.21670   0.00000  Uiso   1.00
H719   H     0.72639   0.93955   0.44826   0.00000  Uiso   1.00
H720   H     0.72444   0.66980   0.41274   0.00000  Uiso   1.00
H721   H     0.78956   0.70243   0.36215   0.00000  Uiso   1.00
H722   H     0.85670   0.67042   0.34551   0.00000  Uiso   1.00
H723   H     0.85959   0.94050   0.38112   0.00000  Uiso   1.00
H724   H     0.78838   0.99677   0.28302   0.00000  Uiso   1.00
H725   H     0.84776   0.73437   0.43722   0.00000  Uiso   1.00
H726   H     0.83019   0.85941   0.07784   0.00000  Uiso   1.00
H727   H     0.79566   0.89025   0.04807   0.00000  Uiso   1.00
H728   H     0.77825   0.93685   0.00433   0.00000  Uiso   1.00
H729   H     0.81681   0.77578   0.39917   0.00000  Uiso   1.00
H730   H     0.68125   0.86280   0.21393   0.00000  Uiso   1.00
O731   O     0.83333   0.83333   0.25000   0.00000  Uiso   1.00
O732   O     0.82118   0.79304   0.15458   0.00000  Uiso   1.00
O733   O     0.79607   0.87058   0.34968   0.00000  Uiso   1.00
O734   O     0.87491   0.84425   0.14606   0.00000  Uiso   1.00
O735   O     0.84118   0.82546   0.34968   0.00000  Uiso   1.00
O736   O     0.84597   0.74686   0.28213   0.00000  Uiso   1.00
O737   O     0.81298   0.92751   0.27013   0.00000  Uiso   1.00
O738   O     0.74078   0.79958   0.23413   0.00000  Uiso   1.00
O739   O     0.93360   0.85939   0.21360   0.00000  Uiso   1.00
O740   O     0.73738   0.85544   0.28213   0.00000  Uiso   1.00
O741   O     0.92158   0.81892   0.27013   0.00000  Uiso   1.00
O742   O     0.80426   0.73610   0.23413   0.00000  Uiso   1.00
O743   O     0.87012   0.92286   0.21360   0.00000  Uiso   1.00
Zn744  Zn    0.86005   0.80661   0.28734   0.00000  Uiso   1.00
Zn745  Zn    0.80046   0.79124   0.21875   0.00000  Uiso   1.00
Zn746  Zn    0.87723   0.86442   0.20657   0.00000  Uiso   1.00
Zn747  Zn    0.79560   0.87106   0.28733   0.00000  Uiso   1.00
C748   C     0.05303   0.15985   0.75939   0.00000  Uiso   1.00
C749   C     0.17353   0.16415   0.55939   0.00000  Uiso   1.00
C750   C     0.20582   0.10199   0.55996   0.00000  Uiso   1.00
C751   C     0.28059   0.17360   0.74030   0.00000  Uiso   1.00
C752   C     0.14143   0.19361   0.92053   0.00000  Uiso   1.00
C753   C     0.32601   0.17628   0.73786   0.00000  Uiso   1.00
C754   C     0.00792   0.15559   0.76442   0.00000  Uiso   1.00
C755   C     0.18167   0.32281   0.73841   0.00000  Uiso   1.00
C756   C     0.15133   0.01153   0.76287   0.00000  Uiso   1.00
C757   C     0.15597   0.05581   0.76007   0.00000  Uiso   1.00
C758   C     0.17675   0.27791   0.74053   0.00000  Uiso   1.00
C759   C     0.12235   0.24094   0.98780   0.00000  Uiso   1.00
C760   C     0.18526   0.14756   0.62944   0.00000  Uiso   1.00
C761   C     0.14839   0.18462   0.87115   0.00000  Uiso   1.00
C762   C     0.20272   0.08920   0.51617   0.00000  Uiso   1.00
C763   C     0.19069   0.13897   0.58148   0.00000  Uiso   1.00
C764   C     0.12888   0.23286   0.94152   0.00000  Uiso   1.00
C765   C     0.31542   0.12595   0.79672   0.00000  Uiso   1.00
C766   C     0.30390   0.08418   0.78190   0.00000  Uiso   1.00
C767   C     0.27885   0.05649   0.81232   0.00000  Uiso   1.00
C768   C     0.26536   0.07030   0.85758   0.00000  Uiso   1.00
C769   C     0.27694   0.11181   0.87254   0.00000  Uiso   1.00
C770   C     0.13359   0.21398   0.51287   0.00000  Uiso   1.00
C771   C     0.30207   0.13958   0.84226   0.00000  Uiso   1.00
C772   C     0.22392   0.05275   0.99286   0.00000  Uiso   1.00
C773   C     0.20123   0.01246   0.99202   0.00000  Uiso   1.00
C774   C     0.22209   0.31175   0.96974   0.00000  Uiso   1.00
C775   C     0.26536   0.31781   0.94805   0.00000  Uiso   1.00
C776   C     0.28804   0.02455   0.94893   0.00000  Uiso   1.00
C777   C     0.26748   0.05858   0.97146   0.00000  Uiso   1.00
C778   C     0.12628   0.26826   0.91666   0.00000  Uiso   1.00
C779   C     0.08824   0.28639   0.92550   0.00000  Uiso   1.00
C780   C     0.08706   0.32249   0.90563   0.00000  Uiso   1.00
C781   C     0.15043   0.17678   0.99261   0.00000  Uiso   1.00
C782   C     0.12380   0.00755   0.87707   0.00000  Uiso   1.00
C783   C     0.16169   0.32289   0.86781   0.00000  Uiso   1.00
C784   C     0.16307   0.28683   0.88766   0.00000  Uiso   1.00
C785   C     0.14972   0.16444   0.94725   0.00000  Uiso   1.00
C786   C     0.16817   0.15157   0.51591   0.00000  Uiso   1.00
C787   C     0.18210   0.11293   0.99461   0.00000  Uiso   1.00
C788   C     0.17426   0.09844   0.95279   0.00000  Uiso   1.00
C789   C     0.15740   0.12324   0.93009   0.00000  Uiso   1.00
H790   H     0.21962   0.08288   0.57751   0.00000  Uiso   1.00
H791   H     0.31403   0.07327   0.74685   0.00000  Uiso   1.00
H792   H     0.26984   0.02435   0.80079   0.00000  Uiso   1.00
H793   H     0.24600   0.04880   0.88102   0.00000  Uiso   1.00
H794   H     0.26642   0.12251   0.90756   0.00000  Uiso   1.00
H795   H     0.31075   0.17171   0.85412   0.00000  Uiso   1.00
H796   H     0.16763   0.00749   0.50848   0.00000  Uiso   1.00
H797   H     0.20486   0.28063   0.96917   0.00000  Uiso   1.00
H798   H     0.28132   0.29145   0.93064   0.00000  Uiso   1.00
H799   H     0.32150   0.02931   0.93208   0.00000  Uiso   1.00
H800   H     0.28538   0.08951   0.97198   0.00000  Uiso   1.00
H801   H     0.21014   0.00467   0.71670   0.00000  Uiso   1.00
H802   H     0.05973   0.27289   0.94826   0.00000  Uiso   1.00
H803   H     0.05777   0.00314   0.91274   0.00000  Uiso   1.00
H804   H     0.12289   0.03577   0.86215   0.00000  Uiso   1.00
H805   H     0.19004   0.00375   0.84551   0.00000  Uiso   1.00
H806   H     0.19293   0.27383   0.88112   0.00000  Uiso   1.00
H807   H     0.12171   0.33011   0.78302   0.00000  Uiso   1.00
H808   H     0.18109   0.06770   0.93722   0.00000  Uiso   1.00
H809   H     0.16352   0.19274   0.57784   0.00000  Uiso   1.00
H810   H     0.12899   0.22359   0.54807   0.00000  Uiso   1.00
H811   H     0.11158   0.27018   0.50433   0.00000  Uiso   1.00
H812   H     0.15015   0.10911   0.89917   0.00000  Uiso   1.00
H813   H     0.01459   0.19614   0.71393   0.00000  Uiso   1.00
O814   O     0.16667   0.16667   0.75000   0.00000  Uiso   1.00
O815   O     0.15451   0.12637   0.65458   0.00000  Uiso   1.00
O816   O     0.12940   0.20391   0.84968   0.00000  Uiso   1.00
O817   O     0.20824   0.17759   0.64606   0.00000  Uiso   1.00
O818   O     0.17451   0.15880   0.84968   0.00000  Uiso   1.00
O819   O     0.17930   0.08019   0.78213   0.00000  Uiso   1.00
O820   O     0.14632   0.26085   0.77013   0.00000  Uiso   1.00
O821   O     0.07412   0.13291   0.73413   0.00000  Uiso   1.00
O822   O     0.26693   0.19272   0.71360   0.00000  Uiso   1.00
O823   O     0.07071   0.18878   0.78213   0.00000  Uiso   1.00
O824   O     0.25491   0.15226   0.77013   0.00000  Uiso   1.00
O825   O     0.13760   0.06944   0.73413   0.00000  Uiso   1.00
O826   O     0.20345   0.25620   0.71360   0.00000  Uiso   1.00
Zn827  Zn    0.19338   0.13994   0.78734   0.00000  Uiso   1.00
Zn828  Zn    0.13379   0.12458   0.71875   0.00000  Uiso   1.00
Zn829  Zn    0.21056   0.19775   0.70657   0.00000  Uiso   1.00
Zn830  Zn    0.12893   0.20439   0.78733   0.00000  Uiso   1.00
C831   C     0.38636   0.15985   0.75939   0.00000  Uiso   1.00
C832   C     0.50686   0.16415   0.55939   0.00000  Uiso   1.00
C833   C     0.53916   0.10199   0.55996   0.00000  Uiso   1.00
C834   C     0.61392   0.17360   0.74030   0.00000  Uiso   1.00
C835   C     0.47476   0.19361   0.92053   0.00000  Uiso   1.00
C836   C     0.65934   0.17628   0.73786   0.00000  Uiso   1.00
C837   C     0.34126   0.15559   0.76442   0.00000  Uiso   1.00
C838   C     0.51500   0.32281   0.73841   0.00000  Uiso   1.00
C839   C     0.48466   0.01153   0.76287   0.00000  Uiso   1.00
C840   C     0.48930   0.05581   0.76007   0.00000  Uiso   1.00
C841   C     0.51008   0.27791   0.74053   0.00000  Uiso   1.00
C842   C     0.45568   0.24094   0.98780   0.00000  Uiso   1.00
C843   C     0.51860   0.14756   0.62944   0.00000  Uiso   1.00
C844   C     0.48173   0.18462   0.87115   0.00000  Uiso   1.00
C845   C     0.53605   0.08920   0.51617   0.00000  Uiso   1.00
C846   C     0.52403   0.13897   0.58148   0.00000  Uiso   1.00
C847   C     0.46221   0.23286   0.94152   0.00000  Uiso   1.00
C848   C     0.64875   0.12595   0.79672   0.00000  Uiso   1.00
C849   C     0.63723   0.08418   0.78190   0.00000  Uiso   1.00
C850   C     0.61218   0.05649   0.81232   0.00000  Uiso   1.00
C851   C     0.59869   0.07030   0.85758   0.00000  Uiso   1.00
C852   C     0.61028   0.11181   0.87254   0.00000  Uiso   1.00
C853   C     0.46692   0.21398   0.51287   0.00000  Uiso   1.00
C854   C     0.63540   0.13958   0.84226   0.00000  Uiso   1.00
C855   C     0.55726   0.05275   0.99286   0.00000  Uiso   1.00
C856   C     0.53456   0.01246   0.99202   0.00000  Uiso   1.00
C857   C     0.55542   0.31175   0.96974   0.00000  Uiso   1.00
C858   C     0.59869   0.31781   0.94805   0.00000  Uiso   1.00
C859   C     0.62137   0.02455   0.94893   0.00000  Uiso   1.00
C860   C     0.60081   0.05858   0.97146   0.00000  Uiso   1.00
C861   C     0.45962   0.26826   0.91666   0.00000  Uiso   1.00
C862   C     0.42157   0.28639   0.92550   0.00000  Uiso   1.00
C863   C     0.42039   0.32249   0.90563   0.00000  Uiso   1.00
C864   C     0.48376   0.17678   0.99261   0.00000  Uiso   1.00
C865   C     0.45713   0.00755   0.87707   0.00000  Uiso   1.00
C866   C     0.49502   0.32289   0.86781   0.00000  Uiso   1.00
C867   C     0.49641   0.28683   0.88766   0.00000  Uiso   1.00
C868   C     0.48305   0.16444   0.94725   0.00000  Uiso   1.00
C869   C     0.50150   0.15157   0.51591   0.00000  Uiso   1.00
C870   C     0.51544   0.11293   0.99461   0.00000  Uiso   1.00
C871   C     0.50760   0.09844   0.95279   0.00000  Uiso   1.00
C872   C     0.49073   0.12324   0.93009   0.00000  Uiso   1.00
H873   H     0.55296   0.08288   0.57751   0.00000  Uiso   1.00
H874   H     0.64737   0.07327   0.74685   0.00000  Uiso   1.00
H875   H     0.60317   0.02435   0.80079   0.00000  Uiso   1.00
H876   H     0.57934   0.04880   0.88102   0.00000  Uiso   1.00
H877   H     0.59975   0.12251   0.90756   0.00000  Uiso   1.00
H878   H     0.64409   0.17171   0.85412   0.00000  Uiso   1.00
H879   H     0.50096   0.00749   0.50848   0.00000  Uiso   1.00
H880   H     0.53820   0.28063   0.96917   0.00000  Uiso   1.00
H881   H     0.61465   0.29145   0.93064   0.00000  Uiso   1.00
H882   H     0.65483   0.02931   0.93208   0.00000  Uiso   1.00
H883   H     0.61872   0.08951   0.97198   0.00000  Uiso   1.00
H884   H     0.54347   0.00467   0.71670   0.00000  Uiso   1.00
H885   H     0.39306   0.27289   0.94826   0.00000  Uiso   1.00
H886   H     0.39110   0.00314   0.91274   0.00000  Uiso   1.00
H887   H     0.45622   0.03577   0.86215   0.00000  Uiso   1.00
H888   H     0.52337   0.00375   0.84551   0.00000  Uiso   1.00
H889   H     0.52626   0.27383   0.88112   0.00000  Uiso   1.00
H890   H     0.45504   0.33011   0.78302   0.00000  Uiso   1.00
H891   H     0.51442   0.06770   0.93722   0.00000  Uiso   1.00
H892   H     0.49685   0.19274   0.57784   0.00000  Uiso   1.00
H893   H     0.46232   0.22359   0.54807   0.00000  Uiso   1.00
H894   H     0.44491   0.27018   0.50433   0.00000  Uiso   1.00
H895   H     0.48348   0.10911   0.89917   0.00000  Uiso   1.00
H896   H     0.34792   0.19614   0.71393   0.00000  Uiso   1.00
O897   O     0.50000   0.16667   0.75000   0.00000  Uiso   1.00
O898   O     0.48784   0.12637   0.65458   0.00000  Uiso   1.00
O899   O     0.46274   0.20391   0.84968   0.00000  Uiso   1.00
O900   O     0.54157   0.17759   0.64606   0.00000  Uiso   1.00
O901   O     0.50785   0.15880   0.84968   0.00000  Uiso   1.00
O902   O     0.51264   0.08019   0.78213   0.00000  Uiso   1.00
O903   O     0.47965   0.26085   0.77013   0.00000  Uiso   1.00
O904   O     0.40745   0.13291   0.73413   0.00000  Uiso   1.00
O905   O     0.60026   0.19272   0.71360   0.00000  Uiso   1.00
O906   O     0.40405   0.18878   0.78213   0.00000  Uiso   1.00
O907   O     0.58824   0.15226   0.77013   0.00000  Uiso   1.00
O908   O     0.47093   0.06944   0.73413   0.00000  Uiso   1.00
O909   O     0.53678   0.25620   0.71360   0.00000  Uiso   1.00
Zn910  Zn    0.52672   0.13994   0.78734   0.00000  Uiso   1.00
Zn911  Zn    0.46713   0.12458   0.71875   0.00000  Uiso   1.00
Zn912  Zn    0.54389   0.19775   0.70657   0.00000  Uiso   1.00
Zn913  Zn    0.46226   0.20439   0.78733   0.00000  Uiso   1.00
C914   C     0.71969   0.15985   0.75939   0.00000  Uiso   1.00
C915   C     0.84019   0.16415   0.55939   0.00000  Uiso   1.00
C916   C     0.87249   0.10199   0.55996   0.00000  Uiso   1.00
C917   C     0.94725   0.17360   0.74030   0.00000  Uiso   1.00
C918   C     0.80809   0.19361   0.92053   0.00000  Uiso   1.00
C919   C     0.99267   0.17628   0.73786   0.00000  Uiso   1.00
C920   C     0.67459   0.15559   0.76442   0.00000  Uiso   1.00
C921   C     0.84834   0.32281   0.73841   0.00000  Uiso   1.00
C922   C     0.81799   0.01153   0.76287   0.00000  Uiso   1.00
C923   C     0.82263   0.05581   0.76007   0.00000  Uiso   1.00
C924   C     0.84341   0.27791   0.74053   0.00000  Uiso   1.00
C925   C     0.78901   0.24094   0.98780   0.00000  Uiso   1.00
C926   C     0.85193   0.14756   0.62944   0.00000  Uiso   1.00
C927   C     0.81506   0.18462   0.87115   0.00000  Uiso   1.00
C928   C     0.86938   0.08920   0.51617   0.00000  Uiso   1.00
C929   C     0.85736   0.13897   0.58148   0.00000  Uiso   1.00
C930   C     0.79554   0.23286   0.94152   0.00000  Uiso   1.00
C931   C     0.98209   0.12595   0.79672   0.00000  Uiso   1.00
C932   C     0.97056   0.08418   0.78190   0.00000  Uiso   1.00
C933   C     0.94551   0.05649   0.81232   0.00000  Uiso   1.00
C934   C     0.93202   0.07030   0.85758   0.00000  Uiso   1.00
C935   C     0.94361   0.11181   0.87254   0.00000  Uiso   1.00
C936   C     0.80025   0.21398   0.51287   0.00000  Uiso   1.00
C937   C     0.96874   0.13958   0.84226   0.00000  Uiso   1.00
C938   C     0.89059   0.05275   0.99286   0.00000  Uiso   1.00
C939   C     0.86790   0.01246   0.99202   0.00000  Uiso   1.00
C940   C     0.88875   0.31175   0.96974   0.00000  Uiso   1.00
C941   C     0.93203   0.31781   0.94805   0.00000  Uiso   1.00
C942   C     0.95471   0.02455   0.94893   0.00000  Uiso   1.00
C943   C     0.93415   0.05858   0.97146   0.00000  Uiso   1.00
C944   C     0.79295   0.26826   0.91666   0.00000  Uiso   1.00
C945   C     0.75490   0.28639   0.92550   0.00000  Uiso   1.00
C946   C     0.75372   0.32249   0.90563   0.00000  Uiso   1.00
C947   C     0.81710   0.17678   0.99261   0.00000  Uiso   1.00
C948   C     0.79047   0.00755   0.87707   0.00000  Uiso   1.00
C949   C     0.82835   0.32289   0.86781   0.00000  Uiso   1.00
C950   C     0.82974   0.28683   0.88766   0.00000  Uiso   1.00
C951   C     0.81639   0.16444   0.94725   0.00000  Uiso   1.00
C952   C     0.83484   0.15157   0.51591   0.00000  Uiso   1.00
C953   C     0.84877   0.11293   0.99461   0.00000  Uiso   1.00
C954   C     0.84093   0.09844   0.95279   0.00000  Uiso   1.00
C955   C     0.82406   0.12324   0.93009   0.00000  Uiso   1.00
H956   H     0.88629   0.08288   0.57751   0.00000  Uiso   1.00
H957   H     0.98070   0.07327   0.74685   0.00000  Uiso   1.00
H958   H     0.93650   0.02435   0.80079   0.00000  Uiso   1.00
H959   H     0.91267   0.04880   0.88102   0.00000  Uiso   1.00
H960   H     0.93308   0.12251   0.90756   0.00000  Uiso   1.00
H961   H     0.97742   0.17171   0.85412   0.00000  Uiso   1.00
H962   H     0.83429   0.00749   0.50848   0.00000  Uiso   1.00
H963   H     0.87153   0.28063   0.96917   0.00000  Uiso   1.00
H964   H     0.94798   0.29145   0.93064   0.00000  Uiso   1.00
H965   H     0.98817   0.02931   0.93208   0.00000  Uiso   1.00
H966   H     0.95205   0.08951   0.97198   0.00000  Uiso   1.00
H967   H     0.87680   0.00467   0.71670   0.00000  Uiso   1.00
H968   H     0.72639   0.27289   0.94826   0.00000  Uiso   1.00
H969   H     0.72444   0.00314   0.91274   0.00000  Uiso   1.00
H970   H     0.78956   0.03577   0.86215   0.00000  Uiso   1.00
H971   H     0.85670   0.00375   0.84551   0.00000  Uiso   1.00
H972   H     0.85959   0.27383   0.88112   0.00000  Uiso   1.00
H973   H     0.78838   0.33011   0.78302   0.00000  Uiso   1.00
H974   H     0.84776   0.06770   0.93722   0.00000  Uiso   1.00
H975   H     0.83019   0.19274   0.57784   0.00000  Uiso   1.00
H976   H     0.79566   0.22359   0.54807   0.00000  Uiso   1.00
H977   H     0.77825   0.27018   0.50433   0.00000  Uiso   1.00
H978   H     0.81681   0.10911   0.89917   0.00000  Uiso   1.00
H979   H     0.68125   0.19614   0.71393   0.00000  Uiso   1.00
O980   O     0.83333   0.16667   0.75000   0.00000  Uiso   1.00
O981   O     0.82118   0.12637   0.65458   0.00000  Uiso   1.00
O982   O     0.79607   0.20391   0.84968   0.00000  Uiso   1.00
O983   O     0.87491   0.17759   0.64606   0.00000  Uiso   1.00
O984   O     0.84118   0.15880   0.84968   0.00000  Uiso   1.00
O985   O     0.84597   0.08019   0.78213   0.00000  Uiso   1.00
O986   O     0.81298   0.26085   0.77013   0.00000  Uiso   1.00
O987   O     0.74078   0.13291   0.73413   0.00000  Uiso   1.00
O988   O     0.93360   0.19272   0.71360   0.00000  Uiso   1.00
O989   O     0.73738   0.18878   0.78213   0.00000  Uiso   1.00
O990   O     0.92158   0.15226   0.77013   0.00000  Uiso   1.00
O991   O     0.80426   0.06944   0.73413   0.00000  Uiso   1.00
O992   O     0.87012   0.25620   0.71360   0.00000  Uiso   1.00
Zn993  Zn    0.86005   0.13994   0.78734   0.00000  Uiso   1.00
Zn994  Zn    0.80046   0.12458   0.71875   0.00000  Uiso   1.00
Zn995  Zn    0.87723   0.19775   0.70657   0.00000  Uiso   1.00
Zn996  Zn    0.79560   0.20439   0.78733   0.00000  Uiso   1.00
C997   C     0.05303   0.49318   0.75939   0.00000  Uiso   1.00
C998   C     0.17353   0.49749   0.55939   0.00000  Uiso   1.00
C999   C     0.20582   0.43533   0.55996   0.00000  Uiso   1.00
C1000  C     0.28059   0.50693   0.74030   0.00000  Uiso   1.00
C1001  C     0.14143   0.52694   0.92053   0.00000  Uiso   1.00
C1002  C     0.32601   0.50961   0.73786   0.00000  Uiso   1.00
C1003  C     0.00792   0.48892   0.76442   0.00000  Uiso   1.00
C1004  C     0.18167   0.65614   0.73841   0.00000  Uiso   1.00
C1005  C     0.15133   0.34486   0.76287   0.00000  Uiso   1.00
C1006  C     0.15597   0.38915   0.76007   0.00000  Uiso   1.00
C1007  C     0.17675   0.61124   0.74053   0.00000  Uiso   1.00
C1008  C     0.12235   0.57427   0.98780   0.00000  Uiso   1.00
C1009  C     0.18526   0.48089   0.62944   0.00000  Uiso   1.00
C1010  C     0.14839   0.51796   0.87115   0.00000  Uiso   1.00
C1011  C     0.20272   0.42253   0.51617   0.00000  Uiso   1.00
C1012  C     0.19069   0.47230   0.58148   0.00000  Uiso   1.00
C1013  C     0.12888   0.56619   0.94152   0.00000  Uiso   1.00
C1014  C     0.31542   0.45928   0.79672   0.00000  Uiso   1.00
C1015  C     0.30390   0.41751   0.78190   0.00000  Uiso   1.00
C1016  C     0.27885   0.38982   0.81232   0.00000  Uiso   1.00
C1017  C     0.26536   0.40363   0.85758   0.00000  Uiso   1.00
C1018  C     0.27694   0.44514   0.87254   0.00000  Uiso   1.00
C1019  C     0.13359   0.54731   0.51287   0.00000  Uiso   1.00
C1020  C     0.30207   0.47291   0.84226   0.00000  Uiso   1.00
C1021  C     0.22392   0.38609   0.99286   0.00000  Uiso   1.00
C1022  C     0.20123   0.34579   0.99202   0.00000  Uiso   1.00
C1023  C     0.22209   0.64509   0.96974   0.00000  Uiso   1.00
C1024  C     0.26536   0.65115   0.94805   0.00000  Uiso   1.00
C1025  C     0.28804   0.35788   0.94893   0.00000  Uiso   1.00
C1026  C     0.26748   0.39191   0.97146   0.00000  Uiso   1.00
C1027  C     0.12628   0.60159   0.91666   0.00000  Uiso   1.00
C1028  C     0.08824   0.61972   0.92550   0.00000  Uiso   1.00
C1029  C     0.08706   0.65583   0.90563   0.00000  Uiso   1.00
C1030  C     0.15043   0.51011   0.99261   0.00000  Uiso   1.00
C1031  C     0.12380   0.34089   0.87707   0.00000  Uiso   1.00
C1032  C     0.16169   0.65623   0.86781   0.00000  Uiso   1.00
C1033  C     0.16307   0.62017   0.88766   0.00000  Uiso   1.00
C1034  C     0.14972   0.49777   0.94725   0.00000  Uiso   1.00
C1035  C     0.16817   0.48490   0.51591   0.00000  Uiso   1.00
C1036  C     0.18210   0.44626   0.99461   0.00000  Uiso   1.00
C1037  C     0.17426   0.43177   0.95279   0.00000  Uiso   1.00
C1038  C     0.15740   0.45657   0.93009   0.00000  Uiso   1.00
H1039  H     0.21962   0.41621   0.57751   0.00000  Uiso   1.00
H1040  H     0.31403   0.40660   0.74685   0.00000  Uiso   1.00
H1041  H     0.26984   0.35769   0.80079   0.00000  Uiso   1.00
H1042  H     0.24600   0.38213   0.88102   0.00000  Uiso   1.00
H1043  H     0.26642   0.45585   0.90756   0.00000  Uiso   1.00
H1044  H     0.31075   0.50505   0.85412   0.00000  Uiso   1.00
H1045  H     0.16763   0.34083   0.50848   0.00000  Uiso   1.00
H1046  H     0.20486   0.61397   0.96917   0.00000  Uiso   1.00
H1047  H     0.28132   0.62479   0.93064   0.00000  Uiso   1.00
H1048  H     0.32150   0.36264   0.93208   0.00000  Uiso   1.00
H1049  H     0.28538   0.42284   0.97198   0.00000  Uiso   1.00
H1050  H     0.21014   0.33800   0.71670   0.00000  Uiso   1.00
H1051  H     0.05973   0.60622   0.94826   0.00000  Uiso   1.00
H1052  H     0.05777   0.33647   0.91274   0.00000  Uiso   1.00
H1053  H     0.12289   0.36910   0.86215   0.00000  Uiso   1.00
H1054  H     0.19004   0.33709   0.84551   0.00000  Uiso   1.00
H1055  H     0.19293   0.60716   0.88112   0.00000  Uiso   1.00
H1056  H     0.12171   0.66344   0.78302   0.00000  Uiso   1.00
H1057  H     0.18109   0.40104   0.93722   0.00000  Uiso   1.00
H1058  H     0.16352   0.52608   0.57784   0.00000  Uiso   1.00
H1059  H     0.12899   0.55692   0.54807   0.00000  Uiso   1.00
H1060  H     0.11158   0.60352   0.50433   0.00000  Uiso   1.00
H1061  H     0.15015   0.44245   0.89917   0.00000  Uiso   1.00
H1062  H     0.01459   0.52947   0.71393   0.00000  Uiso   1.00
O1063  O     0.16667   0.50000   0.75000   0.00000  Uiso   1.00
O1064  O     0.15451   0.45970   0.65458   0.00000  Uiso   1.00
O1065  O     0.12940   0.53724   0.84968   0.00000  Uiso   1.00
O1066  O     0.20824   0.51092   0.64606   0.00000  Uiso   1.00
O1067  O     0.17451   0.49213   0.84968   0.00000  Uiso   1.00
O1068  O     0.17930   0.41352   0.78213   0.00000  Uiso   1.00
O1069  O     0.14632   0.59418   0.77013   0.00000  Uiso   1.00
O1070  O     0.07412   0.46625   0.73413   0.00000  Uiso   1.00
O1071  O     0.26693   0.52605   0.71360   0.00000  Uiso   1.00
O1072  O     0.07071   0.52211   0.78213   0.00000  Uiso   1.00
O1073  O     0.25491   0.48559   0.77013   0.00000  Uiso   1.00
O1074  O     0.13760   0.40277   0.73413   0.00000  Uiso   1.00
O1075  O     0.20345   0.58953   0.71360   0.00000  Uiso   1.00
Zn1076 Zn    0.19338   0.47327   0.78734   0.00000  Uiso   1.00
Zn1077 Zn    0.13379   0.45791   0.71875   0.00000  Uiso   1.00
Zn1078 Zn    0.21056   0.53109   0.70657   0.00000  Uiso   1.00
Zn1079 Zn    0.12893   0.53773   0.78733   0.00000  Uiso   1.00
C1080  C     0.38636   0.49318   0.75939   0.00000  Uiso   1.00
C1081  C     0.50686   0.49749   0.55939   0.00000  Uiso   1.00
C1082  C     0.53916   0.43533   0.55996   0.00000  Uiso   1.00
C1083  C     0.61392   0.50693   0.74030   0.00000  Uiso   1.00
C1084  C     0.47476   0.52694   0.92053   0.00000  Uiso   1.00
C1085  C     0.65934   0.50961   0.73786   0.00000  Uiso   1.00
C1086  C     0.34126   0.48892   0.76442   0.00000  Uiso   1.00
C1087  C     0.51500   0.65614   0.73841   0.00000  Uiso   1.00
C1088  C     0.48466   0.34486   0.76287   0.00000  Uiso   1.00
C1089  C     0.48930   0.38915   0.76007   0.00000  Uiso   1.00
C1090  C     0.51008   0.61124   0.74053   0.00000  Uiso   1.00
C1091  C     0.45568   0.57427   0.98780   0.00000  Uiso   1.00
C1092  C     0.51860   0.48089   0.62944   0.00000  Uiso   1.00
C1093  C     0.48173   0.51796   0.87115   0.00000  Uiso   1.00
C1094  C     0.53605   0.42253   0.51617   0.00000  Uiso   1.00
C1095  C     0.52403   0.47230   0.58148   0.00000  Uiso   1.00
C1096  C     0.46221   0.56619   0.94152   0.00000  Uiso   1.00
C1097  C     0.64875   0.45928   0.79672   0.00000  Uiso   1.00
C1098  C     0.63723   0.41751   0.78190   0.00000  Uiso   1.00
C1099  C     0.61218   0.38982   0.81232   0.00000  Uiso   1.00
C1100  C     0.59869   0.40363   0.85758   0.00000  Uiso   1.00
C1101  C     0.61028   0.44514   0.87254   0.00000  Uiso   1.00
C1102  C     0.46692   0.54731   0.51287   0.00000  Uiso   1.00
C1103  C     0.63540   0.47291   0.84226   0.00000  Uiso   1.00
C1104  C     0.55726   0.38609   0.99286   0.00000  Uiso   1.00
C1105  C     0.53456   0.34579   0.99202   0.00000  Uiso   1.00
C1106  C     0.55542   0.64509   0.96974   0.00000  Uiso   1.00
C1107  C     0.59869   0.65115   0.94805   0.00000  Uiso   1.00
C1108  C     0.62137   0.35788   0.94893   0.00000  Uiso   1.00
C1109  C     0.60081   0.39191   0.97146   0.00000  Uiso   1.00
C1110  C     0.45962   0.60159   0.91666   0.00000  Uiso   1.00
C1111  C     0.42157   0.61972   0.92550   0.00000  Uiso   1.00
C1112  C     0.42039   0.65583   0.90563   0.00000  Uiso   1.00
C1113  C     0.48376   0.51011   0.99261   0.00000  Uiso   1.00
C1114  C     0.45713   0.34089   0.87707   0.00000  Uiso   1.00
C1115  C     0.49502   0.65623   0.86781   0.00000  Uiso   1.00
C1116  C     0.49641   0.62017   0.88766   0.00000  Uiso   1.00
C1117  C     0.48305   0.49777   0.94725   0.00000  Uiso   1.00
C1118  C     0.50150   0.48490   0.51591   0.00000  Uiso   1.00
C1119  C     0.51544   0.44626   0.99461   0.00000  Uiso   1.00
C1120  C     0.50760   0.43177   0.95279   0.00000  Uiso   1.00
C1121  C     0.49073   0.45657   0.93009   0.00000  Uiso   1.00
H1122  H     0.55296   0.41621   0.57751   0.00000  Uiso   1.00
H1123  H     0.64737   0.40660   0.74685   0.00000  Uiso   1.00
H1124  H     0.60317   0.35769   0.80079   0.00000  Uiso   1.00
H1125  H     0.57934   0.38213   0.88102   0.00000  Uiso   1.00
H1126  H     0.59975   0.45585   0.90756   0.00000  Uiso   1.00
H1127  H     0.64409   0.50505   0.85412   0.00000  Uiso   1.00
H1128  H     0.50096   0.34083   0.50848   0.00000  Uiso   1.00
H1129  H     0.53820   0.61397   0.96917   0.00000  Uiso   1.00
H1130  H     0.61465   0.62479   0.93064   0.00000  Uiso   1.00
H1131  H     0.65483   0.36264   0.93208   0.00000  Uiso   1.00
H1132  H     0.61872   0.42284   0.97198   0.00000  Uiso   1.00
H1133  H     0.54347   0.33800   0.71670   0.00000  Uiso   1.00
H1134  H     0.39306   0.60622   0.94826   0.00000  Uiso   1.00
H1135  H     0.39110   0.33647   0.91274   0.00000  Uiso   1.00
H1136  H     0.45622   0.36910   0.86215   0.00000  Uiso   1.00
H1137  H     0.52337   0.33709   0.84551   0.00000  Uiso   1.00
H1138  H     0.52626   0.60716   0.88112   0.00000  Uiso   1.00
H1139  H     0.45504   0.66344   0.78302   0.00000  Uiso   1.00
H1140  H     0.51442   0.40104   0.93722   0.00000  Uiso   1.00
H1141  H     0.49685   0.52608   0.57784   0.00000  Uiso   1.00
H1142  H     0.46232   0.55692   0.54807   0.00000  Uiso   1.00
H1143  H     0.44491   0.60352   0.50433   0.00000  Uiso   1.00
H1144  H     0.48348   0.44245   0.89917   0.00000  Uiso   1.00
H1145  H     0.34792   0.52947   0.71393   0.00000  Uiso   1.00
O1146  O     0.50000   0.50000   0.75000   0.00000  Uiso   1.00
O1147  O     0.48784   0.45970   0.65458   0.00000  Uiso   1.00
O1148  O     0.46274   0.53724   0.84968   0.00000  Uiso   1.00
O1149  O     0.54157   0.51092   0.64606   0.00000  Uiso   1.00
O1150  O     0.50785   0.49213   0.84968   0.00000  Uiso   1.00
O1151  O     0.51264   0.41352   0.78213   0.00000  Uiso   1.00
O1152  O     0.47965   0.59418   0.77013   0.00000  Uiso   1.00
O1153  O     0.40745   0.46625   0.73413   0.00000  Uiso   1.00
O1154  O     0.60026   0.52605   0.71360   0.00000  Uiso   1.00
O1155  O     0.40405   0.52211   0.78213   0.00000  Uiso   1.00
O1156  O     0.58824   0.48559   0.77013   0.00000  Uiso   1.00
O1157  O     0.47093   0.40277   0.73413   0.00000  Uiso   1.00
O1158  O     0.53678   0.58953   0.71360   0.00000  Uiso   1.00
Zn1159 Zn    0.52672   0.47327   0.78734   0.00000  Uiso   1.00
Zn1160 Zn    0.46713   0.45791   0.71875   0.00000  Uiso   1.00
Zn1161 Zn    0.54389   0.53109   0.70657   0.00000  Uiso   1.00
Zn1162 Zn    0.46226   0.53773   0.78733   0.00000  Uiso   1.00
C1163  C     0.71969   0.49318   0.75939   0.00000  Uiso   1.00
C1164  C     0.84019   0.49749   0.55939   0.00000  Uiso   1.00
C1165  C     0.87249   0.43533   0.55996   0.00000  Uiso   1.00
C1166  C     0.94725   0.50693   0.74030   0.00000  Uiso   1.00
C1167  C     0.80809   0.52694   0.92053   0.00000  Uiso   1.00
C1168  C     0.99267   0.50961   0.73786   0.00000  Uiso   1.00
C1169  C     0.67459   0.48892   0.76442   0.00000  Uiso   1.00
C1170  C     0.84834   0.65614   0.73841   0.00000  Uiso   1.00
C1171  C     0.81799   0.34486   0.76287   0.00000  Uiso   1.00
C1172  C     0.82263   0.38915   0.76007   0.00000  Uiso   1.00
C1173  C     0.84341   0.61124   0.74053   0.00000  Uiso   1.00
C1174  C     0.78901   0.57427   0.98780   0.00000  Uiso   1.00
C1175  C     0.85193   0.48089   0.62944   0.00000  Uiso   1.00
C1176  C     0.81506   0.51796   0.87115   0.00000  Uiso   1.00
C1177  C     0.86938   0.42253   0.51617   0.00000  Uiso   1.00
C1178  C     0.85736   0.47230   0.58148   0.00000  Uiso   1.00
C1179  C     0.79554   0.56619   0.94152   0.00000  Uiso   1.00
C1180  C     0.98209   0.45928   0.79672   0.00000  Uiso   1.00
C1181  C     0.97056   0.41751   0.78190   0.00000  Uiso   1.00
C1182  C     0.94551   0.38982   0.81232   0.00000  Uiso   1.00
C1183  C     0.93202   0.40363   0.85758   0.00000  Uiso   1.00
C1184  C     0.94361   0.44514   0.87254   0.00000  Uiso   1.00
C1185  C     0.80025   0.54731   0.51287   0.00000  Uiso   1.00
C1186  C     0.96874   0.47291   0.84226   0.00000  Uiso   1.00
C1187  C     0.89059   0.38609   0.99286   0.00000  Uiso   1.00
C1188  C     0.86790   0.34579   0.99202   0.00000  Uiso   1.00
C1189  C     0.88875   0.64509   0.96974   0.00000  Uiso   1.00
C1190  C     0.93203   0.65115   0.94805   0.00000  Uiso   1.00
C1191  C     0.95471   0.35788   0.94893   0.00000  Uiso   1.00
C1192  C     0.93415   0.39191   0.97146   0.00000  Uiso   1.00
C1193  C     0.79295   0.60159   0.91666   0.00000  Uiso   1.00
C1194  C     0.75490   0.61972   0.92550   0.00000  Uiso   1.00
C1195  C     0.75372   0.65583   0.90563   0.00000  Uiso   1.00
C1196  C     0.81710   0.51011   0.99261   0.00000  Uiso   1.00
C1197  C     0.79047   0.34089   0.87707   0.00000  Uiso   1.00
C1198  C     0.82835   0.65623   0.86781   0.00000  Uiso   1.00
C1199  C     0.82974   0.62017   0.88766   0.00000  Uiso   1.00
C1200  C     0.81639   0.49777   0.94725   0.00000  Uiso   1.00
C1201  C     0.83484   0.48490   0.51591   0.00000  Uiso   1.00
C1202  C     0.84877   0.44626   0.99461   0.00000  Uiso   1.00
C1203  C     0.84093   0.43177   0.95279   0.00000  Uiso   1.00
C1204  C     0.82406   0.45657   0.93009   0.00000  Uiso   1.00
H1205  H     0.88629   0.41621   0.57751   0.00000  Uiso   1.00
H1206  H     0.98070   0.40660   0.74685   0.00000  Uiso   1.00
H1207  H     0.93650   0.35769   0.80079   0.00000  Uiso   1.00
H1208  H     0.91267   0.38213   0.88102   0.00000  Uiso   1.00
H1209  H     0.93308   0.45585   0.90756   0.00000  Uiso   1.00
H1210  H     0.97742   0.50505   0.85412   0.00000  Uiso   1.00
H1211  H     0.83429   0.34083   0.50848   0.00000  Uiso   1.00
H1212  H     0.87153   0.61397   0.96917   0.00000  Uiso   1.00
H1213  H     0.94798   0.62479   0.93064   0.00000  Uiso   1.00
H1214  H     0.98817   0.36264   0.93208   0.00000  Uiso   1.00
H1215  H     0.95205   0.42284   0.97198   0.00000  Uiso   1.00
H1216  H     0.87680   0.33800   0.71670   0.00000  Uiso   1.00
H1217  H     0.72639   0.60622   0.94826   0.00000  Uiso   1.00
H1218  H     0.72444   0.33647   0.91274   0.00000  Uiso   1.00
H1219  H     0.78956   0.36910   0.86215   0.00000  Uiso   1.00
H1220  H     0.85670   0.33709   0.84551   0.00000  Uiso   1.00
H1221  H     0.85959   0.60716   0.88112   0.00000  Uiso   1.00
H1222  H     0.78838   0.66344   0.78302   0.00000  Uiso   1.00
H1223  H     0.84776   0.40104   0.93722   0.00000  Uiso   1.00
H1224  H     0.83019   0.52608   0.57784   0.00000  Uiso   1.00
H1225  H     0.79566   0.55692   0.54807   0.00000  Uiso   1.00
H1226  H     0.77825   0.60352   0.50433   0.00000  Uiso   1.00
H1227  H     0.81681   0.44245   0.89917   0.00000  Uiso   1.00
H1228  H     0.68125   0.52947   0.71393   0.00000  Uiso   1.00
O1229  O     0.83333   0.50000   0.75000   0.00000  Uiso   1.00
O1230  O     0.82118   0.45970   0.65458   0.00000  Uiso   1.00
O1231  O     0.79607   0.53724   0.84968   0.00000  Uiso   1.00
O1232  O     0.87491   0.51092   0.64606   0.00000  Uiso   1.00
O1233  O     0.84118   0.49213   0.84968   0.00000  Uiso   1.00
O1234  O     0.84597   0.41352   0.78213   0.00000  Uiso   1.00
O1235  O     0.81298   0.59418   0.77013   0.00000  Uiso   1.00
O1236  O     0.74078   0.46625   0.73413   0.00000  Uiso   1.00
O1237  O     0.93360   0.52605   0.71360   0.00000  Uiso   1.00
O1238  O     0.73738   0.52211   0.78213   0.00000  Uiso   1.00
O1239  O     0.92158   0.48559   0.77013   0.00000  Uiso   1.00
O1240  O     0.80426   0.40277   0.73413   0.00000  Uiso   1.00
O1241  O     0.87012   0.58953   0.71360   0.00000  Uiso   1.00
Zn1242 Zn    0.86005   0.47327   0.78734   0.00000  Uiso   1.00
Zn1243 Zn    0.80046   0.45791   0.71875   0.00000  Uiso   1.00
Zn1244 Zn    0.87723   0.53109   0.70657   0.00000  Uiso   1.00
Zn1245 Zn    0.79560   0.53773   0.78733   0.00000  Uiso   1.00
C1246  C     0.05303   0.82651   0.75939   0.00000  Uiso   1.00
C1247  C     0.17353   0.83082   0.55939   0.00000  Uiso   1.00
C1248  C     0.20582   0.76866   0.55996   0.00000  Uiso   1.00
C1249  C     0.28059   0.84026   0.74030   0.00000  Uiso   1.00
C1250  C     0.14143   0.86028   0.92053   0.00000  Uiso   1.00
C1251  C     0.32601   0.84294   0.73786   0.00000  Uiso   1.00
C1252  C     0.00792   0.82225   0.76442   0.00000  Uiso   1.00
C1253  C     0.18167   0.98948   0.73841   0.00000  Uiso   1.00
C1254  C     0.15133   0.67820   0.76287   0.00000  Uiso   1.00
C1255  C     0.15597   0.72248   0.76007   0.00000  Uiso   1.00
C1256  C     0.17675   0.94457   0.74053   0.00000  Uiso   1.00
C1257  C     0.12235   0.90760   0.98780   0.00000  Uiso   1.00
C1258  C     0.18526   0.81423   0.62944   0.00000  Uiso   1.00
C1259  C     0.14839   0.85129   0.87115   0.00000  Uiso   1.00
C1260  C     0.20272   0.75587   0.51617   0.00000  Uiso   1.00
C1261  C     0.19069   0.80563   0.58148   0.00000  Uiso   1.00
C1262  C     0.12888   0.89952   0.94152   0.00000  Uiso   1.00
C1263  C     0.31542   0.79262   0.79672   0.00000  Uiso   1.00
C1264  C     0.30390   0.75085   0.78190   0.00000  Uiso   1.00
C1265  C     0.27885   0.72315   0.81232   0.00000  Uiso   1.00
C1266  C     0.26536   0.73697   0.85758   0.00000  Uiso   1.00
C1267  C     0.27694   0.77847   0.87254   0.00000  Uiso   1.00
C1268  C     0.13359   0.88064   0.51287   0.00000  Uiso   1.00
C1269  C     0.30207   0.80625   0.84226   0.00000  Uiso   1.00
C1270  C     0.22392   0.71942   0.99286   0.00000  Uiso   1.00
C1271  C     0.20123   0.67912   0.99202   0.00000  Uiso   1.00
C1272  C     0.22209   0.97842   0.96974   0.00000  Uiso   1.00
C1273  C     0.26536   0.98448   0.94805   0.00000  Uiso   1.00
C1274  C     0.28804   0.69122   0.94893   0.00000  Uiso   1.00
C1275  C     0.26748   0.72524   0.97146   0.00000  Uiso   1.00
C1276  C     0.12628   0.93493   0.91666   0.00000  Uiso   1.00
C1277  C     0.08824   0.95305   0.92550   0.00000  Uiso   1.00
C1278  C     0.08706   0.98916   0.90563   0.00000  Uiso   1.00
C1279  C     0.15043   0.84345   0.99261   0.00000  Uiso   1.00
C1280  C     0.12380   0.67422   0.87707   0.00000  Uiso   1.00
C1281  C     0.16169   0.98956   0.86781   0.00000  Uiso   1.00
C1282  C     0.16307   0.95350   0.88766   0.00000  Uiso   1.00
C1283  C     0.14972   0.83110   0.94725   0.00000  Uiso   1.00
C1284  C     0.16817   0.81824   0.51591   0.00000  Uiso   1.00
C1285  C     0.18210   0.77959   0.99461   0.00000  Uiso   1.00
C1286  C     0.17426   0.76511   0.95279   0.00000  Uiso   1.00
C1287  C     0.15740   0.78990   0.93009   0.00000  Uiso   1.00
H1288  H     0.21962   0.74955   0.57751   0.00000  Uiso   1.00
H1289  H     0.31403   0.73994   0.74685   0.00000  Uiso   1.00
H1290  H     0.26984   0.69102   0.80079   0.00000  Uiso   1.00
H1291  H     0.24600   0.71547   0.88102   0.00000  Uiso   1.00
H1292  H     0.26642   0.78918   0.90756   0.00000  Uiso   1.00
H1293  H     0.31075   0.83838   0.85412   0.00000  Uiso   1.00
H1294  H     0.16763   0.67416   0.50848   0.00000  Uiso   1.00
H1295  H     0.20486   0.94730   0.96917   0.00000  Uiso   1.00
H1296  H     0.28132   0.95812   0.93064   0.00000  Uiso   1.00
H1297  H     0.32150   0.69598   0.93208   0.00000  Uiso   1.00
H1298  H     0.28538   0.75617   0.97198   0.00000  Uiso   1.00
H1299  H     0.21014   0.67134   0.71670   0.00000  Uiso   1.00
H1300  H     0.05973   0.93955   0.94826   0.00000  Uiso   1.00
H1301  H     0.05777   0.66980   0.91274   0.00000  Uiso   1.00
H1302  H     0.12289   0.70243   0.86215   0.00000  Uiso   1.00
H1303  H     0.19004   0.67042   0.84551   0.00000  Uiso   1.00
H1304  H     0.19293   0.94050   0.88112   0.00000  Uiso   1.00
H1305  H     0.12171   0.99677   0.78302   0.00000  Uiso   1.00
H1306  H     0.18109   0.73437   0.93722   0.00000  Uiso   1.00
H1307  H     0.16352   0.85941   0.57784   0.00000  Uiso   1.00
H1308  H     0.12899   0.89025   0.54807   0.00000  Uiso   1.00
H1309  H     0.11158   0.93685   0.50433   0.00000  Uiso   1.00
H1310  H     0.15015   0.77578   0.89917   0.00000  Uiso   1.00
H1311  H     0.01459   0.86280   0.71393   0.00000  Uiso   1.00
O1312  O     0.16667   0.83333   0.75000   0.00000  Uiso   1.00
O1313  O     0.15451   0.79304   0.65458   0.00000  Uiso   1.00
O1314  O     0.12940   0.87058   0.84968   0.00000  Uiso   1.00
O1315  O     0.20824   0.84425   0.64606   0.00000  Uiso   1.00
O1316  O     0.17451   0.82546   0.84968   0.00000  Uiso   1.00
O1317  O     0.17930   0.74686   0.78213   0.00000  Uiso   1.00
O1318  O     0.14632   0.92751   0.77013   0.00000  Uiso   1.00
O1319  O     0.07412   0.79958   0.73413   0.00000  Uiso   1.00
O1320  O     0.26693   0.85939   0.71360   0.00000  Uiso   1.00
O1321  O     0.07071   0.85544   0.78213   0.00000  Uiso   1.00
O1322  O     0.25491   0.81892   0.77013   0.00000  Uiso   1.00
O1323  O     0.13760   0.73610   0.73413   0.00000  Uiso   1.00
O1324  O     0.20345   0.92286   0.71360   0.00000  Uiso   1.00
Zn1325 Zn    0.19338   0.80661   0.78734   0.00000  Uiso   1.00
Zn1326 Zn    0.13379   0.79124   0.71875   0.00000  Uiso   1.00
Zn1327 Zn    0.21056   0.86442   0.70657   0.00000  Uiso   1.00
Zn1328 Zn    0.12893   0.87106   0.78733   0.00000  Uiso   1.00
C1329  C     0.38636   0.82651   0.75939   0.00000  Uiso   1.00
C1330  C     0.50686   0.83082   0.55939   0.00000  Uiso   1.00
C1331  C     0.53916   0.76866   0.55996   0.00000  Uiso   1.00
C1332  C     0.61392   0.84026   0.74030   0.00000  Uiso   1.00
C1333  C     0.47476   0.86028   0.92053   0.00000  Uiso   1.00
C1334  C     0.65934   0.84294   0.73786   0.00000  Uiso   1.00
C1335  C     0.34126   0.82225   0.76442   0.00000  Uiso   1.00
C1336  C     0.51500   0.98948   0.73841   0.00000  Uiso   1.00
C1337  C     0.48466   0.67820   0.76287   0.00000  Uiso   1.00
C1338  C     0.48930   0.72248   0.76007   0.00000  Uiso   1.00
C1339  C     0.51008   0.94457   0.74053   0.00000  Uiso   1.00
C1340  C     0.45568   0.90760   0.98780   0.00000  Uiso   1.00
C1341  C     0.51860   0.81423   0.62944   0.00000  Uiso   1.00
C1342  C     0.48173   0.85129   0.87115   0.00000  Uiso   1.00
C1343  C     0.53605   0.75587   0.51617   0.00000  Uiso   1.00
C1344  C     0.52403   0.80563   0.58148   0.00000  Uiso   1.00
C1345  C     0.46221   0.89952   0.94152   0.00000  Uiso   1.00
C1346  C     0.64875   0.79262   0.79672   0.00000  Uiso   1.00
C1347  C     0.63723   0.75085   0.78190   0.00000  Uiso   1.00
C1348  C     0.61218   0.72315   0.81232   0.00000  Uiso   1.00
C1349  C     0.59869   0.73697   0.85758   0.00000  Uiso   1.00
C1350  C     0.61028   0.77847   0.87254   0.00000  Uiso   1.00
C1351  C     0.46692   0.88064   0.51287   0.00000  Uiso   1.00
C1352  C     0.63540   0.80625   0.84226   0.00000  Uiso   1.00
C1353  C     0.55726   0.71942   0.99286   0.00000  Uiso   1.00
C1354  C     0.53456   0.67912   0.99202   0.00000  Uiso   1.00
C1355  C     0.55542   0.97842   0.96974   0.00000  Uiso   1.00
C1356  C     0.59869   0.98448   0.94805   0.00000  Uiso   1.00
C1357  C     0.62137   0.69122   0.94893   0.00000  Uiso   1.00
C1358  C     0.60081   0.72524   0.97146   0.00000  Uiso   1.00
C1359  C     0.45962   0.93493   0.91666   0.00000  Uiso   1.00
C1360  C     0.42157   0.95305   0.92550   0.00000  Uiso   1.00
C1361  C     0.42039   0.98916   0.90563   0.00000  Uiso   1.00
C1362  C     0.48376   0.84345   0.99261   0.00000  Uiso   1.00
C1363  C     0.45713   0.67422   0.87707   0.00000  Uiso   1.00
C1364  C     0.49502   0.98956   0.86781   0.00000  Uiso   1.00
C1365  C     0.49641   0.95350   0.88766   0.00000  Uiso   1.00
C1366  C     0.48305   0.83110   0.94725   0.00000  Uiso   1.00
C1367  C     0.50150   0.81824   0.51591   0.00000  Uiso   1.00
C1368  C     0.51544   0.77959   0.99461   0.00000  Uiso   1.00
C1369  C     0.50760   0.76511   0.95279   0.00000  Uiso   1.00
C1370  C     0.49073   0.78990   0.93009   0.00000  Uiso   1.00
H1371  H     0.55296   0.74955   0.57751   0.00000  Uiso   1.00
H1372  H     0.64737   0.73994   0.74685   0.00000  Uiso   1.00
H1373  H     0.60317   0.69102   0.80079   0.00000  Uiso   1.00
H1374  H     0.57934   0.71547   0.88102   0.00000  Uiso   1.00
H1375  H     0.59975   0.78918   0.90756   0.00000  Uiso   1.00
H1376  H     0.64409   0.83838   0.85412   0.00000  Uiso   1.00
H1377  H     0.50096   0.67416   0.50848   0.00000  Uiso   1.00
H1378  H     0.53820   0.94730   0.96917   0.00000  Uiso   1.00
H1379  H     0.61465   0.95812   0.93064   0.00000  Uiso   1.00
H1380  H     0.65483   0.69598   0.93208   0.00000  Uiso   1.00
H1381  H     0.61872   0.75617   0.97198   0.00000  Uiso   1.00
H1382  H     0.54347   0.67134   0.71670   0.00000  Uiso   1.00
H1383  H     0.39306   0.93955   0.94826   0.00000  Uiso   1.00
H1384  H     0.39110   0.66980   0.91274   0.00000  Uiso   1.00
H1385  H     0.45622   0.70243   0.86215   0.00000  Uiso   1.00
H1386  H     0.52337   0.67042   0.84551   0.00000  Uiso   1.00
H1387  H     0.52626   0.94050   0.88112   0.00000  Uiso   1.00
H1388  H     0.45504   0.99677   0.78302   0.00000  Uiso   1.00
H1389  H     0.51442   0.73437   0.93722   0.00000  Uiso   1.00
H1390  H     0.49685   0.85941   0.57784   0.00000  Uiso   1.00
H1391  H     0.46232   0.89025   0.54807   0.00000  Uiso   1.00
H1392  H     0.44491   0.93685   0.50433   0.00000  Uiso   1.00
H1393  H     0.48348   0.77578   0.89917   0.00000  Uiso   1.00
H1394  H     0.34792   0.86280   0.71393   0.00000  Uiso   1.00
O1395  O     0.50000   0.83333   0.75000   0.00000  Uiso   1.00
O1396  O     0.48784   0.79304   0.65458   0.00000  Uiso   1.00
O1397  O     0.46274   0.87058   0.84968   0.00000  Uiso   1.00
O1398  O     0.54157   0.84425   0.64606   0.00000  Uiso   1.00
O1399  O     0.50785   0.82546   0.84968   0.00000  Uiso   1.00
O1400  O     0.51264   0.74686   0.78213   0.00000  Uiso   1.00
O1401  O     0.47965   0.92751   0.77013   0.00000  Uiso   1.00
O1402  O     0.40745   0.79958   0.73413   0.00000  Uiso   1.00
O1403  O     0.60026   0.85939   0.71360   0.00000  Uiso   1.00
O1404  O     0.40405   0.85544   0.78213   0.00000  Uiso   1.00
O1405  O     0.58824   0.81892   0.77013   0.00000  Uiso   1.00
O1406  O     0.47093   0.73610   0.73413   0.00000  Uiso   1.00
O1407  O     0.53678   0.92286   0.71360   0.00000  Uiso   1.00
Zn1408 Zn    0.52672   0.80661   0.78734   0.00000  Uiso   1.00
Zn1409 Zn    0.46713   0.79124   0.71875   0.00000  Uiso   1.00
Zn1410 Zn    0.54389   0.86442   0.70657   0.00000  Uiso   1.00
Zn1411 Zn    0.46226   0.87106   0.78733   0.00000  Uiso   1.00
C1412  C     0.71969   0.82651   0.75939   0.00000  Uiso   1.00
C1413  C     0.84019   0.83082   0.55939   0.00000  Uiso   1.00
C1414  C     0.87249   0.76866   0.55996   0.00000  Uiso   1.00
C1415  C     0.94725   0.84026   0.74030   0.00000  Uiso   1.00
C1416  C     0.80809   0.86028   0.92053   0.00000  Uiso   1.00
C1417  C     0.99267   0.84294   0.73786   0.00000  Uiso   1.00
C1418  C     0.67459   0.82225   0.76442   0.00000  Uiso   1.00
C1419  C     0.84834   0.98948   0.73841   0.00000  Uiso   1.00
C1420  C     0.81799   0.67820   0.76287   0.00000  Uiso   1.00
C1421  C     0.82263   0.72248   0.76007   0.00000  Uiso   1.00
C1422  C     0.84341   0.94457   0.74053   0.00000  Uiso   1.00
C1423  C     0.78901   0.90760   0.98780   0.00000  Uiso   1.00
C1424  C     0.85193   0.81423   0.62944   0.00000  Uiso   1.00
C1425  C     0.81506   0.85129   0.87115   0.00000  Uiso   1.00
C1426  C     0.86938   0.75587   0.51617   0.00000  Uiso   1.00
C1427  C     0.85736   0.80563   0.58148   0.00000  Uiso   1.00
C1428  C     0.79554   0.89952   0.94152   0.00000  Uiso   1.00
C1429  C     0.98209   0.79262   0.79672   0.00000  Uiso   1.00
C1430  C     0.97056   0.75085   0.78190   0.00000  Uiso   1.00
C1431  C     0.94551   0.72315   0.81232   0.00000  Uiso   1.00
C1432  C     0.93202   0.73697   0.85758   0.00000  Uiso   1.00
C1433  C     0.94361   0.77847   0.87254   0.00000  Uiso   1.00
C1434  C     0.80025   0.88064   0.51287   0.00000  Uiso   1.00
C1435  C     0.96874   0.80625   0.84226   0.00000  Uiso   1.00
C1436  C     0.89059   0.71942   0.99286   0.00000  Uiso   1.00
C1437  C     0.86790   0.67912   0.99202   0.00000  Uiso   1.00
C1438  C     0.88875   0.97842   0.96974   0.00000  Uiso   1.00
C1439  C     0.93203   0.98448   0.94805   0.00000  Uiso   1.00
C1440  C     0.95471   0.69122   0.94893   0.00000  Uiso   1.00
C1441  C     0.93415   0.72524   0.97146   0.00000  Uiso   1.00
C1442  C     0.79295   0.93493   0.91666   0.00000  Uiso   1.00
C1443  C     0.75490   0.95305   0.92550   0.00000  Uiso   1.00
C1444  C     0.75372   0.98916   0.90563   0.00000  Uiso   1.00
C1445  C     0.81710   0.84345   0.99261   0.00000  Uiso   1.00
C1446  C     0.79047   0.67422   0.87707   0.00000  Uiso   1.00
C1447  C     0.82835   0.98956   0.86781   0.00000  Uiso   1.00
C1448  C     0.82974   0.95350   0.88766   0.00000  Uiso   1.00
C1449  C     0.81639   0.83110   0.94725   0.00000  Uiso   1.00
C1450  C     0.83484   0.81824   0.51591   0.00000  Uiso   1.00
C1451  C     0.84877   0.77959   0.99461   0.00000  Uiso   1.00
C1452  C     0.84093   0.76511   0.95279   0.00000  Uiso   1.00
C1453  C     0.82406   0.78990   0.93009   0.00000  Uiso   1.00
H1454  H     0.88629   0.74955   0.57751   0.00000  Uiso   1.00
H1455  H     0.98070   0.73994   0.74685   0.00000  Uiso   1.00
H1456  H     0.93650   0.69102   0.80079   0.00000  Uiso   1.00
H1457  H     0.91267   0.71547   0.88102   0.00000  Uiso   1.00
H1458  H     0.93308   0.78918   0.90756   0.00000  Uiso   1.00
H1459  H     0.97742   0.83838   0.85412   0.00000  Uiso   1.00
H1460  H     0.83429   0.67416   0.50848   0.00000  Uiso   1.00
H1461  H     0.87153   0.94730   0.96917   0.00000  Uiso   1.00
H1462  H     0.94798   0.95812   0.93064   0.00000  Uiso   1.00
H1463  H     0.98817   0.69598   0.93208   0.00000  Uiso   1.00
H1464  H     0.95205   0.75617   0.97198   0.00000  Uiso   1.00
H1465  H     0.87680   0.67134   0.71670   0.00000  Uiso   1.00
H1466  H     0.72639   0.93955   0.94826   0.00000  Uiso   1.00
H1467  H     0.72444   0.66980   0.91274   0.00000  Uiso   1.00
H1468  H     0.78956   0.70243   0.86215   0.00000  Uiso   1.00
H1469  H     0.85670   0.67042   0.84551   0.00000  Uiso   1.00
H1470  H     0.85959   0.94050   0.88112   0.00000  Uiso   1.00
H1471  H     0.78838   0.99677   0.78302   0.00000  Uiso   1.00
H1472  H     0.84776   0.73437   0.93722   0.00000  Uiso   1.00
H1473  H     0.83019   0.85941   0.57784   0.00000  Uiso   1.00
H1474  H     0.79566   0.89025   0.54807   0.00000  Uiso   1.00
H1475  H     0.77825   0.93685   0.50433   0.00000  Uiso   1.00
H1476  H     0.81681   0.77578   0.89917   0.00000  Uiso   1.00
H1477  H     0.68125   0.86280   0.71393   0.00000  Uiso   1.00
O1478  O     0.83333   0.83333   0.75000   0.00000  Uiso   1.00
O1479  O     0.82118   0.79304   0.65458   0.00000  Uiso   1.00
O1480  O     0.79607   0.87058   0.84968   0.00000  Uiso   1.00
O1481  O     0.87491   0.84425   0.64606   0.00000  Uiso   1.00
O1482  O     0.84118   0.82546   0.84968   0.00000  Uiso   1.00
O1483  O     0.84597   0.74686   0.78213   0.00000  Uiso   1.00
O1484  O     0.81298   0.92751   0.77013   0.00000  Uiso   1.00
O1485  O     0.74078   0.79958   0.73413   0.00000  Uiso   1.00
O1486  O     0.93360   0.85939   0.71360   0.00000  Uiso   1.00
O1487  O     0.73738   0.85544   0.78213   0.00000  Uiso   1.00
O1488  O     0.92158   0.81892   0.77013   0.00000  Uiso   1.00
O1489  O     0.80426   0.73610   0.73413   0.00000  Uiso   1.00
O1490  O     0.87012   0.92286   0.71360   0.00000  Uiso   1.00
Zn1491 Zn    0.86005   0.80661   0.78734   0.00000  Uiso   1.00
Zn1492 Zn    0.80046   0.79124   0.71875   0.00000  Uiso   1.00
Zn1493 Zn    0.87723   0.86442   0.70657   0.00000  Uiso   1.00
Zn1494 Zn    0.79560   0.87106   0.78733   0.00000  Uiso   1.00
loop_
_geom_bond_atom_site_label_1
_geom_bond_atom_site_label_2
_geom_bond_distance
_geom_bond_site_symmetry_2
_ccdc_geom_bond_type
C1     O74     1.261   .     A
C1     C7      1.430   .     S
C1     O76     1.264   .     A
C2     C39     1.407   .     A
C2     C16     1.387   .     A
C2     H62     1.077   .     S
C3     H43     1.085   .     S
C3     C15     1.395   .     A
C3     C16     1.394   .     A
C4     O75     1.291   .     A
C4     C6      1.458   .     S
C4     O77     1.274   .     A
C5     C17     1.425   .     A
C5     C14     1.488   .     S
C5     C38     1.428   .     A
C6     C90     1.350   .     S
C6     H149    1.088   .     S
C7     C172    1.350   1_455 S
C7     C184    1.482   1_455 S
C8     C11     1.448   .     S
C8     C258    1.329   .     S
C8     H303    1.088   .     S
C9     C10     1.432   .     S
C9     C506    1.329   1_545 S
C9     H558    1.086   1_545 S
C10    O78     1.272   .     A
C10    O72     1.277   .     A
C11    O73     1.276   .     A
C11    O79     1.274   .     A
C12    C17     1.393   .     A
C12    C770    1.383   .     S
C12    H811    1.084   .     S
C13    O70     1.279   .     A
C13    O68     1.269   .     A
C13    C16     1.449   .     S
C14    O71     1.289   .     A
C14    O69     1.285   .     A
C15    C772    1.477   1_554 S
C15    C787    1.416   1_554 S
C17    C31     1.483   .     S
C18    C24     1.403   .     A
C18    C19     1.404   .     A
C18    C90     1.482   .     S
C19    C20     1.398   .     A
C19    H44     1.083   .     S
C20    H45     1.082   .     S
C20    C21     1.398   .     A
C21    C22     1.398   .     A
C21    H46     1.081   .     S
C22    H47     1.082   .     S
C22    C24     1.398   .     A
C23    H63     1.076   .     S
C23    C759    1.383   1_554 S
C23    C781    1.411   1_554 S
C24    H48     1.083   .     S
C25    C26     1.403   .     A
C25    C30     1.403   .     A
C25    C762    1.477   .     S
C26    C525    1.400   1_545 S
C26    H796    1.083   .     S
C27    H50     1.080   .     S
C27    C28     1.397   .     A
C27    C275    1.400   .     S
C28    H51     1.082   .     S
C28    C278    1.397   .     S
C29    C30     1.397   .     A
C29    H52     1.081   .     S
C29    C526    1.397   1_545 S
C30    H53     1.083   .     S
C31    C37     1.406   .     A
C31    C32     1.405   .     A
C32    H55     1.083   .     S
C32    C33     1.398   .     A
C33    C284    1.397   .     S
C33    H305    1.081   .     S
C34    C38     1.420   .     A
C34    C770    1.411   .     S
C34    C786    1.424   .     S
C35    H57     1.082   .     S
C35    C531    1.397   1_545 S
C35    C534    1.397   1_545 S
C36    C37     1.398   .     A
C36    C284    1.397   .     S
C36    H307    1.081   .     S
C37    H59     1.083   .     S
C38    C42     1.411   .     A
C39    C781    1.424   1_554 S
C39    C787    1.425   1_554 S
C40    C41     1.398   .     A
C40    C786    1.425   .     S
C40    C762    1.416   .     S
C41    H61     1.082   .     S
C41    C42     1.385   .     A
C42    H65     1.078   .     S
H49    C773    1.083   1_554 S
H54    C506    1.088   1_545 S
H56    C531    1.081   1_545 S
H58    C534    1.081   1_545 S
H60    C258    1.086   .     S
H64    C759    1.084   1_554 S
H66    C172    1.088   1_455 S
O67    Zn83    1.933   .     S
O67    Zn81    1.931   .     S
O67    Zn80    1.961   .     S
O67    Zn82    1.947   .     S
O68    Zn81    1.935   .     S
O69    Zn83    1.939   .     S
O70    Zn82    1.927   .     S
O71    Zn80    1.925   .     S
O72    Zn80    1.920   .     S
O73    Zn83    1.931   .     S
O74    Zn81    1.939   .     S
O75    Zn82    1.944   .     S
O76    Zn83    1.938   .     S
O77    Zn80    1.937   .     S
O78    Zn81    1.935   .     S
O79    Zn82    1.923   .     S
C84    O157    1.261   .     A
C84    C90     1.430   .     S
C84    O159    1.264   .     A
C85    C122    1.407   .     A
C85    C99     1.387   .     A
C85    H145    1.077   .     S
C86    H126    1.085   .     S
C86    C98     1.395   .     A
C86    C99     1.394   .     A
C87    O158    1.291   .     A
C87    C89     1.458   .     S
C87    O160    1.274   .     A
C88    C100    1.425   .     A
C88    C97     1.488   .     S
C88    C121    1.428   .     A
C89    C173    1.350   .     S
C89    H232    1.088   .     S
C91    C94     1.448   .     S
C91    C341    1.329   .     S
C91    H386    1.088   .     S
C92    C93     1.432   .     S
C92    C589    1.329   1_545 S
C92    H641    1.086   1_545 S
C93    O161    1.272   .     A
C93    O155    1.277   .     A
C94    O156    1.276   .     A
C94    O162    1.274   .     A
C95    C100    1.393   .     A
C95    C853    1.383   .     S
C95    H894    1.084   .     S
C96    O153    1.279   .     A
C96    O151    1.269   .     A
C96    C99     1.449   .     S
C97    O154    1.289   .     A
C97    O152    1.285   .     A
C98    C855    1.477   1_554 S
C98    C870    1.416   1_554 S
C100   C114    1.483   .     S
C101   C107    1.403   .     A
C101   C102    1.404   .     A
C101   C173    1.482   .     S
C102   C103    1.398   .     A
C102   H127    1.083   .     S
C103   H128    1.082   .     S
C103   C104    1.398   .     A
C104   C105    1.398   .     A
C104   H129    1.081   .     S
C105   H130    1.082   .     S
C105   C107    1.398   .     A
C106   H146    1.076   .     S
C106   C842    1.383   1_554 S
C106   C864    1.411   1_554 S
C107   H131    1.083   .     S
C108   C109    1.403   .     A
C108   C113    1.403   .     A
C108   C845    1.477   .     S
C109   C608    1.400   1_545 S
C109   H879    1.083   .     S
C110   H133    1.080   .     S
C110   C111    1.397   .     A
C110   C358    1.400   .     S
C111   H134    1.082   .     S
C111   C361    1.397   .     S
C112   C113    1.397   .     A
C112   H135    1.081   .     S
C112   C609    1.397   1_545 S
C113   H136    1.083   .     S
C114   C120    1.406   .     A
C114   C115    1.405   .     A
C115   H138    1.083   .     S
C115   C116    1.398   .     A
C116   C367    1.397   .     S
C116   H388    1.081   .     S
C117   C121    1.420   .     A
C117   C853    1.411   .     S
C117   C869    1.424   .     S
C118   H140    1.082   .     S
C118   C614    1.397   1_545 S
C118   C617    1.397   1_545 S
C119   C120    1.398   .     A
C119   C367    1.397   .     S
C119   H390    1.081   .     S
C120   H142    1.083   .     S
C121   C125    1.411   .     A
C122   C864    1.424   1_554 S
C122   C870    1.425   1_554 S
C123   C124    1.398   .     A
C123   C869    1.425   .     S
C123   C845    1.416   .     S
C124   H144    1.082   .     S
C124   C125    1.385   .     A
C125   H148    1.078   .     S
H132   C856    1.083   1_554 S
H137   C589    1.088   1_545 S
H139   C614    1.081   1_545 S
H141   C617    1.081   1_545 S
H143   C341    1.086   .     S
H147   C842    1.084   1_554 S
O150   Zn166   1.933   .     S
O150   Zn164   1.931   .     S
O150   Zn163   1.961   .     S
O150   Zn165   1.947   .     S
O151   Zn164   1.935   .     S
O152   Zn166   1.939   .     S
O153   Zn165   1.927   .     S
O154   Zn163   1.925   .     S
O155   Zn163   1.920   .     S
O156   Zn166   1.931   .     S
O157   Zn164   1.939   .     S
O158   Zn165   1.944   .     S
O159   Zn166   1.938   .     S
O160   Zn163   1.937   .     S
O161   Zn164   1.935   .     S
O162   Zn165   1.923   .     S
C167   O240    1.261   .     A
C167   C173    1.430   .     S
C167   O242    1.264   .     A
C168   C205    1.407   .     A
C168   C182    1.387   .     A
C168   H228    1.077   .     S
C169   H209    1.085   .     S
C169   C181    1.395   .     A
C169   C182    1.394   .     A
C170   O241    1.291   .     A
C170   C172    1.458   .     S
C170   O243    1.274   .     A
C171   C183    1.425   .     A
C171   C180    1.488   .     S
C171   C204    1.428   .     A
C172   C7      1.350   1_655 S
C172   H66     1.088   1_655 S
C174   C177    1.448   .     S
C174   C424    1.329   .     S
C174   H469    1.088   .     S
C175   C176    1.432   .     S
C175   C672    1.329   1_545 S
C175   H724    1.086   1_545 S
C176   O244    1.272   .     A
C176   O238    1.277   .     A
C177   O239    1.276   .     A
C177   O245    1.274   .     A
C178   C183    1.393   .     A
C178   C936    1.383   .     S
C178   H977    1.084   .     S
C179   O236    1.279   .     A
C179   O234    1.269   .     A
C179   C182    1.449   .     S
C180   O237    1.289   .     A
C180   O235    1.285   .     A
C181   C938    1.477   1_554 S
C181   C953    1.416   1_554 S
C183   C197    1.483   .     S
C184   C190    1.403   .     A
C184   C185    1.404   .     A
C184   C7      1.482   1_655 S
C185   C186    1.398   .     A
C185   H210    1.083   .     S
C186   H211    1.082   .     S
C186   C187    1.398   .     A
C187   C188    1.398   .     A
C187   H212    1.081   .     S
C188   H213    1.082   .     S
C188   C190    1.398   .     A
C189   H229    1.076   .     S
C189   C925    1.383   1_554 S
C189   C947    1.411   1_554 S
C190   H214    1.083   .     S
C191   C192    1.403   .     A
C191   C196    1.403   .     A
C191   C928    1.477   .     S
C192   C691    1.400   1_545 S
C192   H962    1.083   .     S
C193   H216    1.080   .     S
C193   C194    1.397   .     A
C193   C441    1.400   .     S
C194   H217    1.082   .     S
C194   C444    1.397   .     S
C195   C196    1.397   .     A
C195   H218    1.081   .     S
C195   C692    1.397   1_545 S
C196   H219    1.083   .     S
C197   C203    1.406   .     A
C197   C198    1.405   .     A
C198   H221    1.083   .     S
C198   C199    1.398   .     A
C199   C450    1.397   .     S
C199   H471    1.081   .     S
C200   C204    1.420   .     A
C200   C936    1.411   .     S
C200   C952    1.424   .     S
C201   H223    1.082   .     S
C201   C697    1.397   1_545 S
C201   C700    1.397   1_545 S
C202   C203    1.398   .     A
C202   C450    1.397   .     S
C202   H473    1.081   .     S
C203   H225    1.083   .     S
C204   C208    1.411   .     A
C205   C947    1.424   1_554 S
C205   C953    1.425   1_554 S
C206   C207    1.398   .     A
C206   C952    1.425   .     S
C206   C928    1.416   .     S
C207   H227    1.082   .     S
C207   C208    1.385   .     A
C208   H231    1.078   .     S
H215   C939    1.083   1_554 S
H220   C672    1.088   1_545 S
H222   C697    1.081   1_545 S
H224   C700    1.081   1_545 S
H226   C424    1.086   .     S
H230   C925    1.084   1_554 S
O233   Zn249   1.933   .     S
O233   Zn247   1.931   .     S
O233   Zn246   1.961   .     S
O233   Zn248   1.947   .     S
O234   Zn247   1.935   .     S
O235   Zn249   1.939   .     S
O236   Zn248   1.927   .     S
O237   Zn246   1.925   .     S
O238   Zn246   1.920   .     S
O239   Zn249   1.931   .     S
O240   Zn247   1.939   .     S
O241   Zn248   1.944   .     S
O242   Zn249   1.938   .     S
O243   Zn246   1.937   .     S
O244   Zn247   1.935   .     S
O245   Zn248   1.923   .     S
C250   O323    1.261   .     A
C250   C256    1.430   .     S
C250   O325    1.264   .     A
C251   C288    1.407   .     A
C251   C265    1.387   .     A
C251   H311    1.077   .     S
C252   H292    1.085   .     S
C252   C264    1.395   .     A
C252   C265    1.394   .     A
C253   O324    1.291   .     A
C253   C255    1.458   .     S
C253   O326    1.274   .     A
C254   C266    1.425   .     A
C254   C263    1.488   .     S
C254   C287    1.428   .     A
C255   C339    1.350   .     S
C255   H398    1.088   .     S
C256   C421    1.350   1_455 S
C256   C433    1.482   1_455 S
C257   C260    1.448   .     S
C257   C507    1.329   .     S
C257   H552    1.088   .     S
C258   C259    1.432   .     S
C259   O327    1.272   .     A
C259   O321    1.277   .     A
C260   O322    1.276   .     A
C260   O328    1.274   .     A
C261   C266    1.393   .     A
C261   C1019   1.383   .     S
C261   H1060   1.084   .     S
C262   O319    1.279   .     A
C262   O317    1.269   .     A
C262   C265    1.449   .     S
C263   O320    1.289   .     A
C263   O318    1.285   .     A
C264   C1021   1.477   1_554 S
C264   C1036   1.416   1_554 S
C266   C280    1.483   .     S
C267   C273    1.403   .     A
C267   C268    1.404   .     A
C267   C339    1.482   .     S
C268   C269    1.398   .     A
C268   H293    1.083   .     S
C269   H294    1.082   .     S
C269   C270    1.398   .     A
C270   C271    1.398   .     A
C270   H295    1.081   .     S
C271   H296    1.082   .     S
C271   C273    1.398   .     A
C272   H312    1.076   .     S
C272   C1008   1.383   1_554 S
C272   C1030   1.411   1_554 S
C273   H297    1.083   .     S
C274   C275    1.403   .     A
C274   C279    1.403   .     A
C274   C1011   1.477   .     S
C275   H1045   1.083   .     S
C276   H299    1.080   .     S
C276   C277    1.397   .     A
C276   C524    1.400   .     S
C277   H300    1.082   .     S
C277   C527    1.397   .     S
C278   C279    1.397   .     A
C278   H301    1.081   .     S
C279   H302    1.083   .     S
C280   C286    1.406   .     A
C280   C281    1.405   .     A
C281   H304    1.083   .     S
C281   C282    1.398   .     A
C282   C533    1.397   .     S
C282   H554    1.081   .     S
C283   C287    1.420   .     A
C283   C1019   1.411   .     S
C283   C1035   1.424   .     S
C284   H306    1.082   .     S
C285   C286    1.398   .     A
C285   C533    1.397   .     S
C285   H556    1.081   .     S
C286   H308    1.083   .     S
C287   C291    1.411   .     A
C288   C1030   1.424   1_554 S
C288   C1036   1.425   1_554 S
C289   C290    1.398   .     A
C289   C1035   1.425   .     S
C289   C1011   1.416   .     S
C290   H310    1.082   .     S
C290   C291    1.385   .     A
C291   H314    1.078   .     S
H298   C1022   1.083   1_554 S
H309   C507    1.086   .     S
H313   C1008   1.084   1_554 S
H315   C421    1.088   1_455 S
O316   Zn332   1.933   .     S
O316   Zn330   1.931   .     S
O316   Zn329   1.961   .     S
O316   Zn331   1.947   .     S
O317   Zn330   1.935   .     S
O318   Zn332   1.939   .     S
O319   Zn331   1.927   .     S
O320   Zn329   1.925   .     S
O321   Zn329   1.920   .     S
O322   Zn332   1.931   .     S
O323   Zn330   1.939   .     S
O324   Zn331   1.944   .     S
O325   Zn332   1.938   .     S
O326   Zn329   1.937   .     S
O327   Zn330   1.935   .     S
O328   Zn331   1.923   .     S
C333   O406    1.261   .     A
C333   C339    1.430   .     S
C333   O408    1.264   .     A
C334   C371    1.407   .     A
C334   C348    1.387   .     A
C334   H394    1.077   .     S
C335   H375    1.085   .     S
C335   C347    1.395   .     A
C335   C348    1.394   .     A
C336   O407    1.291   .     A
C336   C338    1.458   .     S
C336   O409    1.274   .     A
C337   C349    1.425   .     A
C337   C346    1.488   .     S
C337   C370    1.428   .     A
C338   C422    1.350   .     S
C338   H481    1.088   .     S
C340   C343    1.448   .     S
C340   C590    1.329   .     S
C340   H635    1.088   .     S
C341   C342    1.432   .     S
C342   O410    1.272   .     A
C342   O404    1.277   .     A
C343   O405    1.276   .     A
C343   O411    1.274   .     A
C344   C349    1.393   .     A
C344   C1102   1.383   .     S
C344   H1143   1.084   .     S
C345   O402    1.279   .     A
C345   O400    1.269   .     A
C345   C348    1.449   .     S
C346   O403    1.289   .     A
C346   O401    1.285   .     A
C347   C1104   1.477   1_554 S
C347   C1119   1.416   1_554 S
C349   C363    1.483   .     S
C350   C356    1.403   .     A
C350   C351    1.404   .     A
C350   C422    1.482   .     S
C351   C352    1.398   .     A
C351   H376    1.083   .     S
C352   H377    1.082   .     S
C352   C353    1.398   .     A
C353   C354    1.398   .     A
C353   H378    1.081   .     S
C354   H379    1.082   .     S
C354   C356    1.398   .     A
C355   H395    1.076   .     S
C355   C1091   1.383   1_554 S
C355   C1113   1.411   1_554 S
C356   H380    1.083   .     S
C357   C358    1.403   .     A
C357   C362    1.403   .     A
C357   C1094   1.477   .     S
C358   H1128   1.083   .     S
C359   H382    1.080   .     S
C359   C360    1.397   .     A
C359   C607    1.400   .     S
C360   H383    1.082   .     S
C360   C610    1.397   .     S
C361   C362    1.397   .     A
C361   H384    1.081   .     S
C362   H385    1.083   .     S
C363   C369    1.406   .     A
C363   C364    1.405   .     A
C364   H387    1.083   .     S
C364   C365    1.398   .     A
C365   C616    1.397   .     S
C365   H637    1.081   .     S
C366   C370    1.420   .     A
C366   C1102   1.411   .     S
C366   C1118   1.424   .     S
C367   H389    1.082   .     S
C368   C369    1.398   .     A
C368   C616    1.397   .     S
C368   H639    1.081   .     S
C369   H391    1.083   .     S
C370   C374    1.411   .     A
C371   C1113   1.424   1_554 S
C371   C1119   1.425   1_554 S
C372   C373    1.398   .     A
C372   C1118   1.425   .     S
C372   C1094   1.416   .     S
C373   H393    1.082   .     S
C373   C374    1.385   .     A
C374   H397    1.078   .     S
H381   C1105   1.083   1_554 S
H392   C590    1.086   .     S
H396   C1091   1.084   1_554 S
O399   Zn415   1.933   .     S
O399   Zn413   1.931   .     S
O399   Zn412   1.961   .     S
O399   Zn414   1.947   .     S
O400   Zn413   1.935   .     S
O401   Zn415   1.939   .     S
O402   Zn414   1.927   .     S
O403   Zn412   1.925   .     S
O404   Zn412   1.920   .     S
O405   Zn415   1.931   .     S
O406   Zn413   1.939   .     S
O407   Zn414   1.944   .     S
O408   Zn415   1.938   .     S
O409   Zn412   1.937   .     S
O410   Zn413   1.935   .     S
O411   Zn414   1.923   .     S
C416   O489    1.261   .     A
C416   C422    1.430   .     S
C416   O491    1.264   .     A
C417   C454    1.407   .     A
C417   C431    1.387   .     A
C417   H477    1.077   .     S
C418   H458    1.085   .     S
C418   C430    1.395   .     A
C418   C431    1.394   .     A
C419   O490    1.291   .     A
C419   C421    1.458   .     S
C419   O492    1.274   .     A
C420   C432    1.425   .     A
C420   C429    1.488   .     S
C420   C453    1.428   .     A
C421   C256    1.350   1_655 S
C421   H315    1.088   1_655 S
C423   C426    1.448   .     S
C423   C673    1.329   .     S
C423   H718    1.088   .     S
C424   C425    1.432   .     S
C425   O493    1.272   .     A
C425   O487    1.277   .     A
C426   O488    1.276   .     A
C426   O494    1.274   .     A
C427   C432    1.393   .     A
C427   C1185   1.383   .     S
C427   H1226   1.084   .     S
C428   O485    1.279   .     A
C428   O483    1.269   .     A
C428   C431    1.449   .     S
C429   O486    1.289   .     A
C429   O484    1.285   .     A
C430   C1187   1.477   1_554 S
C430   C1202   1.416   1_554 S
C432   C446    1.483   .     S
C433   C439    1.403   .     A
C433   C434    1.404   .     A
C433   C256    1.482   1_655 S
C434   C435    1.398   .     A
C434   H459    1.083   .     S
C435   H460    1.082   .     S
C435   C436    1.398   .     A
C436   C437    1.398   .     A
C436   H461    1.081   .     S
C437   H462    1.082   .     S
C437   C439    1.398   .     A
C438   H478    1.076   .     S
C438   C1174   1.383   1_554 S
C438   C1196   1.411   1_554 S
C439   H463    1.083   .     S
C440   C441    1.403   .     A
C440   C445    1.403   .     A
C440   C1177   1.477   .     S
C441   H1211   1.083   .     S
C442   H465    1.080   .     S
C442   C443    1.397   .     A
C442   C690    1.400   .     S
C443   H466    1.082   .     S
C443   C693    1.397   .     S
C444   C445    1.397   .     A
C444   H467    1.081   .     S
C445   H468    1.083   .     S
C446   C452    1.406   .     A
C446   C447    1.405   .     A
C447   H470    1.083   .     S
C447   C448    1.398   .     A
C448   C699    1.397   .     S
C448   H720    1.081   .     S
C449   C453    1.420   .     A
C449   C1185   1.411   .     S
C449   C1201   1.424   .     S
C450   H472    1.082   .     S
C451   C452    1.398   .     A
C451   C699    1.397   .     S
C451   H722    1.081   .     S
C452   H474    1.083   .     S
C453   C457    1.411   .     A
C454   C1196   1.424   1_554 S
C454   C1202   1.425   1_554 S
C455   C456    1.398   .     A
C455   C1201   1.425   .     S
C455   C1177   1.416   .     S
C456   H476    1.082   .     S
C456   C457    1.385   .     A
C457   H480    1.078   .     S
H464   C1188   1.083   1_554 S
H475   C673    1.086   .     S
H479   C1174   1.084   1_554 S
O482   Zn498   1.933   .     S
O482   Zn496   1.931   .     S
O482   Zn495   1.961   .     S
O482   Zn497   1.947   .     S
O483   Zn496   1.935   .     S
O484   Zn498   1.939   .     S
O485   Zn497   1.927   .     S
O486   Zn495   1.925   .     S
O487   Zn495   1.920   .     S
O488   Zn498   1.931   .     S
O489   Zn496   1.939   .     S
O490   Zn497   1.944   .     S
O491   Zn498   1.938   .     S
O492   Zn495   1.937   .     S
O493   Zn496   1.935   .     S
O494   Zn497   1.923   .     S
C499   O572    1.261   .     A
C499   C505    1.430   .     S
C499   O574    1.264   .     A
C500   C537    1.407   .     A
C500   C514    1.387   .     A
C500   H560    1.077   .     S
C501   H541    1.085   .     S
C501   C513    1.395   .     A
C501   C514    1.394   .     A
C502   O573    1.291   .     A
C502   C504    1.458   .     S
C502   O575    1.274   .     A
C503   C515    1.425   .     A
C503   C512    1.488   .     S
C503   C536    1.428   .     A
C504   C588    1.350   .     S
C504   H647    1.088   .     S
C505   C670    1.350   1_455 S
C505   C682    1.482   1_455 S
C506   C509    1.448   .     S
C506   C9      1.329   1_565 S
C506   H54     1.088   1_565 S
C507   C508    1.432   .     S
C508   O576    1.272   .     A
C508   O570    1.277   .     A
C509   O571    1.276   .     A
C509   O577    1.274   .     A
C510   C515    1.393   .     A
C510   C1268   1.383   .     S
C510   H1309   1.084   .     S
C511   O568    1.279   .     A
C511   O566    1.269   .     A
C511   C514    1.449   .     S
C512   O569    1.289   .     A
C512   O567    1.285   .     A
C513   C1270   1.477   1_554 S
C513   C1285   1.416   1_554 S
C515   C529    1.483   .     S
C516   C522    1.403   .     A
C516   C517    1.404   .     A
C516   C588    1.482   .     S
C517   C518    1.398   .     A
C517   H542    1.083   .     S
C518   H543    1.082   .     S
C518   C519    1.398   .     A
C519   C520    1.398   .     A
C519   H544    1.081   .     S
C520   H545    1.082   .     S
C520   C522    1.398   .     A
C521   H561    1.076   .     S
C521   C1257   1.383   1_554 S
C521   C1279   1.411   1_554 S
C522   H546    1.083   .     S
C523   C524    1.403   .     A
C523   C528    1.403   .     A
C523   C1260   1.477   .     S
C524   H1294   1.083   .     S
C525   H548    1.080   .     S
C525   C526    1.397   .     A
C525   C26     1.400   1_565 S
C526   H549    1.082   .     S
C526   C29     1.397   1_565 S
C527   C528    1.397   .     A
C527   H550    1.081   .     S
C528   H551    1.083   .     S
C529   C535    1.406   .     A
C529   C530    1.405   .     A
C530   H553    1.083   .     S
C530   C531    1.398   .     A
C531   C35     1.397   1_565 S
C531   H56     1.081   1_565 S
C532   C536    1.420   .     A
C532   C1268   1.411   .     S
C532   C1284   1.424   .     S
C533   H555    1.082   .     S
C534   C535    1.398   .     A
C534   C35     1.397   1_565 S
C534   H58     1.081   1_565 S
C535   H557    1.083   .     S
C536   C540    1.411   .     A
C537   C1279   1.424   1_554 S
C537   C1285   1.425   1_554 S
C538   C539    1.398   .     A
C538   C1284   1.425   .     S
C538   C1260   1.416   .     S
C539   H559    1.082   .     S
C539   C540    1.385   .     A
C540   H563    1.078   .     S
H547   C1271   1.083   1_554 S
H558   C9      1.086   1_565 S
H562   C1257   1.084   1_554 S
H564   C670    1.088   1_455 S
O565   Zn581   1.933   .     S
O565   Zn579   1.931   .     S
O565   Zn578   1.961   .     S
O565   Zn580   1.947   .     S
O566   Zn579   1.935   .     S
O567   Zn581   1.939   .     S
O568   Zn580   1.927   .     S
O569   Zn578   1.925   .     S
O570   Zn578   1.920   .     S
O571   Zn581   1.931   .     S
O572   Zn579   1.939   .     S
O573   Zn580   1.944   .     S
O574   Zn581   1.938   .     S
O575   Zn578   1.937   .     S
O576   Zn579   1.935   .     S
O577   Zn580   1.923   .     S
C582   O655    1.261   .     A
C582   C588    1.430   .     S
C582   O657    1.264   .     A
C583   C620    1.407   .     A
C583   C597    1.387   .     A
C583   H643    1.077   .     S
C584   H624    1.085   .     S
C584   C596    1.395   .     A
C584   C597    1.394   .     A
C585   O656    1.291   .     A
C585   C587    1.458   .     S
C585   O658    1.274   .     A
C586   C598    1.425   .     A
C586   C595    1.488   .     S
C586   C619    1.428   .     A
C587   C671    1.350   .     S
C587   H730    1.088   .     S
C589   C592    1.448   .     S
C589   C92     1.329   1_565 S
C589   H137    1.088   1_565 S
C590   C591    1.432   .     S
C591   O659    1.272   .     A
C591   O653    1.277   .     A
C592   O654    1.276   .     A
C592   O660    1.274   .     A
C593   C598    1.393   .     A
C593   C1351   1.383   .     S
C593   H1392   1.084   .     S
C594   O651    1.279   .     A
C594   O649    1.269   .     A
C594   C597    1.449   .     S
C595   O652    1.289   .     A
C595   O650    1.285   .     A
C596   C1353   1.477   1_554 S
C596   C1368   1.416   1_554 S
C598   C612    1.483   .     S
C599   C605    1.403   .     A
C599   C600    1.404   .     A
C599   C671    1.482   .     S
C600   C601    1.398   .     A
C600   H625    1.083   .     S
C601   H626    1.082   .     S
C601   C602    1.398   .     A
C602   C603    1.398   .     A
C602   H627    1.081   .     S
C603   H628    1.082   .     S
C603   C605    1.398   .     A
C604   H644    1.076   .     S
C604   C1340   1.383   1_554 S
C604   C1362   1.411   1_554 S
C605   H629    1.083   .     S
C606   C607    1.403   .     A
C606   C611    1.403   .     A
C606   C1343   1.477   .     S
C607   H1377   1.083   .     S
C608   H631    1.080   .     S
C608   C609    1.397   .     A
C608   C109    1.400   1_565 S
C609   H632    1.082   .     S
C609   C112    1.397   1_565 S
C610   C611    1.397   .     A
C610   H633    1.081   .     S
C611   H634    1.083   .     S
C612   C618    1.406   .     A
C612   C613    1.405   .     A
C613   H636    1.083   .     S
C613   C614    1.398   .     A
C614   C118    1.397   1_565 S
C614   H139    1.081   1_565 S
C615   C619    1.420   .     A
C615   C1351   1.411   .     S
C615   C1367   1.424   .     S
C616   H638    1.082   .     S
C617   C618    1.398   .     A
C617   C118    1.397   1_565 S
C617   H141    1.081   1_565 S
C618   H640    1.083   .     S
C619   C623    1.411   .     A
C620   C1362   1.424   1_554 S
C620   C1368   1.425   1_554 S
C621   C622    1.398   .     A
C621   C1367   1.425   .     S
C621   C1343   1.416   .     S
C622   H642    1.082   .     S
C622   C623    1.385   .     A
C623   H646    1.078   .     S
H630   C1354   1.083   1_554 S
H641   C92     1.086   1_565 S
H645   C1340   1.084   1_554 S
O648   Zn664   1.933   .     S
O648   Zn662   1.931   .     S
O648   Zn661   1.961   .     S
O648   Zn663   1.947   .     S
O649   Zn662   1.935   .     S
O650   Zn664   1.939   .     S
O651   Zn663   1.927   .     S
O652   Zn661   1.925   .     S
O653   Zn661   1.920   .     S
O654   Zn664   1.931   .     S
O655   Zn662   1.939   .     S
O656   Zn663   1.944   .     S
O657   Zn664   1.938   .     S
O658   Zn661   1.937   .     S
O659   Zn662   1.935   .     S
O660   Zn663   1.923   .     S
C665   O738    1.261   .     A
C665   C671    1.430   .     S
C665   O740    1.264   .     A
C666   C703    1.407   .     A
C666   C680    1.387   .     A
C666   H726    1.077   .     S
C667   H707    1.085   .     S
C667   C679    1.395   .     A
C667   C680    1.394   .     A
C668   O739    1.291   .     A
C668   C670    1.458   .     S
C668   O741    1.274   .     A
C669   C681    1.425   .     A
C669   C678    1.488   .     S
C669   C702    1.428   .     A
C670   C505    1.350   1_655 S
C670   H564    1.088   1_655 S
C672   C675    1.448   .     S
C672   C175    1.329   1_565 S
C672   H220    1.088   1_565 S
C673   C674    1.432   .     S
C674   O742    1.272   .     A
C674   O736    1.277   .     A
C675   O737    1.276   .     A
C675   O743    1.274   .     A
C676   C681    1.393   .     A
C676   C1434   1.383   .     S
C676   H1475   1.084   .     S
C677   O734    1.279   .     A
C677   O732    1.269   .     A
C677   C680    1.449   .     S
C678   O735    1.289   .     A
C678   O733    1.285   .     A
C679   C1436   1.477   1_554 S
C679   C1451   1.416   1_554 S
C681   C695    1.483   .     S
C682   C688    1.403   .     A
C682   C683    1.404   .     A
C682   C505    1.482   1_655 S
C683   C684    1.398   .     A
C683   H708    1.083   .     S
C684   H709    1.082   .     S
C684   C685    1.398   .     A
C685   C686    1.398   .     A
C685   H710    1.081   .     S
C686   H711    1.082   .     S
C686   C688    1.398   .     A
C687   H727    1.076   .     S
C687   C1423   1.383   1_554 S
C687   C1445   1.411   1_554 S
C688   H712    1.083   .     S
C689   C690    1.403   .     A
C689   C694    1.403   .     A
C689   C1426   1.477   .     S
C690   H1460   1.083   .     S
C691   H714    1.080   .     S
C691   C692    1.397   .     A
C691   C192    1.400   1_565 S
C692   H715    1.082   .     S
C692   C195    1.397   1_565 S
C693   C694    1.397   .     A
C693   H716    1.081   .     S
C694   H717    1.083   .     S
C695   C701    1.406   .     A
C695   C696    1.405   .     A
C696   H719    1.083   .     S
C696   C697    1.398   .     A
C697   C201    1.397   1_565 S
C697   H222    1.081   1_565 S
C698   C702    1.420   .     A
C698   C1434   1.411   .     S
C698   C1450   1.424   .     S
C699   H721    1.082   .     S
C700   C701    1.398   .     A
C700   C201    1.397   1_565 S
C700   H224    1.081   1_565 S
C701   H723    1.083   .     S
C702   C706    1.411   .     A
C703   C1445   1.424   1_554 S
C703   C1451   1.425   1_554 S
C704   C705    1.398   .     A
C704   C1450   1.425   .     S
C704   C1426   1.416   .     S
C705   H725    1.082   .     S
C705   C706    1.385   .     A
C706   H729    1.078   .     S
H713   C1437   1.083   1_554 S
H724   C175    1.086   1_565 S
H728   C1423   1.084   1_554 S
O731   Zn747   1.933   .     S
O731   Zn745   1.931   .     S
O731   Zn744   1.961   .     S
O731   Zn746   1.947   .     S
O732   Zn745   1.935   .     S
O733   Zn747   1.939   .     S
O734   Zn746   1.927   .     S
O735   Zn744   1.925   .     S
O736   Zn744   1.920   .     S
O737   Zn747   1.931   .     S
O738   Zn745   1.939   .     S
O739   Zn746   1.944   .     S
O740   Zn747   1.938   .     S
O741   Zn744   1.937   .     S
O742   Zn745   1.935   .     S
O743   Zn746   1.923   .     S
C748   O821    1.261   .     A
C748   C754    1.430   .     S
C748   O823    1.264   .     A
C749   C786    1.407   .     A
C749   C763    1.387   .     A
C749   H809    1.077   .     S
C750   H790    1.085   .     S
C750   C762    1.395   .     A
C750   C763    1.394   .     A
C751   O822    1.291   .     A
C751   C753    1.458   .     S
C751   O824    1.274   .     A
C752   C764    1.425   .     A
C752   C761    1.488   .     S
C752   C785    1.428   .     A
C753   C837    1.350   .     S
C753   H896    1.088   .     S
C754   C919    1.350   1_455 S
C754   C931    1.482   1_455 S
C755   C758    1.448   .     S
C755   C1005   1.329   .     S
C755   H1050   1.088   .     S
C756   C757    1.432   .     S
C756   C1253   1.329   1_545 S
C756   H1305   1.086   1_545 S
C757   O825    1.272   .     A
C757   O819    1.277   .     A
C758   O820    1.276   .     A
C758   O826    1.274   .     A
C759   C764    1.393   .     A
C759   C23     1.383   1_556 S
C759   H64     1.084   1_556 S
C760   O817    1.279   .     A
C760   O815    1.269   .     A
C760   C763    1.449   .     S
C761   O818    1.289   .     A
C761   O816    1.285   .     A
C764   C778    1.483   .     S
C765   C771    1.403   .     A
C765   C766    1.404   .     A
C765   C837    1.482   .     S
C766   C767    1.398   .     A
C766   H791    1.083   .     S
C767   H792    1.082   .     S
C767   C768    1.398   .     A
C768   C769    1.398   .     A
C768   H793    1.081   .     S
C769   H794    1.082   .     S
C769   C771    1.398   .     A
C770   H810    1.076   .     S
C771   H795    1.083   .     S
C772   C773    1.403   .     A
C772   C777    1.403   .     A
C772   C15     1.477   1_556 S
C773   C1272   1.400   1_545 S
C773   H49     1.083   1_556 S
C774   H797    1.080   .     S
C774   C775    1.397   .     A
C774   C1022   1.400   .     S
C775   H798    1.082   .     S
C775   C1025   1.397   .     S
C776   C777    1.397   .     A
C776   H799    1.081   .     S
C776   C1273   1.397   1_545 S
C777   H800    1.083   .     S
C778   C784    1.406   .     A
C778   C779    1.405   .     A
C779   H802    1.083   .     S
C779   C780    1.398   .     A
C780   C1031   1.397   .     S
C780   H1052   1.081   .     S
C781   C785    1.420   .     A
C781   C23     1.411   1_556 S
C781   C39     1.424   1_556 S
C782   H804    1.082   .     S
C782   C1278   1.397   1_545 S
C782   C1281   1.397   1_545 S
C783   C784    1.398   .     A
C783   C1031   1.397   .     S
C783   H1054   1.081   .     S
C784   H806    1.083   .     S
C785   C789    1.411   .     A
C787   C788    1.398   .     A
C787   C39     1.425   1_556 S
C787   C15     1.416   1_556 S
C788   H808    1.082   .     S
C788   C789    1.385   .     A
C789   H812    1.078   .     S
H801   C1253   1.088   1_545 S
H803   C1278   1.081   1_545 S
H805   C1281   1.081   1_545 S
H807   C1005   1.086   .     S
H813   C919    1.088   1_455 S
O814   Zn830   1.933   .     S
O814   Zn828   1.931   .     S
O814   Zn827   1.961   .     S
O814   Zn829   1.947   .     S
O815   Zn828   1.935   .     S
O816   Zn830   1.939   .     S
O817   Zn829   1.927   .     S
O818   Zn827   1.925   .     S
O819   Zn827   1.920   .     S
O820   Zn830   1.931   .     S
O821   Zn828   1.939   .     S
O822   Zn829   1.944   .     S
O823   Zn830   1.938   .     S
O824   Zn827   1.937   .     S
O825   Zn828   1.935   .     S
O826   Zn829   1.923   .     S
C831   O904    1.261   .     A
C831   C837    1.430   .     S
C831   O906    1.264   .     A
C832   C869    1.407   .     A
C832   C846    1.387   .     A
C832   H892    1.077   .     S
C833   H873    1.085   .     S
C833   C845    1.395   .     A
C833   C846    1.394   .     A
C834   O905    1.291   .     A
C834   C836    1.458   .     S
C834   O907    1.274   .     A
C835   C847    1.425   .     A
C835   C844    1.488   .     S
C835   C868    1.428   .     A
C836   C920    1.350   .     S
C836   H979    1.088   .     S
C838   C841    1.448   .     S
C838   C1088   1.329   .     S
C838   H1133   1.088   .     S
C839   C840    1.432   .     S
C839   C1336   1.329   1_545 S
C839   H1388   1.086   1_545 S
C840   O908    1.272   .     A
C840   O902    1.277   .     A
C841   O903    1.276   .     A
C841   O909    1.274   .     A
C842   C847    1.393   .     A
C842   C106    1.383   1_556 S
C842   H147    1.084   1_556 S
C843   O900    1.279   .     A
C843   O898    1.269   .     A
C843   C846    1.449   .     S
C844   O901    1.289   .     A
C844   O899    1.285   .     A
C847   C861    1.483   .     S
C848   C854    1.403   .     A
C848   C849    1.404   .     A
C848   C920    1.482   .     S
C849   C850    1.398   .     A
C849   H874    1.083   .     S
C850   H875    1.082   .     S
C850   C851    1.398   .     A
C851   C852    1.398   .     A
C851   H876    1.081   .     S
C852   H877    1.082   .     S
C852   C854    1.398   .     A
C853   H893    1.076   .     S
C854   H878    1.083   .     S
C855   C856    1.403   .     A
C855   C860    1.403   .     A
C855   C98     1.477   1_556 S
C856   C1355   1.400   1_545 S
C856   H132    1.083   1_556 S
C857   H880    1.080   .     S
C857   C858    1.397   .     A
C857   C1105   1.400   .     S
C858   H881    1.082   .     S
C858   C1108   1.397   .     S
C859   C860    1.397   .     A
C859   H882    1.081   .     S
C859   C1356   1.397   1_545 S
C860   H883    1.083   .     S
C861   C867    1.406   .     A
C861   C862    1.405   .     A
C862   H885    1.083   .     S
C862   C863    1.398   .     A
C863   C1114   1.397   .     S
C863   H1135   1.081   .     S
C864   C868    1.420   .     A
C864   C106    1.411   1_556 S
C864   C122    1.424   1_556 S
C865   H887    1.082   .     S
C865   C1361   1.397   1_545 S
C865   C1364   1.397   1_545 S
C866   C867    1.398   .     A
C866   C1114   1.397   .     S
C866   H1137   1.081   .     S
C867   H889    1.083   .     S
C868   C872    1.411   .     A
C870   C871    1.398   .     A
C870   C122    1.425   1_556 S
C870   C98     1.416   1_556 S
C871   H891    1.082   .     S
C871   C872    1.385   .     A
C872   H895    1.078   .     S
H884   C1336   1.088   1_545 S
H886   C1361   1.081   1_545 S
H888   C1364   1.081   1_545 S
H890   C1088   1.086   .     S
O897   Zn913   1.933   .     S
O897   Zn911   1.931   .     S
O897   Zn910   1.961   .     S
O897   Zn912   1.947   .     S
O898   Zn911   1.935   .     S
O899   Zn913   1.939   .     S
O900   Zn912   1.927   .     S
O901   Zn910   1.925   .     S
O902   Zn910   1.920   .     S
O903   Zn913   1.931   .     S
O904   Zn911   1.939   .     S
O905   Zn912   1.944   .     S
O906   Zn913   1.938   .     S
O907   Zn910   1.937   .     S
O908   Zn911   1.935   .     S
O909   Zn912   1.923   .     S
C914   O987    1.261   .     A
C914   C920    1.430   .     S
C914   O989    1.264   .     A
C915   C952    1.407   .     A
C915   C929    1.387   .     A
C915   H975    1.077   .     S
C916   H956    1.085   .     S
C916   C928    1.395   .     A
C916   C929    1.394   .     A
C917   O988    1.291   .     A
C917   C919    1.458   .     S
C917   O990    1.274   .     A
C918   C930    1.425   .     A
C918   C927    1.488   .     S
C918   C951    1.428   .     A
C919   C754    1.350   1_655 S
C919   H813    1.088   1_655 S
C921   C924    1.448   .     S
C921   C1171   1.329   .     S
C921   H1216   1.088   .     S
C922   C923    1.432   .     S
C922   C1419   1.329   1_545 S
C922   H1471   1.086   1_545 S
C923   O991    1.272   .     A
C923   O985    1.277   .     A
C924   O986    1.276   .     A
C924   O992    1.274   .     A
C925   C930    1.393   .     A
C925   C189    1.383   1_556 S
C925   H230    1.084   1_556 S
C926   O983    1.279   .     A
C926   O981    1.269   .     A
C926   C929    1.449   .     S
C927   O984    1.289   .     A
C927   O982    1.285   .     A
C930   C944    1.483   .     S
C931   C937    1.403   .     A
C931   C932    1.404   .     A
C931   C754    1.482   1_655 S
C932   C933    1.398   .     A
C932   H957    1.083   .     S
C933   H958    1.082   .     S
C933   C934    1.398   .     A
C934   C935    1.398   .     A
C934   H959    1.081   .     S
C935   H960    1.082   .     S
C935   C937    1.398   .     A
C936   H976    1.076   .     S
C937   H961    1.083   .     S
C938   C939    1.403   .     A
C938   C943    1.403   .     A
C938   C181    1.477   1_556 S
C939   C1438   1.400   1_545 S
C939   H215    1.083   1_556 S
C940   H963    1.080   .     S
C940   C941    1.397   .     A
C940   C1188   1.400   .     S
C941   H964    1.082   .     S
C941   C1191   1.397   .     S
C942   C943    1.397   .     A
C942   H965    1.081   .     S
C942   C1439   1.397   1_545 S
C943   H966    1.083   .     S
C944   C950    1.406   .     A
C944   C945    1.405   .     A
C945   H968    1.083   .     S
C945   C946    1.398   .     A
C946   C1197   1.397   .     S
C946   H1218   1.081   .     S
C947   C951    1.420   .     A
C947   C189    1.411   1_556 S
C947   C205    1.424   1_556 S
C948   H970    1.082   .     S
C948   C1444   1.397   1_545 S
C948   C1447   1.397   1_545 S
C949   C950    1.398   .     A
C949   C1197   1.397   .     S
C949   H1220   1.081   .     S
C950   H972    1.083   .     S
C951   C955    1.411   .     A
C953   C954    1.398   .     A
C953   C205    1.425   1_556 S
C953   C181    1.416   1_556 S
C954   H974    1.082   .     S
C954   C955    1.385   .     A
C955   H978    1.078   .     S
H967   C1419   1.088   1_545 S
H969   C1444   1.081   1_545 S
H971   C1447   1.081   1_545 S
H973   C1171   1.086   .     S
O980   Zn996   1.933   .     S
O980   Zn994   1.931   .     S
O980   Zn993   1.961   .     S
O980   Zn995   1.947   .     S
O981   Zn994   1.935   .     S
O982   Zn996   1.939   .     S
O983   Zn995   1.927   .     S
O984   Zn993   1.925   .     S
O985   Zn993   1.920   .     S
O986   Zn996   1.931   .     S
O987   Zn994   1.939   .     S
O988   Zn995   1.944   .     S
O989   Zn996   1.938   .     S
O990   Zn993   1.937   .     S
O991   Zn994   1.935   .     S
O992   Zn995   1.923   .     S
C997   O1070   1.261   .     A
C997   C1003   1.430   .     S
C997   O1072   1.264   .     A
C998   C1035   1.407   .     A
C998   C1012   1.387   .     A
C998   H1058   1.077   .     S
C999   H1039   1.085   .     S
C999   C1011   1.395   .     A
C999   C1012   1.394   .     A
C1000  O1071   1.291   .     A
C1000  C1002   1.458   .     S
C1000  O1073   1.274   .     A
C1001  C1013   1.425   .     A
C1001  C1010   1.488   .     S
C1001  C1034   1.428   .     A
C1002  C1086   1.350   .     S
C1002  H1145   1.088   .     S
C1003  C1168   1.350   1_455 S
C1003  C1180   1.482   1_455 S
C1004  C1007   1.448   .     S
C1004  C1254   1.329   .     S
C1004  H1299   1.088   .     S
C1005  C1006   1.432   .     S
C1006  O1074   1.272   .     A
C1006  O1068   1.277   .     A
C1007  O1069   1.276   .     A
C1007  O1075   1.274   .     A
C1008  C1013   1.393   .     A
C1008  C272    1.383   1_556 S
C1008  H313    1.084   1_556 S
C1009  O1066   1.279   .     A
C1009  O1064   1.269   .     A
C1009  C1012   1.449   .     S
C1010  O1067   1.289   .     A
C1010  O1065   1.285   .     A
C1013  C1027   1.483   .     S
C1014  C1020   1.403   .     A
C1014  C1015   1.404   .     A
C1014  C1086   1.482   .     S
C1015  C1016   1.398   .     A
C1015  H1040   1.083   .     S
C1016  H1041   1.082   .     S
C1016  C1017   1.398   .     A
C1017  C1018   1.398   .     A
C1017  H1042   1.081   .     S
C1018  H1043   1.082   .     S
C1018  C1020   1.398   .     A
C1019  H1059   1.076   .     S
C1020  H1044   1.083   .     S
C1021  C1022   1.403   .     A
C1021  C1026   1.403   .     A
C1021  C264    1.477   1_556 S
C1022  H298    1.083   1_556 S
C1023  H1046   1.080   .     S
C1023  C1024   1.397   .     A
C1023  C1271   1.400   .     S
C1024  H1047   1.082   .     S
C1024  C1274   1.397   .     S
C1025  C1026   1.397   .     A
C1025  H1048   1.081   .     S
C1026  H1049   1.083   .     S
C1027  C1033   1.406   .     A
C1027  C1028   1.405   .     A
C1028  H1051   1.083   .     S
C1028  C1029   1.398   .     A
C1029  C1280   1.397   .     S
C1029  H1301   1.081   .     S
C1030  C1034   1.420   .     A
C1030  C272    1.411   1_556 S
C1030  C288    1.424   1_556 S
C1031  H1053   1.082   .     S
C1032  C1033   1.398   .     A
C1032  C1280   1.397   .     S
C1032  H1303   1.081   .     S
C1033  H1055   1.083   .     S
C1034  C1038   1.411   .     A
C1036  C1037   1.398   .     A
C1036  C288    1.425   1_556 S
C1036  C264    1.416   1_556 S
C1037  H1057   1.082   .     S
C1037  C1038   1.385   .     A
C1038  H1061   1.078   .     S
H1056  C1254   1.086   .     S
H1062  C1168   1.088   1_455 S
O1063  Zn1079  1.933   .     S
O1063  Zn1077  1.931   .     S
O1063  Zn1076  1.961   .     S
O1063  Zn1078  1.947   .     S
O1064  Zn1077  1.935   .     S
O1065  Zn1079  1.939   .     S
O1066  Zn1078  1.927   .     S
O1067  Zn1076  1.925   .     S
O1068  Zn1076  1.920   .     S
O1069  Zn1079  1.931   .     S
O1070  Zn1077  1.939   .     S
O1071  Zn1078  1.944   .     S
O1072  Zn1079  1.938   .     S
O1073  Zn1076  1.937   .     S
O1074  Zn1077  1.935   .     S
O1075  Zn1078  1.923   .     S
C1080  O1153   1.261   .     A
C1080  C1086   1.430   .     S
C1080  O1155   1.264   .     A
C1081  C1118   1.407   .     A
C1081  C1095   1.387   .     A
C1081  H1141   1.077   .     S
C1082  H1122   1.085   .     S
C1082  C1094   1.395   .     A
C1082  C1095   1.394   .     A
C1083  O1154   1.291   .     A
C1083  C1085   1.458   .     S
C1083  O1156   1.274   .     A
C1084  C1096   1.425   .     A
C1084  C1093   1.488   .     S
C1084  C1117   1.428   .     A
C1085  C1169   1.350   .     S
C1085  H1228   1.088   .     S
C1087  C1090   1.448   .     S
C1087  C1337   1.329   .     S
C1087  H1382   1.088   .     S
C1088  C1089   1.432   .     S
C1089  O1157   1.272   .     A
C1089  O1151   1.277   .     A
C1090  O1152   1.276   .     A
C1090  O1158   1.274   .     A
C1091  C1096   1.393   .     A
C1091  C355    1.383   1_556 S
C1091  H396    1.084   1_556 S
C1092  O1149   1.279   .     A
C1092  O1147   1.269   .     A
C1092  C1095   1.449   .     S
C1093  O1150   1.289   .     A
C1093  O1148   1.285   .     A
C1096  C1110   1.483   .     S
C1097  C1103   1.403   .     A
C1097  C1098   1.404   .     A
C1097  C1169   1.482   .     S
C1098  C1099   1.398   .     A
C1098  H1123   1.083   .     S
C1099  H1124   1.082   .     S
C1099  C1100   1.398   .     A
C1100  C1101   1.398   .     A
C1100  H1125   1.081   .     S
C1101  H1126   1.082   .     S
C1101  C1103   1.398   .     A
C1102  H1142   1.076   .     S
C1103  H1127   1.083   .     S
C1104  C1105   1.403   .     A
C1104  C1109   1.403   .     A
C1104  C347    1.477   1_556 S
C1105  H381    1.083   1_556 S
C1106  H1129   1.080   .     S
C1106  C1107   1.397   .     A
C1106  C1354   1.400   .     S
C1107  H1130   1.082   .     S
C1107  C1357   1.397   .     S
C1108  C1109   1.397   .     A
C1108  H1131   1.081   .     S
C1109  H1132   1.083   .     S
C1110  C1116   1.406   .     A
C1110  C1111   1.405   .     A
C1111  H1134   1.083   .     S
C1111  C1112   1.398   .     A
C1112  C1363   1.397   .     S
C1112  H1384   1.081   .     S
C1113  C1117   1.420   .     A
C1113  C355    1.411   1_556 S
C1113  C371    1.424   1_556 S
C1114  H1136   1.082   .     S
C1115  C1116   1.398   .     A
C1115  C1363   1.397   .     S
C1115  H1386   1.081   .     S
C1116  H1138   1.083   .     S
C1117  C1121   1.411   .     A
C1119  C1120   1.398   .     A
C1119  C371    1.425   1_556 S
C1119  C347    1.416   1_556 S
C1120  H1140   1.082   .     S
C1120  C1121   1.385   .     A
C1121  H1144   1.078   .     S
H1139  C1337   1.086   .     S
O1146  Zn1162  1.933   .     S
O1146  Zn1160  1.931   .     S
O1146  Zn1159  1.961   .     S
O1146  Zn1161  1.947   .     S
O1147  Zn1160  1.935   .     S
O1148  Zn1162  1.939   .     S
O1149  Zn1161  1.927   .     S
O1150  Zn1159  1.925   .     S
O1151  Zn1159  1.920   .     S
O1152  Zn1162  1.931   .     S
O1153  Zn1160  1.939   .     S
O1154  Zn1161  1.944   .     S
O1155  Zn1162  1.938   .     S
O1156  Zn1159  1.937   .     S
O1157  Zn1160  1.935   .     S
O1158  Zn1161  1.923   .     S
C1163  O1236   1.261   .     A
C1163  C1169   1.430   .     S
C1163  O1238   1.264   .     A
C1164  C1201   1.407   .     A
C1164  C1178   1.387   .     A
C1164  H1224   1.077   .     S
C1165  H1205   1.085   .     S
C1165  C1177   1.395   .     A
C1165  C1178   1.394   .     A
C1166  O1237   1.291   .     A
C1166  C1168   1.458   .     S
C1166  O1239   1.274   .     A
C1167  C1179   1.425   .     A
C1167  C1176   1.488   .     S
C1167  C1200   1.428   .     A
C1168  C1003   1.350   1_655 S
C1168  H1062   1.088   1_655 S
C1170  C1173   1.448   .     S
C1170  C1420   1.329   .     S
C1170  H1465   1.088   .     S
C1171  C1172   1.432   .     S
C1172  O1240   1.272   .     A
C1172  O1234   1.277   .     A
C1173  O1235   1.276   .     A
C1173  O1241   1.274   .     A
C1174  C1179   1.393   .     A
C1174  C438    1.383   1_556 S
C1174  H479    1.084   1_556 S
C1175  O1232   1.279   .     A
C1175  O1230   1.269   .     A
C1175  C1178   1.449   .     S
C1176  O1233   1.289   .     A
C1176  O1231   1.285   .     A
C1179  C1193   1.483   .     S
C1180  C1186   1.403   .     A
C1180  C1181   1.404   .     A
C1180  C1003   1.482   1_655 S
C1181  C1182   1.398   .     A
C1181  H1206   1.083   .     S
C1182  H1207   1.082   .     S
C1182  C1183   1.398   .     A
C1183  C1184   1.398   .     A
C1183  H1208   1.081   .     S
C1184  H1209   1.082   .     S
C1184  C1186   1.398   .     A
C1185  H1225   1.076   .     S
C1186  H1210   1.083   .     S
C1187  C1188   1.403   .     A
C1187  C1192   1.403   .     A
C1187  C430    1.477   1_556 S
C1188  H464    1.083   1_556 S
C1189  H1212   1.080   .     S
C1189  C1190   1.397   .     A
C1189  C1437   1.400   .     S
C1190  H1213   1.082   .     S
C1190  C1440   1.397   .     S
C1191  C1192   1.397   .     A
C1191  H1214   1.081   .     S
C1192  H1215   1.083   .     S
C1193  C1199   1.406   .     A
C1193  C1194   1.405   .     A
C1194  H1217   1.083   .     S
C1194  C1195   1.398   .     A
C1195  C1446   1.397   .     S
C1195  H1467   1.081   .     S
C1196  C1200   1.420   .     A
C1196  C438    1.411   1_556 S
C1196  C454    1.424   1_556 S
C1197  H1219   1.082   .     S
C1198  C1199   1.398   .     A
C1198  C1446   1.397   .     S
C1198  H1469   1.081   .     S
C1199  H1221   1.083   .     S
C1200  C1204   1.411   .     A
C1202  C1203   1.398   .     A
C1202  C454    1.425   1_556 S
C1202  C430    1.416   1_556 S
C1203  H1223   1.082   .     S
C1203  C1204   1.385   .     A
C1204  H1227   1.078   .     S
H1222  C1420   1.086   .     S
O1229  Zn1245  1.933   .     S
O1229  Zn1243  1.931   .     S
O1229  Zn1242  1.961   .     S
O1229  Zn1244  1.947   .     S
O1230  Zn1243  1.935   .     S
O1231  Zn1245  1.939   .     S
O1232  Zn1244  1.927   .     S
O1233  Zn1242  1.925   .     S
O1234  Zn1242  1.920   .     S
O1235  Zn1245  1.931   .     S
O1236  Zn1243  1.939   .     S
O1237  Zn1244  1.944   .     S
O1238  Zn1245  1.938   .     S
O1239  Zn1242  1.937   .     S
O1240  Zn1243  1.935   .     S
O1241  Zn1244  1.923   .     S
C1246  O1319   1.261   .     A
C1246  C1252   1.430   .     S
C1246  O1321   1.264   .     A
C1247  C1284   1.407   .     A
C1247  C1261   1.387   .     A
C1247  H1307   1.077   .     S
C1248  H1288   1.085   .     S
C1248  C1260   1.395   .     A
C1248  C1261   1.394   .     A
C1249  O1320   1.291   .     A
C1249  C1251   1.458   .     S
C1249  O1322   1.274   .     A
C1250  C1262   1.425   .     A
C1250  C1259   1.488   .     S
C1250  C1283   1.428   .     A
C1251  C1335   1.350   .     S
C1251  H1394   1.088   .     S
C1252  C1417   1.350   1_455 S
C1252  C1429   1.482   1_455 S
C1253  C1256   1.448   .     S
C1253  C756    1.329   1_565 S
C1253  H801    1.088   1_565 S
C1254  C1255   1.432   .     S
C1255  O1323   1.272   .     A
C1255  O1317   1.277   .     A
C1256  O1318   1.276   .     A
C1256  O1324   1.274   .     A
C1257  C1262   1.393   .     A
C1257  C521    1.383   1_556 S
C1257  H562    1.084   1_556 S
C1258  O1315   1.279   .     A
C1258  O1313   1.269   .     A
C1258  C1261   1.449   .     S
C1259  O1316   1.289   .     A
C1259  O1314   1.285   .     A
C1262  C1276   1.483   .     S
C1263  C1269   1.403   .     A
C1263  C1264   1.404   .     A
C1263  C1335   1.482   .     S
C1264  C1265   1.398   .     A
C1264  H1289   1.083   .     S
C1265  H1290   1.082   .     S
C1265  C1266   1.398   .     A
C1266  C1267   1.398   .     A
C1266  H1291   1.081   .     S
C1267  H1292   1.082   .     S
C1267  C1269   1.398   .     A
C1268  H1308   1.076   .     S
C1269  H1293   1.083   .     S
C1270  C1271   1.403   .     A
C1270  C1275   1.403   .     A
C1270  C513    1.477   1_556 S
C1271  H547    1.083   1_556 S
C1272  H1295   1.080   .     S
C1272  C1273   1.397   .     A
C1272  C773    1.400   1_565 S
C1273  H1296   1.082   .     S
C1273  C776    1.397   1_565 S
C1274  C1275   1.397   .     A
C1274  H1297   1.081   .     S
C1275  H1298   1.083   .     S
C1276  C1282   1.406   .     A
C1276  C1277   1.405   .     A
C1277  H1300   1.083   .     S
C1277  C1278   1.398   .     A
C1278  C782    1.397   1_565 S
C1278  H803    1.081   1_565 S
C1279  C1283   1.420   .     A
C1279  C521    1.411   1_556 S
C1279  C537    1.424   1_556 S
C1280  H1302   1.082   .     S
C1281  C1282   1.398   .     A
C1281  C782    1.397   1_565 S
C1281  H805    1.081   1_565 S
C1282  H1304   1.083   .     S
C1283  C1287   1.411   .     A
C1285  C1286   1.398   .     A
C1285  C537    1.425   1_556 S
C1285  C513    1.416   1_556 S
C1286  H1306   1.082   .     S
C1286  C1287   1.385   .     A
C1287  H1310   1.078   .     S
H1305  C756    1.086   1_565 S
H1311  C1417   1.088   1_455 S
O1312  Zn1328  1.933   .     S
O1312  Zn1326  1.931   .     S
O1312  Zn1325  1.961   .     S
O1312  Zn1327  1.947   .     S
O1313  Zn1326  1.935   .     S
O1314  Zn1328  1.939   .     S
O1315  Zn1327  1.927   .     S
O1316  Zn1325  1.925   .     S
O1317  Zn1325  1.920   .     S
O1318  Zn1328  1.931   .     S
O1319  Zn1326  1.939   .     S
O1320  Zn1327  1.944   .     S
O1321  Zn1328  1.938   .     S
O1322  Zn1325  1.937   .     S
O1323  Zn1326  1.935   .     S
O1324  Zn1327  1.923   .     S
C1329  O1402   1.261   .     A
C1329  C1335   1.430   .     S
C1329  O1404   1.264   .     A
C1330  C1367   1.407   .     A
C1330  C1344   1.387   .     A
C1330  H1390   1.077   .     S
C1331  H1371   1.085   .     S
C1331  C1343   1.395   .     A
C1331  C1344   1.394   .     A
C1332  O1403   1.291   .     A
C1332  C1334   1.458   .     S
C1332  O1405   1.274   .     A
C1333  C1345   1.425   .     A
C1333  C1342   1.488   .     S
C1333  C1366   1.428   .     A
C1334  C1418   1.350   .     S
C1334  H1477   1.088   .     S
C1336  C1339   1.448   .     S
C1336  C839    1.329   1_565 S
C1336  H884    1.088   1_565 S
C1337  C1338   1.432   .     S
C1338  O1406   1.272   .     A
C1338  O1400   1.277   .     A
C1339  O1401   1.276   .     A
C1339  O1407   1.274   .     A
C1340  C1345   1.393   .     A
C1340  C604    1.383   1_556 S
C1340  H645    1.084   1_556 S
C1341  O1398   1.279   .     A
C1341  O1396   1.269   .     A
C1341  C1344   1.449   .     S
C1342  O1399   1.289   .     A
C1342  O1397   1.285   .     A
C1345  C1359   1.483   .     S
C1346  C1352   1.403   .     A
C1346  C1347   1.404   .     A
C1346  C1418   1.482   .     S
C1347  C1348   1.398   .     A
C1347  H1372   1.083   .     S
C1348  H1373   1.082   .     S
C1348  C1349   1.398   .     A
C1349  C1350   1.398   .     A
C1349  H1374   1.081   .     S
C1350  H1375   1.082   .     S
C1350  C1352   1.398   .     A
C1351  H1391   1.076   .     S
C1352  H1376   1.083   .     S
C1353  C1354   1.403   .     A
C1353  C1358   1.403   .     A
C1353  C596    1.477   1_556 S
C1354  H630    1.083   1_556 S
C1355  H1378   1.080   .     S
C1355  C1356   1.397   .     A
C1355  C856    1.400   1_565 S
C1356  H1379   1.082   .     S
C1356  C859    1.397   1_565 S
C1357  C1358   1.397   .     A
C1357  H1380   1.081   .     S
C1358  H1381   1.083   .     S
C1359  C1365   1.406   .     A
C1359  C1360   1.405   .     A
C1360  H1383   1.083   .     S
C1360  C1361   1.398   .     A
C1361  C865    1.397   1_565 S
C1361  H886    1.081   1_565 S
C1362  C1366   1.420   .     A
C1362  C604    1.411   1_556 S
C1362  C620    1.424   1_556 S
C1363  H1385   1.082   .     S
C1364  C1365   1.398   .     A
C1364  C865    1.397   1_565 S
C1364  H888    1.081   1_565 S
C1365  H1387   1.083   .     S
C1366  C1370   1.411   .     A
C1368  C1369   1.398   .     A
C1368  C620    1.425   1_556 S
C1368  C596    1.416   1_556 S
C1369  H1389   1.082   .     S
C1369  C1370   1.385   .     A
C1370  H1393   1.078   .     S
H1388  C839    1.086   1_565 S
O1395  Zn1411  1.933   .     S
O1395  Zn1409  1.931   .     S
O1395  Zn1408  1.961   .     S
O1395  Zn1410  1.947   .     S
O1396  Zn1409  1.935   .     S
O1397  Zn1411  1.939   .     S
O1398  Zn1410  1.927   .     S
O1399  Zn1408  1.925   .     S
O1400  Zn1408  1.920   .     S
O1401  Zn1411  1.931   .     S
O1402  Zn1409  1.939   .     S
O1403  Zn1410  1.944   .     S
O1404  Zn1411  1.938   .     S
O1405  Zn1408  1.937   .     S
O1406  Zn1409  1.935   .     S
O1407  Zn1410  1.923   .     S
C1412  O1485   1.261   .     A
C1412  C1418   1.430   .     S
C1412  O1487   1.264   .     A
C1413  C1450   1.407   .     A
C1413  C1427   1.387   .     A
C1413  H1473   1.077   .     S
C1414  H1454   1.085   .     S
C1414  C1426   1.395   .     A
C1414  C1427   1.394   .     A
C1415  O1486   1.291   .     A
C1415  C1417   1.458   .     S
C1415  O1488   1.274   .     A
C1416  C1428   1.425   .     A
C1416  C1425   1.488   .     S
C1416  C1449   1.428   .     A
C1417  C1252   1.350   1_655 S
C1417  H1311   1.088   1_655 S
C1419  C1422   1.448   .     S
C1419  C922    1.329   1_565 S
C1419  H967    1.088   1_565 S
C1420  C1421   1.432   .     S
C1421  O1489   1.272   .     A
C1421  O1483   1.277   .     A
C1422  O1484   1.276   .     A
C1422  O1490   1.274   .     A
C1423  C1428   1.393   .     A
C1423  C687    1.383   1_556 S
C1423  H728    1.084   1_556 S
C1424  O1481   1.279   .     A
C1424  O1479   1.269   .     A
C1424  C1427   1.449   .     S
C1425  O1482   1.289   .     A
C1425  O1480   1.285   .     A
C1428  C1442   1.483   .     S
C1429  C1435   1.403   .     A
C1429  C1430   1.404   .     A
C1429  C1252   1.482   1_655 S
C1430  C1431   1.398   .     A
C1430  H1455   1.083   .     S
C1431  H1456   1.082   .     S
C1431  C1432   1.398   .     A
C1432  C1433   1.398   .     A
C1432  H1457   1.081   .     S
C1433  H1458   1.082   .     S
C1433  C1435   1.398   .     A
C1434  H1474   1.076   .     S
C1435  H1459   1.083   .     S
C1436  C1437   1.403   .     A
C1436  C1441   1.403   .     A
C1436  C679    1.477   1_556 S
C1437  H713    1.083   1_556 S
C1438  H1461   1.080   .     S
C1438  C1439   1.397   .     A
C1438  C939    1.400   1_565 S
C1439  H1462   1.082   .     S
C1439  C942    1.397   1_565 S
C1440  C1441   1.397   .     A
C1440  H1463   1.081   .     S
C1441  H1464   1.083   .     S
C1442  C1448   1.406   .     A
C1442  C1443   1.405   .     A
C1443  H1466   1.083   .     S
C1443  C1444   1.398   .     A
C1444  C948    1.397   1_565 S
C1444  H969    1.081   1_565 S
C1445  C1449   1.420   .     A
C1445  C687    1.411   1_556 S
C1445  C703    1.424   1_556 S
C1446  H1468   1.082   .     S
C1447  C1448   1.398   .     A
C1447  C948    1.397   1_565 S
C1447  H971    1.081   1_565 S
C1448  H1470   1.083   .     S
C1449  C1453   1.411   .     A
C1451  C1452   1.398   .     A
C1451  C703    1.425   1_556 S
C1451  C679    1.416   1_556 S
C1452  H1472   1.082   .     S
C1452  C1453   1.385   .     A
C1453  H1476   1.078   .     S
H1471  C922    1.086   1_565 S
O1478  Zn1494  1.933   .     S
O1478  Zn1492  1.931   .     S
O1478  Zn1491  1.961   .     S
O1478  Zn1493  1.947   .     S
O1479  Zn1492  1.935   .     S
O1480  Zn1494  1.939   .     S
O1481  Zn1493  1.927   .     S
O1482  Zn1491  1.925   .     S
O1483  Zn1491  1.920   .     S
O1484  Zn1494  1.931   .     S
O1485  Zn1492  1.939   .     S
O1486  Zn1493  1.944   .     S
O1487  Zn1494  1.938   .     S
O1488  Zn1491  1.937   .     S
O1489  Zn1492  1.935   .     S
O1490  Zn1493  1.923   .     S
