data_str_m2_o1_o17_pcu_sym.101
_audit_creation_date              2020-01-03
_audit_creation_method            'Materials Studio'
_symmetry_space_group_name_H-M    'P1'
_symmetry_Int_Tables_number       1
_symmetry_cell_setting            triclinic
loop_
_symmetry_equiv_pos_as_xyz
  x,y,z
_cell_length_a                    32.4214
_cell_length_b                    28.5614
_cell_length_c                    30.1855
_cell_angle_alpha                 89.0860
_cell_angle_beta                  90.4651
_cell_angle_gamma                 89.6369
loop_
_atom_site_label
_atom_site_type_symbol
_atom_site_fract_x
_atom_site_fract_y
_atom_site_fract_z
_atom_site_U_iso_or_equiv
_atom_site_adp_type
_atom_site_occupancy
O1     O     0.10655   0.20625   0.24999   0.00000  Uiso   1.00
O2     O     0.22679   0.12709   0.25001   0.00000  Uiso   1.00
O3     O     0.22679   0.20625   0.25001   0.00000  Uiso   1.00
O4     O     0.10655   0.12709   0.24999   0.00000  Uiso   1.00
C5     C     0.08746   0.16687   0.24981   0.00000  Uiso   1.00
C6     C     0.24587   0.16646   0.25020   0.00000  Uiso   1.00
O7     O     0.16666   0.20627   0.18513   0.00000  Uiso   1.00
O8     O     0.16668   0.12707   0.31487   0.00000  Uiso   1.00
O9     O     0.16668   0.20627   0.31487   0.00000  Uiso   1.00
O10    O     0.16666   0.12707   0.18513   0.00000  Uiso   1.00
C11    C     0.16555   0.16711   0.16439   0.00000  Uiso   1.00
C12    C     0.16778   0.16622   0.33561   0.00000  Uiso   1.00
Cu13   Cu    0.16667   0.21355   0.25000   0.00000  Uiso   1.00
Cu14   Cu    0.16667   0.11978   0.25000   0.00000  Uiso   1.00
C15    C     0.19342   0.13255   0.40835   0.00000  Uiso   1.00
C16    C     0.13991   0.20078   0.09165   0.00000  Uiso   1.00
C17    C     0.16882   0.16522   0.38399   0.00000  Uiso   1.00
C18    C     0.16452   0.16812   0.11601   0.00000  Uiso   1.00
C19    C     0.14514   0.19858   0.40578   0.00000  Uiso   1.00
C20    C     0.18820   0.13475   0.09422   0.00000  Uiso   1.00
C21    C     0.14427   0.19943   0.45173   0.00000  Uiso   1.00
C22    C     0.18906   0.13390   0.04827   0.00000  Uiso   1.00
C23    C     0.16748   0.16635   0.47669   0.00000  Uiso   1.00
C24    C     0.16586   0.16698   0.02331   0.00000  Uiso   1.00
C25    C     0.19226   0.13271   0.45514   0.00000  Uiso   1.00
C26    C     0.14107   0.20062   0.04486   0.00000  Uiso   1.00
C27    C     0.12027   0.23294   0.47298   0.00000  Uiso   1.00
C28    C     0.21307   0.10040   0.02702   0.00000  Uiso   1.00
C29    C     0.11879   0.23375   0.01895   0.00000  Uiso   1.00
C30    C     0.21454   0.09959   0.48105   0.00000  Uiso   1.00
H31    H     0.12681   0.22378   0.38670   0.00000  Uiso   1.00
H32    H     0.20652   0.10955   0.11330   0.00000  Uiso   1.00
H33    H     0.10260   0.25872   0.45398   0.00000  Uiso   1.00
H34    H     0.23074   0.07461   0.04602   0.00000  Uiso   1.00
H35    H     0.10032   0.26089   0.03379   0.00000  Uiso   1.00
H36    H     0.23301   0.07245   0.46621   0.00000  Uiso   1.00
C37    C     0.02134   0.14011   0.21827   0.00000  Uiso   1.00
C38    C     0.31199   0.19322   0.28173   0.00000  Uiso   1.00
C39    C     0.31164   0.13914   0.21939   0.00000  Uiso   1.00
C40    C     0.02169   0.19419   0.28062   0.00000  Uiso   1.00
C41    C     0.29050   0.16578   0.25091   0.00000  Uiso   1.00
C42    C     0.04283   0.16755   0.24909   0.00000  Uiso   1.00
C43    C     0.13688   0.02538   0.22763   0.00000  Uiso   1.00
C44    C     0.19646   0.30795   0.27237   0.00000  Uiso   1.00
C45    C     0.19654   0.02420   0.27224   0.00000  Uiso   1.00
C46    C     0.13680   0.30914   0.22776   0.00000  Uiso   1.00
H47    H     0.11309   0.04448   0.20956   0.00000  Uiso   1.00
H48    H     0.22025   0.28885   0.29044   0.00000  Uiso   1.00
H49    H     0.22063   0.04233   0.28986   0.00000  Uiso   1.00
H50    H     0.11271   0.29101   0.21015   0.00000  Uiso   1.00
N51    N     0.16667   0.28402   0.25000   0.00000  Uiso   1.00
N52    N     0.16667   0.04931   0.25000   0.00000  Uiso   1.00
C53    C     0.22141   0.10003   0.38501   0.00000  Uiso   1.00
H54    H     0.20909   0.07495   0.36197   0.00000  Uiso   1.00
O55    O     0.25861   0.10134   0.39144   0.00000  Uiso   1.00
C56    C     0.11191   0.23330   0.11499   0.00000  Uiso   1.00
H57    H     0.12422   0.25837   0.13804   0.00000  Uiso   1.00
O58    O     0.07471   0.23198   0.10855   0.00000  Uiso   1.00
N59    N     0.04298   0.11410   0.18518   0.00000  Uiso   1.00
O60    O     0.03378   0.07057   0.17802   0.00000  Uiso   1.00
O61    O     0.07031   0.13459   0.16037   0.00000  Uiso   1.00
N62    N     0.29035   0.21924   0.31482   0.00000  Uiso   1.00
O63    O     0.29955   0.26276   0.32198   0.00000  Uiso   1.00
O64    O     0.26302   0.19875   0.33963   0.00000  Uiso   1.00
N65    N     0.28935   0.11420   0.18610   0.00000  Uiso   1.00
O66    O     0.28917   0.12960   0.14531   0.00000  Uiso   1.00
O67    O     0.27469   0.07288   0.19513   0.00000  Uiso   1.00
N68    N     0.04398   0.21913   0.31391   0.00000  Uiso   1.00
O69    O     0.04415   0.20373   0.35470   0.00000  Uiso   1.00
O70    O     0.05865   0.26045   0.30488   0.00000  Uiso   1.00
O71    O     0.43988   0.20625   0.24999   0.00000  Uiso   1.00
O72    O     0.56012   0.12709   0.25001   0.00000  Uiso   1.00
O73    O     0.56012   0.20625   0.25001   0.00000  Uiso   1.00
O74    O     0.43988   0.12709   0.24999   0.00000  Uiso   1.00
C75    C     0.42079   0.16687   0.24981   0.00000  Uiso   1.00
C76    C     0.57920   0.16646   0.25020   0.00000  Uiso   1.00
O77    O     0.49999   0.20627   0.18513   0.00000  Uiso   1.00
O78    O     0.50001   0.12707   0.31487   0.00000  Uiso   1.00
O79    O     0.50001   0.20627   0.31487   0.00000  Uiso   1.00
O80    O     0.49999   0.12707   0.18513   0.00000  Uiso   1.00
C81    C     0.49889   0.16711   0.16439   0.00000  Uiso   1.00
C82    C     0.50111   0.16622   0.33561   0.00000  Uiso   1.00
Cu83   Cu    0.50000   0.21355   0.25000   0.00000  Uiso   1.00
Cu84   Cu    0.50000   0.11978   0.25000   0.00000  Uiso   1.00
C85    C     0.52676   0.13255   0.40835   0.00000  Uiso   1.00
C86    C     0.47324   0.20078   0.09165   0.00000  Uiso   1.00
C87    C     0.50215   0.16522   0.38399   0.00000  Uiso   1.00
C88    C     0.49785   0.16812   0.11601   0.00000  Uiso   1.00
C89    C     0.47847   0.19858   0.40578   0.00000  Uiso   1.00
C90    C     0.52153   0.13475   0.09422   0.00000  Uiso   1.00
C91    C     0.47761   0.19943   0.45173   0.00000  Uiso   1.00
C92    C     0.52240   0.13390   0.04827   0.00000  Uiso   1.00
C93    C     0.50081   0.16635   0.47669   0.00000  Uiso   1.00
C94    C     0.49919   0.16698   0.02331   0.00000  Uiso   1.00
C95    C     0.52559   0.13271   0.45514   0.00000  Uiso   1.00
C96    C     0.47441   0.20062   0.04486   0.00000  Uiso   1.00
C97    C     0.45360   0.23294   0.47298   0.00000  Uiso   1.00
C98    C     0.54640   0.10040   0.02702   0.00000  Uiso   1.00
C99    C     0.45213   0.23375   0.01895   0.00000  Uiso   1.00
C100   C     0.54787   0.09959   0.48105   0.00000  Uiso   1.00
H101   H     0.46015   0.22378   0.38670   0.00000  Uiso   1.00
H102   H     0.53986   0.10955   0.11330   0.00000  Uiso   1.00
H103   H     0.43593   0.25872   0.45398   0.00000  Uiso   1.00
H104   H     0.56407   0.07461   0.04602   0.00000  Uiso   1.00
H105   H     0.43365   0.26089   0.03379   0.00000  Uiso   1.00
H106   H     0.56635   0.07245   0.46621   0.00000  Uiso   1.00
C107   C     0.35467   0.14011   0.21827   0.00000  Uiso   1.00
C108   C     0.64532   0.19322   0.28173   0.00000  Uiso   1.00
C109   C     0.64497   0.13914   0.21939   0.00000  Uiso   1.00
C110   C     0.35503   0.19419   0.28062   0.00000  Uiso   1.00
C111   C     0.62383   0.16578   0.25091   0.00000  Uiso   1.00
C112   C     0.37617   0.16755   0.24909   0.00000  Uiso   1.00
C113   C     0.47021   0.02538   0.22763   0.00000  Uiso   1.00
C114   C     0.52979   0.30795   0.27237   0.00000  Uiso   1.00
C115   C     0.52987   0.02420   0.27224   0.00000  Uiso   1.00
C116   C     0.47013   0.30914   0.22776   0.00000  Uiso   1.00
H117   H     0.44642   0.04448   0.20956   0.00000  Uiso   1.00
H118   H     0.55358   0.28885   0.29044   0.00000  Uiso   1.00
H119   H     0.55396   0.04233   0.28986   0.00000  Uiso   1.00
H120   H     0.44604   0.29101   0.21015   0.00000  Uiso   1.00
N121   N     0.50000   0.28402   0.25000   0.00000  Uiso   1.00
N122   N     0.50000   0.04931   0.25000   0.00000  Uiso   1.00
C123   C     0.55474   0.10003   0.38501   0.00000  Uiso   1.00
H124   H     0.54243   0.07495   0.36197   0.00000  Uiso   1.00
O125   O     0.59195   0.10134   0.39144   0.00000  Uiso   1.00
C126   C     0.44524   0.23330   0.11499   0.00000  Uiso   1.00
H127   H     0.45755   0.25837   0.13804   0.00000  Uiso   1.00
O128   O     0.40805   0.23198   0.10855   0.00000  Uiso   1.00
N129   N     0.37631   0.11410   0.18518   0.00000  Uiso   1.00
O130   O     0.36712   0.07057   0.17802   0.00000  Uiso   1.00
O131   O     0.40364   0.13459   0.16037   0.00000  Uiso   1.00
N132   N     0.62369   0.21924   0.31482   0.00000  Uiso   1.00
O133   O     0.63288   0.26276   0.32198   0.00000  Uiso   1.00
O134   O     0.59635   0.19875   0.33963   0.00000  Uiso   1.00
N135   N     0.62269   0.11420   0.18610   0.00000  Uiso   1.00
O136   O     0.62250   0.12960   0.14531   0.00000  Uiso   1.00
O137   O     0.60802   0.07288   0.19513   0.00000  Uiso   1.00
N138   N     0.37731   0.21913   0.31391   0.00000  Uiso   1.00
O139   O     0.37748   0.20373   0.35470   0.00000  Uiso   1.00
O140   O     0.39199   0.26045   0.30488   0.00000  Uiso   1.00
O141   O     0.77321   0.20625   0.24999   0.00000  Uiso   1.00
O142   O     0.89345   0.12709   0.25001   0.00000  Uiso   1.00
O143   O     0.89345   0.20625   0.25001   0.00000  Uiso   1.00
O144   O     0.77321   0.12709   0.24999   0.00000  Uiso   1.00
C145   C     0.75413   0.16687   0.24981   0.00000  Uiso   1.00
C146   C     0.91254   0.16646   0.25020   0.00000  Uiso   1.00
O147   O     0.83332   0.20627   0.18513   0.00000  Uiso   1.00
O148   O     0.83334   0.12707   0.31487   0.00000  Uiso   1.00
O149   O     0.83334   0.20627   0.31487   0.00000  Uiso   1.00
O150   O     0.83332   0.12707   0.18513   0.00000  Uiso   1.00
C151   C     0.83222   0.16711   0.16439   0.00000  Uiso   1.00
C152   C     0.83444   0.16622   0.33561   0.00000  Uiso   1.00
Cu153  Cu    0.83333   0.21355   0.25000   0.00000  Uiso   1.00
Cu154  Cu    0.83333   0.11978   0.25000   0.00000  Uiso   1.00
C155   C     0.86009   0.13255   0.40835   0.00000  Uiso   1.00
C156   C     0.80657   0.20078   0.09165   0.00000  Uiso   1.00
C157   C     0.83548   0.16522   0.38399   0.00000  Uiso   1.00
C158   C     0.83118   0.16812   0.11601   0.00000  Uiso   1.00
C159   C     0.81180   0.19858   0.40578   0.00000  Uiso   1.00
C160   C     0.85487   0.13475   0.09422   0.00000  Uiso   1.00
C161   C     0.81094   0.19943   0.45173   0.00000  Uiso   1.00
C162   C     0.85573   0.13390   0.04827   0.00000  Uiso   1.00
C163   C     0.83414   0.16635   0.47669   0.00000  Uiso   1.00
C164   C     0.83252   0.16698   0.02331   0.00000  Uiso   1.00
C165   C     0.85893   0.13271   0.45514   0.00000  Uiso   1.00
C166   C     0.80774   0.20062   0.04486   0.00000  Uiso   1.00
C167   C     0.78693   0.23294   0.47298   0.00000  Uiso   1.00
C168   C     0.87973   0.10040   0.02702   0.00000  Uiso   1.00
C169   C     0.78546   0.23375   0.01895   0.00000  Uiso   1.00
C170   C     0.88121   0.09959   0.48105   0.00000  Uiso   1.00
H171   H     0.79348   0.22378   0.38670   0.00000  Uiso   1.00
H172   H     0.87319   0.10955   0.11330   0.00000  Uiso   1.00
H173   H     0.76926   0.25872   0.45398   0.00000  Uiso   1.00
H174   H     0.89740   0.07461   0.04602   0.00000  Uiso   1.00
H175   H     0.76699   0.26089   0.03379   0.00000  Uiso   1.00
H176   H     0.89968   0.07245   0.46621   0.00000  Uiso   1.00
C177   C     0.68801   0.14011   0.21827   0.00000  Uiso   1.00
C178   C     0.97866   0.19322   0.28173   0.00000  Uiso   1.00
C179   C     0.97830   0.13914   0.21939   0.00000  Uiso   1.00
C180   C     0.68836   0.19419   0.28062   0.00000  Uiso   1.00
C181   C     0.95717   0.16578   0.25091   0.00000  Uiso   1.00
C182   C     0.70950   0.16755   0.24909   0.00000  Uiso   1.00
C183   C     0.80354   0.02538   0.22763   0.00000  Uiso   1.00
C184   C     0.86312   0.30795   0.27237   0.00000  Uiso   1.00
C185   C     0.86320   0.02420   0.27224   0.00000  Uiso   1.00
C186   C     0.80346   0.30914   0.22776   0.00000  Uiso   1.00
H187   H     0.77975   0.04448   0.20956   0.00000  Uiso   1.00
H188   H     0.88691   0.28885   0.29044   0.00000  Uiso   1.00
H189   H     0.88729   0.04233   0.28986   0.00000  Uiso   1.00
H190   H     0.77937   0.29101   0.21015   0.00000  Uiso   1.00
N191   N     0.83333   0.28402   0.25000   0.00000  Uiso   1.00
N192   N     0.83333   0.04931   0.25000   0.00000  Uiso   1.00
C193   C     0.88808   0.10003   0.38501   0.00000  Uiso   1.00
H194   H     0.87576   0.07495   0.36197   0.00000  Uiso   1.00
O195   O     0.92528   0.10134   0.39144   0.00000  Uiso   1.00
C196   C     0.77858   0.23330   0.11499   0.00000  Uiso   1.00
H197   H     0.79089   0.25837   0.13804   0.00000  Uiso   1.00
O198   O     0.74138   0.23198   0.10855   0.00000  Uiso   1.00
N199   N     0.70965   0.11410   0.18518   0.00000  Uiso   1.00
O200   O     0.70045   0.07057   0.17802   0.00000  Uiso   1.00
O201   O     0.73698   0.13459   0.16037   0.00000  Uiso   1.00
N202   N     0.95702   0.21924   0.31482   0.00000  Uiso   1.00
O203   O     0.96622   0.26276   0.32198   0.00000  Uiso   1.00
O204   O     0.92969   0.19875   0.33963   0.00000  Uiso   1.00
N205   N     0.95602   0.11420   0.18610   0.00000  Uiso   1.00
O206   O     0.95584   0.12960   0.14531   0.00000  Uiso   1.00
O207   O     0.94135   0.07288   0.19513   0.00000  Uiso   1.00
N208   N     0.71064   0.21913   0.31391   0.00000  Uiso   1.00
O209   O     0.71082   0.20373   0.35470   0.00000  Uiso   1.00
O210   O     0.72532   0.26045   0.30488   0.00000  Uiso   1.00
O211   O     0.10655   0.53958   0.24999   0.00000  Uiso   1.00
O212   O     0.22679   0.46042   0.25001   0.00000  Uiso   1.00
O213   O     0.22679   0.53958   0.25001   0.00000  Uiso   1.00
O214   O     0.10655   0.46042   0.24999   0.00000  Uiso   1.00
C215   C     0.08746   0.50021   0.24981   0.00000  Uiso   1.00
C216   C     0.24587   0.49979   0.25020   0.00000  Uiso   1.00
O217   O     0.16666   0.53960   0.18513   0.00000  Uiso   1.00
O218   O     0.16668   0.46040   0.31487   0.00000  Uiso   1.00
O219   O     0.16668   0.53960   0.31487   0.00000  Uiso   1.00
O220   O     0.16666   0.46040   0.18513   0.00000  Uiso   1.00
C221   C     0.16555   0.50045   0.16439   0.00000  Uiso   1.00
C222   C     0.16778   0.49955   0.33561   0.00000  Uiso   1.00
Cu223  Cu    0.16667   0.54689   0.25000   0.00000  Uiso   1.00
Cu224  Cu    0.16667   0.45311   0.25000   0.00000  Uiso   1.00
C225   C     0.19342   0.46589   0.40835   0.00000  Uiso   1.00
C226   C     0.13991   0.53411   0.09165   0.00000  Uiso   1.00
C227   C     0.16882   0.49855   0.38399   0.00000  Uiso   1.00
C228   C     0.16452   0.50145   0.11601   0.00000  Uiso   1.00
C229   C     0.14514   0.53192   0.40578   0.00000  Uiso   1.00
C230   C     0.18820   0.46809   0.09422   0.00000  Uiso   1.00
C231   C     0.14427   0.53276   0.45173   0.00000  Uiso   1.00
C232   C     0.18906   0.46724   0.04827   0.00000  Uiso   1.00
C233   C     0.16748   0.49969   0.47669   0.00000  Uiso   1.00
C234   C     0.16586   0.50031   0.02331   0.00000  Uiso   1.00
C235   C     0.19226   0.46604   0.45514   0.00000  Uiso   1.00
C236   C     0.14107   0.53396   0.04486   0.00000  Uiso   1.00
C237   C     0.12027   0.56627   0.47298   0.00000  Uiso   1.00
C238   C     0.21307   0.43373   0.02702   0.00000  Uiso   1.00
C239   C     0.11879   0.56708   0.01895   0.00000  Uiso   1.00
C240   C     0.21454   0.43292   0.48105   0.00000  Uiso   1.00
H241   H     0.12681   0.55711   0.38670   0.00000  Uiso   1.00
H242   H     0.20652   0.44289   0.11330   0.00000  Uiso   1.00
H243   H     0.10260   0.59206   0.45398   0.00000  Uiso   1.00
H244   H     0.23074   0.40794   0.04602   0.00000  Uiso   1.00
H245   H     0.10032   0.59422   0.03379   0.00000  Uiso   1.00
H246   H     0.23301   0.40578   0.46621   0.00000  Uiso   1.00
C247   C     0.02134   0.47344   0.21827   0.00000  Uiso   1.00
C248   C     0.31199   0.52656   0.28173   0.00000  Uiso   1.00
C249   C     0.31164   0.47248   0.21939   0.00000  Uiso   1.00
C250   C     0.02169   0.52752   0.28062   0.00000  Uiso   1.00
C251   C     0.29050   0.49912   0.25091   0.00000  Uiso   1.00
C252   C     0.04283   0.50088   0.24909   0.00000  Uiso   1.00
C253   C     0.13688   0.35872   0.22763   0.00000  Uiso   1.00
C254   C     0.19646   0.64128   0.27237   0.00000  Uiso   1.00
C255   C     0.19654   0.35753   0.27224   0.00000  Uiso   1.00
C256   C     0.13680   0.64247   0.22776   0.00000  Uiso   1.00
H257   H     0.11309   0.37782   0.20956   0.00000  Uiso   1.00
H258   H     0.22025   0.62218   0.29044   0.00000  Uiso   1.00
H259   H     0.22063   0.37566   0.28986   0.00000  Uiso   1.00
H260   H     0.11271   0.62434   0.21015   0.00000  Uiso   1.00
N261   N     0.16667   0.61736   0.25000   0.00000  Uiso   1.00
N262   N     0.16667   0.38264   0.25000   0.00000  Uiso   1.00
C263   C     0.22141   0.43336   0.38501   0.00000  Uiso   1.00
H264   H     0.20909   0.40828   0.36197   0.00000  Uiso   1.00
O265   O     0.25861   0.43468   0.39144   0.00000  Uiso   1.00
C266   C     0.11191   0.56663   0.11499   0.00000  Uiso   1.00
H267   H     0.12422   0.59170   0.13804   0.00000  Uiso   1.00
O268   O     0.07471   0.56532   0.10855   0.00000  Uiso   1.00
N269   N     0.04298   0.44743   0.18518   0.00000  Uiso   1.00
O270   O     0.03378   0.40391   0.17802   0.00000  Uiso   1.00
O271   O     0.07031   0.46792   0.16037   0.00000  Uiso   1.00
N272   N     0.29035   0.55257   0.31482   0.00000  Uiso   1.00
O273   O     0.29955   0.59609   0.32198   0.00000  Uiso   1.00
O274   O     0.26302   0.53208   0.33963   0.00000  Uiso   1.00
N275   N     0.28935   0.44753   0.18610   0.00000  Uiso   1.00
O276   O     0.28917   0.46293   0.14531   0.00000  Uiso   1.00
O277   O     0.27469   0.40621   0.19513   0.00000  Uiso   1.00
N278   N     0.04398   0.55246   0.31391   0.00000  Uiso   1.00
O279   O     0.04415   0.53707   0.35470   0.00000  Uiso   1.00
O280   O     0.05865   0.59378   0.30488   0.00000  Uiso   1.00
O281   O     0.43988   0.53958   0.24999   0.00000  Uiso   1.00
O282   O     0.56012   0.46042   0.25001   0.00000  Uiso   1.00
O283   O     0.56012   0.53958   0.25001   0.00000  Uiso   1.00
O284   O     0.43988   0.46042   0.24999   0.00000  Uiso   1.00
C285   C     0.42079   0.50021   0.24981   0.00000  Uiso   1.00
C286   C     0.57920   0.49979   0.25020   0.00000  Uiso   1.00
O287   O     0.49999   0.53960   0.18513   0.00000  Uiso   1.00
O288   O     0.50001   0.46040   0.31487   0.00000  Uiso   1.00
O289   O     0.50001   0.53960   0.31487   0.00000  Uiso   1.00
O290   O     0.49999   0.46040   0.18513   0.00000  Uiso   1.00
C291   C     0.49889   0.50045   0.16439   0.00000  Uiso   1.00
C292   C     0.50111   0.49955   0.33561   0.00000  Uiso   1.00
Cu293  Cu    0.50000   0.54689   0.25000   0.00000  Uiso   1.00
Cu294  Cu    0.50000   0.45311   0.25000   0.00000  Uiso   1.00
C295   C     0.52676   0.46589   0.40835   0.00000  Uiso   1.00
C296   C     0.47324   0.53411   0.09165   0.00000  Uiso   1.00
C297   C     0.50215   0.49855   0.38399   0.00000  Uiso   1.00
C298   C     0.49785   0.50145   0.11601   0.00000  Uiso   1.00
C299   C     0.47847   0.53192   0.40578   0.00000  Uiso   1.00
C300   C     0.52153   0.46809   0.09422   0.00000  Uiso   1.00
C301   C     0.47761   0.53276   0.45173   0.00000  Uiso   1.00
C302   C     0.52240   0.46724   0.04827   0.00000  Uiso   1.00
C303   C     0.50081   0.49969   0.47669   0.00000  Uiso   1.00
C304   C     0.49919   0.50031   0.02331   0.00000  Uiso   1.00
C305   C     0.52559   0.46604   0.45514   0.00000  Uiso   1.00
C306   C     0.47441   0.53396   0.04486   0.00000  Uiso   1.00
C307   C     0.45360   0.56627   0.47298   0.00000  Uiso   1.00
C308   C     0.54640   0.43373   0.02702   0.00000  Uiso   1.00
C309   C     0.45213   0.56708   0.01895   0.00000  Uiso   1.00
C310   C     0.54787   0.43292   0.48105   0.00000  Uiso   1.00
H311   H     0.46015   0.55711   0.38670   0.00000  Uiso   1.00
H312   H     0.53986   0.44289   0.11330   0.00000  Uiso   1.00
H313   H     0.43593   0.59206   0.45398   0.00000  Uiso   1.00
H314   H     0.56407   0.40794   0.04602   0.00000  Uiso   1.00
H315   H     0.43365   0.59422   0.03379   0.00000  Uiso   1.00
H316   H     0.56635   0.40578   0.46621   0.00000  Uiso   1.00
C317   C     0.35467   0.47344   0.21827   0.00000  Uiso   1.00
C318   C     0.64532   0.52656   0.28173   0.00000  Uiso   1.00
C319   C     0.64497   0.47248   0.21939   0.00000  Uiso   1.00
C320   C     0.35503   0.52752   0.28062   0.00000  Uiso   1.00
C321   C     0.62383   0.49912   0.25091   0.00000  Uiso   1.00
C322   C     0.37617   0.50088   0.24909   0.00000  Uiso   1.00
C323   C     0.47021   0.35872   0.22763   0.00000  Uiso   1.00
C324   C     0.52979   0.64128   0.27237   0.00000  Uiso   1.00
C325   C     0.52987   0.35753   0.27224   0.00000  Uiso   1.00
C326   C     0.47013   0.64247   0.22776   0.00000  Uiso   1.00
H327   H     0.44642   0.37782   0.20956   0.00000  Uiso   1.00
H328   H     0.55358   0.62218   0.29044   0.00000  Uiso   1.00
H329   H     0.55396   0.37566   0.28986   0.00000  Uiso   1.00
H330   H     0.44604   0.62434   0.21015   0.00000  Uiso   1.00
N331   N     0.50000   0.61736   0.25000   0.00000  Uiso   1.00
N332   N     0.50000   0.38264   0.25000   0.00000  Uiso   1.00
C333   C     0.55474   0.43336   0.38501   0.00000  Uiso   1.00
H334   H     0.54243   0.40828   0.36197   0.00000  Uiso   1.00
O335   O     0.59195   0.43468   0.39144   0.00000  Uiso   1.00
C336   C     0.44524   0.56663   0.11499   0.00000  Uiso   1.00
H337   H     0.45755   0.59170   0.13804   0.00000  Uiso   1.00
O338   O     0.40805   0.56532   0.10855   0.00000  Uiso   1.00
N339   N     0.37631   0.44743   0.18518   0.00000  Uiso   1.00
O340   O     0.36712   0.40391   0.17802   0.00000  Uiso   1.00
O341   O     0.40364   0.46792   0.16037   0.00000  Uiso   1.00
N342   N     0.62369   0.55257   0.31482   0.00000  Uiso   1.00
O343   O     0.63288   0.59609   0.32198   0.00000  Uiso   1.00
O344   O     0.59635   0.53208   0.33963   0.00000  Uiso   1.00
N345   N     0.62269   0.44753   0.18610   0.00000  Uiso   1.00
O346   O     0.62250   0.46293   0.14531   0.00000  Uiso   1.00
O347   O     0.60802   0.40621   0.19513   0.00000  Uiso   1.00
N348   N     0.37731   0.55246   0.31391   0.00000  Uiso   1.00
O349   O     0.37748   0.53707   0.35470   0.00000  Uiso   1.00
O350   O     0.39199   0.59378   0.30488   0.00000  Uiso   1.00
O351   O     0.77321   0.53958   0.24999   0.00000  Uiso   1.00
O352   O     0.89345   0.46042   0.25001   0.00000  Uiso   1.00
O353   O     0.89345   0.53958   0.25001   0.00000  Uiso   1.00
O354   O     0.77321   0.46042   0.24999   0.00000  Uiso   1.00
C355   C     0.75413   0.50021   0.24981   0.00000  Uiso   1.00
C356   C     0.91254   0.49979   0.25020   0.00000  Uiso   1.00
O357   O     0.83332   0.53960   0.18513   0.00000  Uiso   1.00
O358   O     0.83334   0.46040   0.31487   0.00000  Uiso   1.00
O359   O     0.83334   0.53960   0.31487   0.00000  Uiso   1.00
O360   O     0.83332   0.46040   0.18513   0.00000  Uiso   1.00
C361   C     0.83222   0.50045   0.16439   0.00000  Uiso   1.00
C362   C     0.83444   0.49955   0.33561   0.00000  Uiso   1.00
Cu363  Cu    0.83333   0.54689   0.25000   0.00000  Uiso   1.00
Cu364  Cu    0.83333   0.45311   0.25000   0.00000  Uiso   1.00
C365   C     0.86009   0.46589   0.40835   0.00000  Uiso   1.00
C366   C     0.80657   0.53411   0.09165   0.00000  Uiso   1.00
C367   C     0.83548   0.49855   0.38399   0.00000  Uiso   1.00
C368   C     0.83118   0.50145   0.11601   0.00000  Uiso   1.00
C369   C     0.81180   0.53192   0.40578   0.00000  Uiso   1.00
C370   C     0.85487   0.46809   0.09422   0.00000  Uiso   1.00
C371   C     0.81094   0.53276   0.45173   0.00000  Uiso   1.00
C372   C     0.85573   0.46724   0.04827   0.00000  Uiso   1.00
C373   C     0.83414   0.49969   0.47669   0.00000  Uiso   1.00
C374   C     0.83252   0.50031   0.02331   0.00000  Uiso   1.00
C375   C     0.85893   0.46604   0.45514   0.00000  Uiso   1.00
C376   C     0.80774   0.53396   0.04486   0.00000  Uiso   1.00
C377   C     0.78693   0.56627   0.47298   0.00000  Uiso   1.00
C378   C     0.87973   0.43373   0.02702   0.00000  Uiso   1.00
C379   C     0.78546   0.56708   0.01895   0.00000  Uiso   1.00
C380   C     0.88121   0.43292   0.48105   0.00000  Uiso   1.00
H381   H     0.79348   0.55711   0.38670   0.00000  Uiso   1.00
H382   H     0.87319   0.44289   0.11330   0.00000  Uiso   1.00
H383   H     0.76926   0.59206   0.45398   0.00000  Uiso   1.00
H384   H     0.89740   0.40794   0.04602   0.00000  Uiso   1.00
H385   H     0.76699   0.59422   0.03379   0.00000  Uiso   1.00
H386   H     0.89968   0.40578   0.46621   0.00000  Uiso   1.00
C387   C     0.68801   0.47344   0.21827   0.00000  Uiso   1.00
C388   C     0.97866   0.52656   0.28173   0.00000  Uiso   1.00
C389   C     0.97830   0.47248   0.21939   0.00000  Uiso   1.00
C390   C     0.68836   0.52752   0.28062   0.00000  Uiso   1.00
C391   C     0.95717   0.49912   0.25091   0.00000  Uiso   1.00
C392   C     0.70950   0.50088   0.24909   0.00000  Uiso   1.00
C393   C     0.80354   0.35872   0.22763   0.00000  Uiso   1.00
C394   C     0.86312   0.64128   0.27237   0.00000  Uiso   1.00
C395   C     0.86320   0.35753   0.27224   0.00000  Uiso   1.00
C396   C     0.80346   0.64247   0.22776   0.00000  Uiso   1.00
H397   H     0.77975   0.37782   0.20956   0.00000  Uiso   1.00
H398   H     0.88691   0.62218   0.29044   0.00000  Uiso   1.00
H399   H     0.88729   0.37566   0.28986   0.00000  Uiso   1.00
H400   H     0.77937   0.62434   0.21015   0.00000  Uiso   1.00
N401   N     0.83333   0.61736   0.25000   0.00000  Uiso   1.00
N402   N     0.83333   0.38264   0.25000   0.00000  Uiso   1.00
C403   C     0.88808   0.43336   0.38501   0.00000  Uiso   1.00
H404   H     0.87576   0.40828   0.36197   0.00000  Uiso   1.00
O405   O     0.92528   0.43468   0.39144   0.00000  Uiso   1.00
C406   C     0.77858   0.56663   0.11499   0.00000  Uiso   1.00
H407   H     0.79089   0.59170   0.13804   0.00000  Uiso   1.00
O408   O     0.74138   0.56532   0.10855   0.00000  Uiso   1.00
N409   N     0.70965   0.44743   0.18518   0.00000  Uiso   1.00
O410   O     0.70045   0.40391   0.17802   0.00000  Uiso   1.00
O411   O     0.73698   0.46792   0.16037   0.00000  Uiso   1.00
N412   N     0.95702   0.55257   0.31482   0.00000  Uiso   1.00
O413   O     0.96622   0.59609   0.32198   0.00000  Uiso   1.00
O414   O     0.92969   0.53208   0.33963   0.00000  Uiso   1.00
N415   N     0.95602   0.44753   0.18610   0.00000  Uiso   1.00
O416   O     0.95584   0.46293   0.14531   0.00000  Uiso   1.00
O417   O     0.94135   0.40621   0.19513   0.00000  Uiso   1.00
N418   N     0.71064   0.55246   0.31391   0.00000  Uiso   1.00
O419   O     0.71082   0.53707   0.35470   0.00000  Uiso   1.00
O420   O     0.72532   0.59378   0.30488   0.00000  Uiso   1.00
O421   O     0.10655   0.87291   0.24999   0.00000  Uiso   1.00
O422   O     0.22679   0.79375   0.25001   0.00000  Uiso   1.00
O423   O     0.22679   0.87291   0.25001   0.00000  Uiso   1.00
O424   O     0.10655   0.79375   0.24999   0.00000  Uiso   1.00
C425   C     0.08746   0.83354   0.24981   0.00000  Uiso   1.00
C426   C     0.24587   0.83313   0.25020   0.00000  Uiso   1.00
O427   O     0.16666   0.87293   0.18513   0.00000  Uiso   1.00
O428   O     0.16668   0.79373   0.31487   0.00000  Uiso   1.00
O429   O     0.16668   0.87293   0.31487   0.00000  Uiso   1.00
O430   O     0.16666   0.79373   0.18513   0.00000  Uiso   1.00
C431   C     0.16555   0.83378   0.16439   0.00000  Uiso   1.00
C432   C     0.16778   0.83289   0.33561   0.00000  Uiso   1.00
Cu433  Cu    0.16667   0.88022   0.25000   0.00000  Uiso   1.00
Cu434  Cu    0.16667   0.78645   0.25000   0.00000  Uiso   1.00
C435   C     0.19342   0.79922   0.40835   0.00000  Uiso   1.00
C436   C     0.13991   0.86745   0.09165   0.00000  Uiso   1.00
C437   C     0.16882   0.83188   0.38399   0.00000  Uiso   1.00
C438   C     0.16452   0.83478   0.11601   0.00000  Uiso   1.00
C439   C     0.14514   0.86525   0.40578   0.00000  Uiso   1.00
C440   C     0.18820   0.80142   0.09422   0.00000  Uiso   1.00
C441   C     0.14427   0.86610   0.45173   0.00000  Uiso   1.00
C442   C     0.18906   0.80057   0.04827   0.00000  Uiso   1.00
C443   C     0.16748   0.83302   0.47669   0.00000  Uiso   1.00
C444   C     0.16586   0.83365   0.02331   0.00000  Uiso   1.00
C445   C     0.19226   0.79938   0.45514   0.00000  Uiso   1.00
C446   C     0.14107   0.86729   0.04486   0.00000  Uiso   1.00
C447   C     0.12027   0.89960   0.47298   0.00000  Uiso   1.00
C448   C     0.21307   0.76707   0.02702   0.00000  Uiso   1.00
C449   C     0.11879   0.90041   0.01895   0.00000  Uiso   1.00
C450   C     0.21454   0.76625   0.48105   0.00000  Uiso   1.00
H451   H     0.12681   0.89045   0.38670   0.00000  Uiso   1.00
H452   H     0.20652   0.77622   0.11330   0.00000  Uiso   1.00
H453   H     0.10260   0.92539   0.45398   0.00000  Uiso   1.00
H454   H     0.23074   0.74128   0.04602   0.00000  Uiso   1.00
H455   H     0.10032   0.92755   0.03379   0.00000  Uiso   1.00
H456   H     0.23301   0.73912   0.46621   0.00000  Uiso   1.00
C457   C     0.02134   0.80677   0.21827   0.00000  Uiso   1.00
C458   C     0.31199   0.85989   0.28173   0.00000  Uiso   1.00
C459   C     0.31164   0.80581   0.21939   0.00000  Uiso   1.00
C460   C     0.02169   0.86086   0.28062   0.00000  Uiso   1.00
C461   C     0.29050   0.83245   0.25091   0.00000  Uiso   1.00
C462   C     0.04283   0.83421   0.24909   0.00000  Uiso   1.00
C463   C     0.13688   0.69205   0.22763   0.00000  Uiso   1.00
C464   C     0.19646   0.97462   0.27237   0.00000  Uiso   1.00
C465   C     0.19654   0.69086   0.27224   0.00000  Uiso   1.00
C466   C     0.13680   0.97580   0.22776   0.00000  Uiso   1.00
H467   H     0.11309   0.71115   0.20956   0.00000  Uiso   1.00
H468   H     0.22025   0.95552   0.29044   0.00000  Uiso   1.00
H469   H     0.22063   0.70899   0.28986   0.00000  Uiso   1.00
H470   H     0.11271   0.95767   0.21015   0.00000  Uiso   1.00
N471   N     0.16667   0.95069   0.25000   0.00000  Uiso   1.00
N472   N     0.16667   0.71598   0.25000   0.00000  Uiso   1.00
C473   C     0.22141   0.76670   0.38501   0.00000  Uiso   1.00
H474   H     0.20909   0.74162   0.36197   0.00000  Uiso   1.00
O475   O     0.25861   0.76801   0.39144   0.00000  Uiso   1.00
C476   C     0.11191   0.89996   0.11499   0.00000  Uiso   1.00
H477   H     0.12422   0.92503   0.13804   0.00000  Uiso   1.00
O478   O     0.07471   0.89865   0.10855   0.00000  Uiso   1.00
N479   N     0.04298   0.78076   0.18518   0.00000  Uiso   1.00
O480   O     0.03378   0.73724   0.17802   0.00000  Uiso   1.00
O481   O     0.07031   0.80125   0.16037   0.00000  Uiso   1.00
N482   N     0.29035   0.88590   0.31482   0.00000  Uiso   1.00
O483   O     0.29955   0.92942   0.32198   0.00000  Uiso   1.00
O484   O     0.26302   0.86541   0.33963   0.00000  Uiso   1.00
N485   N     0.28935   0.78087   0.18610   0.00000  Uiso   1.00
O486   O     0.28917   0.79627   0.14531   0.00000  Uiso   1.00
O487   O     0.27469   0.73954   0.19513   0.00000  Uiso   1.00
N488   N     0.04398   0.88579   0.31391   0.00000  Uiso   1.00
O489   O     0.04415   0.87040   0.35470   0.00000  Uiso   1.00
O490   O     0.05865   0.92711   0.30488   0.00000  Uiso   1.00
O491   O     0.43988   0.87291   0.24999   0.00000  Uiso   1.00
O492   O     0.56012   0.79375   0.25001   0.00000  Uiso   1.00
O493   O     0.56012   0.87291   0.25001   0.00000  Uiso   1.00
O494   O     0.43988   0.79375   0.24999   0.00000  Uiso   1.00
C495   C     0.42079   0.83354   0.24981   0.00000  Uiso   1.00
C496   C     0.57920   0.83313   0.25020   0.00000  Uiso   1.00
O497   O     0.49999   0.87293   0.18513   0.00000  Uiso   1.00
O498   O     0.50001   0.79373   0.31487   0.00000  Uiso   1.00
O499   O     0.50001   0.87293   0.31487   0.00000  Uiso   1.00
O500   O     0.49999   0.79373   0.18513   0.00000  Uiso   1.00
C501   C     0.49889   0.83378   0.16439   0.00000  Uiso   1.00
C502   C     0.50111   0.83289   0.33561   0.00000  Uiso   1.00
Cu503  Cu    0.50000   0.88022   0.25000   0.00000  Uiso   1.00
Cu504  Cu    0.50000   0.78645   0.25000   0.00000  Uiso   1.00
C505   C     0.52676   0.79922   0.40835   0.00000  Uiso   1.00
C506   C     0.47324   0.86745   0.09165   0.00000  Uiso   1.00
C507   C     0.50215   0.83188   0.38399   0.00000  Uiso   1.00
C508   C     0.49785   0.83478   0.11601   0.00000  Uiso   1.00
C509   C     0.47847   0.86525   0.40578   0.00000  Uiso   1.00
C510   C     0.52153   0.80142   0.09422   0.00000  Uiso   1.00
C511   C     0.47761   0.86610   0.45173   0.00000  Uiso   1.00
C512   C     0.52240   0.80057   0.04827   0.00000  Uiso   1.00
C513   C     0.50081   0.83302   0.47669   0.00000  Uiso   1.00
C514   C     0.49919   0.83365   0.02331   0.00000  Uiso   1.00
C515   C     0.52559   0.79938   0.45514   0.00000  Uiso   1.00
C516   C     0.47441   0.86729   0.04486   0.00000  Uiso   1.00
C517   C     0.45360   0.89960   0.47298   0.00000  Uiso   1.00
C518   C     0.54640   0.76707   0.02702   0.00000  Uiso   1.00
C519   C     0.45213   0.90041   0.01895   0.00000  Uiso   1.00
C520   C     0.54787   0.76625   0.48105   0.00000  Uiso   1.00
H521   H     0.46015   0.89045   0.38670   0.00000  Uiso   1.00
H522   H     0.53986   0.77622   0.11330   0.00000  Uiso   1.00
H523   H     0.43593   0.92539   0.45398   0.00000  Uiso   1.00
H524   H     0.56407   0.74128   0.04602   0.00000  Uiso   1.00
H525   H     0.43365   0.92755   0.03379   0.00000  Uiso   1.00
H526   H     0.56635   0.73912   0.46621   0.00000  Uiso   1.00
C527   C     0.35467   0.80677   0.21827   0.00000  Uiso   1.00
C528   C     0.64532   0.85989   0.28173   0.00000  Uiso   1.00
C529   C     0.64497   0.80581   0.21939   0.00000  Uiso   1.00
C530   C     0.35503   0.86086   0.28062   0.00000  Uiso   1.00
C531   C     0.62383   0.83245   0.25091   0.00000  Uiso   1.00
C532   C     0.37617   0.83421   0.24909   0.00000  Uiso   1.00
C533   C     0.47021   0.69205   0.22763   0.00000  Uiso   1.00
C534   C     0.52979   0.97462   0.27237   0.00000  Uiso   1.00
C535   C     0.52987   0.69086   0.27224   0.00000  Uiso   1.00
C536   C     0.47013   0.97580   0.22776   0.00000  Uiso   1.00
H537   H     0.44642   0.71115   0.20956   0.00000  Uiso   1.00
H538   H     0.55358   0.95552   0.29044   0.00000  Uiso   1.00
H539   H     0.55396   0.70899   0.28986   0.00000  Uiso   1.00
H540   H     0.44604   0.95767   0.21015   0.00000  Uiso   1.00
N541   N     0.50000   0.95069   0.25000   0.00000  Uiso   1.00
N542   N     0.50000   0.71598   0.25000   0.00000  Uiso   1.00
C543   C     0.55474   0.76670   0.38501   0.00000  Uiso   1.00
H544   H     0.54243   0.74162   0.36197   0.00000  Uiso   1.00
O545   O     0.59195   0.76801   0.39144   0.00000  Uiso   1.00
C546   C     0.44524   0.89996   0.11499   0.00000  Uiso   1.00
H547   H     0.45755   0.92503   0.13804   0.00000  Uiso   1.00
O548   O     0.40805   0.89865   0.10855   0.00000  Uiso   1.00
N549   N     0.37631   0.78076   0.18518   0.00000  Uiso   1.00
O550   O     0.36712   0.73724   0.17802   0.00000  Uiso   1.00
O551   O     0.40364   0.80125   0.16037   0.00000  Uiso   1.00
N552   N     0.62369   0.88590   0.31482   0.00000  Uiso   1.00
O553   O     0.63288   0.92942   0.32198   0.00000  Uiso   1.00
O554   O     0.59635   0.86541   0.33963   0.00000  Uiso   1.00
N555   N     0.62269   0.78087   0.18610   0.00000  Uiso   1.00
O556   O     0.62250   0.79627   0.14531   0.00000  Uiso   1.00
O557   O     0.60802   0.73954   0.19513   0.00000  Uiso   1.00
N558   N     0.37731   0.88579   0.31391   0.00000  Uiso   1.00
O559   O     0.37748   0.87040   0.35470   0.00000  Uiso   1.00
O560   O     0.39199   0.92711   0.30488   0.00000  Uiso   1.00
O561   O     0.77321   0.87291   0.24999   0.00000  Uiso   1.00
O562   O     0.89345   0.79375   0.25001   0.00000  Uiso   1.00
O563   O     0.89345   0.87291   0.25001   0.00000  Uiso   1.00
O564   O     0.77321   0.79375   0.24999   0.00000  Uiso   1.00
C565   C     0.75413   0.83354   0.24981   0.00000  Uiso   1.00
C566   C     0.91254   0.83313   0.25020   0.00000  Uiso   1.00
O567   O     0.83332   0.87293   0.18513   0.00000  Uiso   1.00
O568   O     0.83334   0.79373   0.31487   0.00000  Uiso   1.00
O569   O     0.83334   0.87293   0.31487   0.00000  Uiso   1.00
O570   O     0.83332   0.79373   0.18513   0.00000  Uiso   1.00
C571   C     0.83222   0.83378   0.16439   0.00000  Uiso   1.00
C572   C     0.83444   0.83289   0.33561   0.00000  Uiso   1.00
Cu573  Cu    0.83333   0.88022   0.25000   0.00000  Uiso   1.00
Cu574  Cu    0.83333   0.78645   0.25000   0.00000  Uiso   1.00
C575   C     0.86009   0.79922   0.40835   0.00000  Uiso   1.00
C576   C     0.80657   0.86745   0.09165   0.00000  Uiso   1.00
C577   C     0.83548   0.83188   0.38399   0.00000  Uiso   1.00
C578   C     0.83118   0.83478   0.11601   0.00000  Uiso   1.00
C579   C     0.81180   0.86525   0.40578   0.00000  Uiso   1.00
C580   C     0.85487   0.80142   0.09422   0.00000  Uiso   1.00
C581   C     0.81094   0.86610   0.45173   0.00000  Uiso   1.00
C582   C     0.85573   0.80057   0.04827   0.00000  Uiso   1.00
C583   C     0.83414   0.83302   0.47669   0.00000  Uiso   1.00
C584   C     0.83252   0.83365   0.02331   0.00000  Uiso   1.00
C585   C     0.85893   0.79938   0.45514   0.00000  Uiso   1.00
C586   C     0.80774   0.86729   0.04486   0.00000  Uiso   1.00
C587   C     0.78693   0.89960   0.47298   0.00000  Uiso   1.00
C588   C     0.87973   0.76707   0.02702   0.00000  Uiso   1.00
C589   C     0.78546   0.90041   0.01895   0.00000  Uiso   1.00
C590   C     0.88121   0.76625   0.48105   0.00000  Uiso   1.00
H591   H     0.79348   0.89045   0.38670   0.00000  Uiso   1.00
H592   H     0.87319   0.77622   0.11330   0.00000  Uiso   1.00
H593   H     0.76926   0.92539   0.45398   0.00000  Uiso   1.00
H594   H     0.89740   0.74128   0.04602   0.00000  Uiso   1.00
H595   H     0.76699   0.92755   0.03379   0.00000  Uiso   1.00
H596   H     0.89968   0.73912   0.46621   0.00000  Uiso   1.00
C597   C     0.68801   0.80677   0.21827   0.00000  Uiso   1.00
C598   C     0.97866   0.85989   0.28173   0.00000  Uiso   1.00
C599   C     0.97830   0.80581   0.21939   0.00000  Uiso   1.00
C600   C     0.68836   0.86086   0.28062   0.00000  Uiso   1.00
C601   C     0.95717   0.83245   0.25091   0.00000  Uiso   1.00
C602   C     0.70950   0.83421   0.24909   0.00000  Uiso   1.00
C603   C     0.80354   0.69205   0.22763   0.00000  Uiso   1.00
C604   C     0.86312   0.97462   0.27237   0.00000  Uiso   1.00
C605   C     0.86320   0.69086   0.27224   0.00000  Uiso   1.00
C606   C     0.80346   0.97580   0.22776   0.00000  Uiso   1.00
H607   H     0.77975   0.71115   0.20956   0.00000  Uiso   1.00
H608   H     0.88691   0.95552   0.29044   0.00000  Uiso   1.00
H609   H     0.88729   0.70899   0.28986   0.00000  Uiso   1.00
H610   H     0.77937   0.95767   0.21015   0.00000  Uiso   1.00
N611   N     0.83333   0.95069   0.25000   0.00000  Uiso   1.00
N612   N     0.83333   0.71598   0.25000   0.00000  Uiso   1.00
C613   C     0.88808   0.76670   0.38501   0.00000  Uiso   1.00
H614   H     0.87576   0.74162   0.36197   0.00000  Uiso   1.00
O615   O     0.92528   0.76801   0.39144   0.00000  Uiso   1.00
C616   C     0.77858   0.89996   0.11499   0.00000  Uiso   1.00
H617   H     0.79089   0.92503   0.13804   0.00000  Uiso   1.00
O618   O     0.74138   0.89865   0.10855   0.00000  Uiso   1.00
N619   N     0.70965   0.78076   0.18518   0.00000  Uiso   1.00
O620   O     0.70045   0.73724   0.17802   0.00000  Uiso   1.00
O621   O     0.73698   0.80125   0.16037   0.00000  Uiso   1.00
N622   N     0.95702   0.88590   0.31482   0.00000  Uiso   1.00
O623   O     0.96622   0.92942   0.32198   0.00000  Uiso   1.00
O624   O     0.92969   0.86541   0.33963   0.00000  Uiso   1.00
N625   N     0.95602   0.78087   0.18610   0.00000  Uiso   1.00
O626   O     0.95584   0.79627   0.14531   0.00000  Uiso   1.00
O627   O     0.94135   0.73954   0.19513   0.00000  Uiso   1.00
N628   N     0.71064   0.88579   0.31391   0.00000  Uiso   1.00
O629   O     0.71082   0.87040   0.35470   0.00000  Uiso   1.00
O630   O     0.72532   0.92711   0.30488   0.00000  Uiso   1.00
O631   O     0.10655   0.20625   0.74999   0.00000  Uiso   1.00
O632   O     0.22679   0.12709   0.75001   0.00000  Uiso   1.00
O633   O     0.22679   0.20625   0.75001   0.00000  Uiso   1.00
O634   O     0.10655   0.12709   0.74999   0.00000  Uiso   1.00
C635   C     0.08746   0.16687   0.74981   0.00000  Uiso   1.00
C636   C     0.24587   0.16646   0.75020   0.00000  Uiso   1.00
O637   O     0.16666   0.20627   0.68513   0.00000  Uiso   1.00
O638   O     0.16668   0.12707   0.81487   0.00000  Uiso   1.00
O639   O     0.16668   0.20627   0.81487   0.00000  Uiso   1.00
O640   O     0.16666   0.12707   0.68513   0.00000  Uiso   1.00
C641   C     0.16555   0.16711   0.66439   0.00000  Uiso   1.00
C642   C     0.16778   0.16622   0.83561   0.00000  Uiso   1.00
Cu643  Cu    0.16667   0.21355   0.75000   0.00000  Uiso   1.00
Cu644  Cu    0.16667   0.11978   0.75000   0.00000  Uiso   1.00
C645   C     0.19342   0.13255   0.90835   0.00000  Uiso   1.00
C646   C     0.13991   0.20078   0.59165   0.00000  Uiso   1.00
C647   C     0.16882   0.16522   0.88399   0.00000  Uiso   1.00
C648   C     0.16452   0.16812   0.61601   0.00000  Uiso   1.00
C649   C     0.14514   0.19858   0.90578   0.00000  Uiso   1.00
C650   C     0.18820   0.13475   0.59422   0.00000  Uiso   1.00
C651   C     0.14427   0.19943   0.95173   0.00000  Uiso   1.00
C652   C     0.18906   0.13390   0.54827   0.00000  Uiso   1.00
C653   C     0.16748   0.16635   0.97669   0.00000  Uiso   1.00
C654   C     0.16586   0.16698   0.52331   0.00000  Uiso   1.00
C655   C     0.19226   0.13271   0.95514   0.00000  Uiso   1.00
C656   C     0.14107   0.20062   0.54486   0.00000  Uiso   1.00
C657   C     0.12027   0.23294   0.97298   0.00000  Uiso   1.00
C658   C     0.21307   0.10040   0.52702   0.00000  Uiso   1.00
C659   C     0.11879   0.23375   0.51895   0.00000  Uiso   1.00
C660   C     0.21454   0.09959   0.98105   0.00000  Uiso   1.00
H661   H     0.12681   0.22378   0.88670   0.00000  Uiso   1.00
H662   H     0.20652   0.10955   0.61330   0.00000  Uiso   1.00
H663   H     0.10260   0.25872   0.95398   0.00000  Uiso   1.00
H664   H     0.23074   0.07461   0.54602   0.00000  Uiso   1.00
H665   H     0.10032   0.26089   0.53379   0.00000  Uiso   1.00
H666   H     0.23301   0.07245   0.96621   0.00000  Uiso   1.00
C667   C     0.02134   0.14011   0.71827   0.00000  Uiso   1.00
C668   C     0.31199   0.19322   0.78173   0.00000  Uiso   1.00
C669   C     0.31164   0.13914   0.71939   0.00000  Uiso   1.00
C670   C     0.02169   0.19419   0.78062   0.00000  Uiso   1.00
C671   C     0.29050   0.16578   0.75091   0.00000  Uiso   1.00
C672   C     0.04283   0.16755   0.74909   0.00000  Uiso   1.00
C673   C     0.13688   0.02538   0.72763   0.00000  Uiso   1.00
C674   C     0.19646   0.30795   0.77237   0.00000  Uiso   1.00
C675   C     0.19654   0.02420   0.77224   0.00000  Uiso   1.00
C676   C     0.13680   0.30914   0.72776   0.00000  Uiso   1.00
H677   H     0.11309   0.04448   0.70956   0.00000  Uiso   1.00
H678   H     0.22025   0.28885   0.79044   0.00000  Uiso   1.00
H679   H     0.22063   0.04233   0.78986   0.00000  Uiso   1.00
H680   H     0.11271   0.29101   0.71015   0.00000  Uiso   1.00
N681   N     0.16667   0.28402   0.75000   0.00000  Uiso   1.00
N682   N     0.16667   0.04931   0.75000   0.00000  Uiso   1.00
C683   C     0.22141   0.10003   0.88501   0.00000  Uiso   1.00
H684   H     0.20909   0.07495   0.86197   0.00000  Uiso   1.00
O685   O     0.25861   0.10134   0.89144   0.00000  Uiso   1.00
C686   C     0.11191   0.23330   0.61499   0.00000  Uiso   1.00
H687   H     0.12422   0.25837   0.63804   0.00000  Uiso   1.00
O688   O     0.07471   0.23198   0.60855   0.00000  Uiso   1.00
N689   N     0.04298   0.11410   0.68518   0.00000  Uiso   1.00
O690   O     0.03378   0.07057   0.67802   0.00000  Uiso   1.00
O691   O     0.07031   0.13459   0.66037   0.00000  Uiso   1.00
N692   N     0.29035   0.21924   0.81482   0.00000  Uiso   1.00
O693   O     0.29955   0.26276   0.82198   0.00000  Uiso   1.00
O694   O     0.26302   0.19875   0.83963   0.00000  Uiso   1.00
N695   N     0.28935   0.11420   0.68610   0.00000  Uiso   1.00
O696   O     0.28917   0.12960   0.64531   0.00000  Uiso   1.00
O697   O     0.27469   0.07288   0.69513   0.00000  Uiso   1.00
N698   N     0.04398   0.21913   0.81391   0.00000  Uiso   1.00
O699   O     0.04415   0.20373   0.85470   0.00000  Uiso   1.00
O700   O     0.05865   0.26045   0.80488   0.00000  Uiso   1.00
O701   O     0.43988   0.20625   0.74999   0.00000  Uiso   1.00
O702   O     0.56012   0.12709   0.75001   0.00000  Uiso   1.00
O703   O     0.56012   0.20625   0.75001   0.00000  Uiso   1.00
O704   O     0.43988   0.12709   0.74999   0.00000  Uiso   1.00
C705   C     0.42079   0.16687   0.74981   0.00000  Uiso   1.00
C706   C     0.57920   0.16646   0.75020   0.00000  Uiso   1.00
O707   O     0.49999   0.20627   0.68513   0.00000  Uiso   1.00
O708   O     0.50001   0.12707   0.81487   0.00000  Uiso   1.00
O709   O     0.50001   0.20627   0.81487   0.00000  Uiso   1.00
O710   O     0.49999   0.12707   0.68513   0.00000  Uiso   1.00
C711   C     0.49889   0.16711   0.66439   0.00000  Uiso   1.00
C712   C     0.50111   0.16622   0.83561   0.00000  Uiso   1.00
Cu713  Cu    0.50000   0.21355   0.75000   0.00000  Uiso   1.00
Cu714  Cu    0.50000   0.11978   0.75000   0.00000  Uiso   1.00
C715   C     0.52676   0.13255   0.90835   0.00000  Uiso   1.00
C716   C     0.47324   0.20078   0.59165   0.00000  Uiso   1.00
C717   C     0.50215   0.16522   0.88399   0.00000  Uiso   1.00
C718   C     0.49785   0.16812   0.61601   0.00000  Uiso   1.00
C719   C     0.47847   0.19858   0.90578   0.00000  Uiso   1.00
C720   C     0.52153   0.13475   0.59422   0.00000  Uiso   1.00
C721   C     0.47761   0.19943   0.95173   0.00000  Uiso   1.00
C722   C     0.52240   0.13390   0.54827   0.00000  Uiso   1.00
C723   C     0.50081   0.16635   0.97669   0.00000  Uiso   1.00
C724   C     0.49919   0.16698   0.52331   0.00000  Uiso   1.00
C725   C     0.52559   0.13271   0.95514   0.00000  Uiso   1.00
C726   C     0.47441   0.20062   0.54486   0.00000  Uiso   1.00
C727   C     0.45360   0.23294   0.97298   0.00000  Uiso   1.00
C728   C     0.54640   0.10040   0.52702   0.00000  Uiso   1.00
C729   C     0.45213   0.23375   0.51895   0.00000  Uiso   1.00
C730   C     0.54787   0.09959   0.98105   0.00000  Uiso   1.00
H731   H     0.46015   0.22378   0.88670   0.00000  Uiso   1.00
H732   H     0.53986   0.10955   0.61330   0.00000  Uiso   1.00
H733   H     0.43593   0.25872   0.95398   0.00000  Uiso   1.00
H734   H     0.56407   0.07461   0.54602   0.00000  Uiso   1.00
H735   H     0.43365   0.26089   0.53379   0.00000  Uiso   1.00
H736   H     0.56635   0.07245   0.96621   0.00000  Uiso   1.00
C737   C     0.35467   0.14011   0.71827   0.00000  Uiso   1.00
C738   C     0.64532   0.19322   0.78173   0.00000  Uiso   1.00
C739   C     0.64497   0.13914   0.71939   0.00000  Uiso   1.00
C740   C     0.35503   0.19419   0.78062   0.00000  Uiso   1.00
C741   C     0.62383   0.16578   0.75091   0.00000  Uiso   1.00
C742   C     0.37617   0.16755   0.74909   0.00000  Uiso   1.00
C743   C     0.47021   0.02538   0.72763   0.00000  Uiso   1.00
C744   C     0.52979   0.30795   0.77237   0.00000  Uiso   1.00
C745   C     0.52987   0.02420   0.77224   0.00000  Uiso   1.00
C746   C     0.47013   0.30914   0.72776   0.00000  Uiso   1.00
H747   H     0.44642   0.04448   0.70956   0.00000  Uiso   1.00
H748   H     0.55358   0.28885   0.79044   0.00000  Uiso   1.00
H749   H     0.55396   0.04233   0.78986   0.00000  Uiso   1.00
H750   H     0.44604   0.29101   0.71015   0.00000  Uiso   1.00
N751   N     0.50000   0.28402   0.75000   0.00000  Uiso   1.00
N752   N     0.50000   0.04931   0.75000   0.00000  Uiso   1.00
C753   C     0.55474   0.10003   0.88501   0.00000  Uiso   1.00
H754   H     0.54243   0.07495   0.86197   0.00000  Uiso   1.00
O755   O     0.59195   0.10134   0.89144   0.00000  Uiso   1.00
C756   C     0.44524   0.23330   0.61499   0.00000  Uiso   1.00
H757   H     0.45755   0.25837   0.63804   0.00000  Uiso   1.00
O758   O     0.40805   0.23198   0.60855   0.00000  Uiso   1.00
N759   N     0.37631   0.11410   0.68518   0.00000  Uiso   1.00
O760   O     0.36712   0.07057   0.67802   0.00000  Uiso   1.00
O761   O     0.40364   0.13459   0.66037   0.00000  Uiso   1.00
N762   N     0.62369   0.21924   0.81482   0.00000  Uiso   1.00
O763   O     0.63288   0.26276   0.82198   0.00000  Uiso   1.00
O764   O     0.59635   0.19875   0.83963   0.00000  Uiso   1.00
N765   N     0.62269   0.11420   0.68610   0.00000  Uiso   1.00
O766   O     0.62250   0.12960   0.64531   0.00000  Uiso   1.00
O767   O     0.60802   0.07288   0.69513   0.00000  Uiso   1.00
N768   N     0.37731   0.21913   0.81391   0.00000  Uiso   1.00
O769   O     0.37748   0.20373   0.85470   0.00000  Uiso   1.00
O770   O     0.39199   0.26045   0.80488   0.00000  Uiso   1.00
O771   O     0.77321   0.20625   0.74999   0.00000  Uiso   1.00
O772   O     0.89345   0.12709   0.75001   0.00000  Uiso   1.00
O773   O     0.89345   0.20625   0.75001   0.00000  Uiso   1.00
O774   O     0.77321   0.12709   0.74999   0.00000  Uiso   1.00
C775   C     0.75413   0.16687   0.74981   0.00000  Uiso   1.00
C776   C     0.91254   0.16646   0.75020   0.00000  Uiso   1.00
O777   O     0.83332   0.20627   0.68513   0.00000  Uiso   1.00
O778   O     0.83334   0.12707   0.81487   0.00000  Uiso   1.00
O779   O     0.83334   0.20627   0.81487   0.00000  Uiso   1.00
O780   O     0.83332   0.12707   0.68513   0.00000  Uiso   1.00
C781   C     0.83222   0.16711   0.66439   0.00000  Uiso   1.00
C782   C     0.83444   0.16622   0.83561   0.00000  Uiso   1.00
Cu783  Cu    0.83333   0.21355   0.75000   0.00000  Uiso   1.00
Cu784  Cu    0.83333   0.11978   0.75000   0.00000  Uiso   1.00
C785   C     0.86009   0.13255   0.90835   0.00000  Uiso   1.00
C786   C     0.80657   0.20078   0.59165   0.00000  Uiso   1.00
C787   C     0.83548   0.16522   0.88399   0.00000  Uiso   1.00
C788   C     0.83118   0.16812   0.61601   0.00000  Uiso   1.00
C789   C     0.81180   0.19858   0.90578   0.00000  Uiso   1.00
C790   C     0.85487   0.13475   0.59422   0.00000  Uiso   1.00
C791   C     0.81094   0.19943   0.95173   0.00000  Uiso   1.00
C792   C     0.85573   0.13390   0.54827   0.00000  Uiso   1.00
C793   C     0.83414   0.16635   0.97669   0.00000  Uiso   1.00
C794   C     0.83252   0.16698   0.52331   0.00000  Uiso   1.00
C795   C     0.85893   0.13271   0.95514   0.00000  Uiso   1.00
C796   C     0.80774   0.20062   0.54486   0.00000  Uiso   1.00
C797   C     0.78693   0.23294   0.97298   0.00000  Uiso   1.00
C798   C     0.87973   0.10040   0.52702   0.00000  Uiso   1.00
C799   C     0.78546   0.23375   0.51895   0.00000  Uiso   1.00
C800   C     0.88121   0.09959   0.98105   0.00000  Uiso   1.00
H801   H     0.79348   0.22378   0.88670   0.00000  Uiso   1.00
H802   H     0.87319   0.10955   0.61330   0.00000  Uiso   1.00
H803   H     0.76926   0.25872   0.95398   0.00000  Uiso   1.00
H804   H     0.89740   0.07461   0.54602   0.00000  Uiso   1.00
H805   H     0.76699   0.26089   0.53379   0.00000  Uiso   1.00
H806   H     0.89968   0.07245   0.96621   0.00000  Uiso   1.00
C807   C     0.68801   0.14011   0.71827   0.00000  Uiso   1.00
C808   C     0.97866   0.19322   0.78173   0.00000  Uiso   1.00
C809   C     0.97830   0.13914   0.71939   0.00000  Uiso   1.00
C810   C     0.68836   0.19419   0.78062   0.00000  Uiso   1.00
C811   C     0.95717   0.16578   0.75091   0.00000  Uiso   1.00
C812   C     0.70950   0.16755   0.74909   0.00000  Uiso   1.00
C813   C     0.80354   0.02538   0.72763   0.00000  Uiso   1.00
C814   C     0.86312   0.30795   0.77237   0.00000  Uiso   1.00
C815   C     0.86320   0.02420   0.77224   0.00000  Uiso   1.00
C816   C     0.80346   0.30914   0.72776   0.00000  Uiso   1.00
H817   H     0.77975   0.04448   0.70956   0.00000  Uiso   1.00
H818   H     0.88691   0.28885   0.79044   0.00000  Uiso   1.00
H819   H     0.88729   0.04233   0.78986   0.00000  Uiso   1.00
H820   H     0.77937   0.29101   0.71015   0.00000  Uiso   1.00
N821   N     0.83333   0.28402   0.75000   0.00000  Uiso   1.00
N822   N     0.83333   0.04931   0.75000   0.00000  Uiso   1.00
C823   C     0.88808   0.10003   0.88501   0.00000  Uiso   1.00
H824   H     0.87576   0.07495   0.86197   0.00000  Uiso   1.00
O825   O     0.92528   0.10134   0.89144   0.00000  Uiso   1.00
C826   C     0.77858   0.23330   0.61499   0.00000  Uiso   1.00
H827   H     0.79089   0.25837   0.63804   0.00000  Uiso   1.00
O828   O     0.74138   0.23198   0.60855   0.00000  Uiso   1.00
N829   N     0.70965   0.11410   0.68518   0.00000  Uiso   1.00
O830   O     0.70045   0.07057   0.67802   0.00000  Uiso   1.00
O831   O     0.73698   0.13459   0.66037   0.00000  Uiso   1.00
N832   N     0.95702   0.21924   0.81482   0.00000  Uiso   1.00
O833   O     0.96622   0.26276   0.82198   0.00000  Uiso   1.00
O834   O     0.92969   0.19875   0.83963   0.00000  Uiso   1.00
N835   N     0.95602   0.11420   0.68610   0.00000  Uiso   1.00
O836   O     0.95584   0.12960   0.64531   0.00000  Uiso   1.00
O837   O     0.94135   0.07288   0.69513   0.00000  Uiso   1.00
N838   N     0.71064   0.21913   0.81391   0.00000  Uiso   1.00
O839   O     0.71082   0.20373   0.85470   0.00000  Uiso   1.00
O840   O     0.72532   0.26045   0.80488   0.00000  Uiso   1.00
O841   O     0.10655   0.53958   0.74999   0.00000  Uiso   1.00
O842   O     0.22679   0.46042   0.75001   0.00000  Uiso   1.00
O843   O     0.22679   0.53958   0.75001   0.00000  Uiso   1.00
O844   O     0.10655   0.46042   0.74999   0.00000  Uiso   1.00
C845   C     0.08746   0.50021   0.74981   0.00000  Uiso   1.00
C846   C     0.24587   0.49979   0.75020   0.00000  Uiso   1.00
O847   O     0.16666   0.53960   0.68513   0.00000  Uiso   1.00
O848   O     0.16668   0.46040   0.81487   0.00000  Uiso   1.00
O849   O     0.16668   0.53960   0.81487   0.00000  Uiso   1.00
O850   O     0.16666   0.46040   0.68513   0.00000  Uiso   1.00
C851   C     0.16555   0.50045   0.66439   0.00000  Uiso   1.00
C852   C     0.16778   0.49955   0.83561   0.00000  Uiso   1.00
Cu853  Cu    0.16667   0.54689   0.75000   0.00000  Uiso   1.00
Cu854  Cu    0.16667   0.45311   0.75000   0.00000  Uiso   1.00
C855   C     0.19342   0.46589   0.90835   0.00000  Uiso   1.00
C856   C     0.13991   0.53411   0.59165   0.00000  Uiso   1.00
C857   C     0.16882   0.49855   0.88399   0.00000  Uiso   1.00
C858   C     0.16452   0.50145   0.61601   0.00000  Uiso   1.00
C859   C     0.14514   0.53192   0.90578   0.00000  Uiso   1.00
C860   C     0.18820   0.46809   0.59422   0.00000  Uiso   1.00
C861   C     0.14427   0.53276   0.95173   0.00000  Uiso   1.00
C862   C     0.18906   0.46724   0.54827   0.00000  Uiso   1.00
C863   C     0.16748   0.49969   0.97669   0.00000  Uiso   1.00
C864   C     0.16586   0.50031   0.52331   0.00000  Uiso   1.00
C865   C     0.19226   0.46604   0.95514   0.00000  Uiso   1.00
C866   C     0.14107   0.53396   0.54486   0.00000  Uiso   1.00
C867   C     0.12027   0.56627   0.97298   0.00000  Uiso   1.00
C868   C     0.21307   0.43373   0.52702   0.00000  Uiso   1.00
C869   C     0.11879   0.56708   0.51895   0.00000  Uiso   1.00
C870   C     0.21454   0.43292   0.98105   0.00000  Uiso   1.00
H871   H     0.12681   0.55711   0.88670   0.00000  Uiso   1.00
H872   H     0.20652   0.44289   0.61330   0.00000  Uiso   1.00
H873   H     0.10260   0.59206   0.95398   0.00000  Uiso   1.00
H874   H     0.23074   0.40794   0.54602   0.00000  Uiso   1.00
H875   H     0.10032   0.59422   0.53379   0.00000  Uiso   1.00
H876   H     0.23301   0.40578   0.96621   0.00000  Uiso   1.00
C877   C     0.02134   0.47344   0.71827   0.00000  Uiso   1.00
C878   C     0.31199   0.52656   0.78173   0.00000  Uiso   1.00
C879   C     0.31164   0.47248   0.71939   0.00000  Uiso   1.00
C880   C     0.02169   0.52752   0.78062   0.00000  Uiso   1.00
C881   C     0.29050   0.49912   0.75091   0.00000  Uiso   1.00
C882   C     0.04283   0.50088   0.74909   0.00000  Uiso   1.00
C883   C     0.13688   0.35872   0.72763   0.00000  Uiso   1.00
C884   C     0.19646   0.64128   0.77237   0.00000  Uiso   1.00
C885   C     0.19654   0.35753   0.77224   0.00000  Uiso   1.00
C886   C     0.13680   0.64247   0.72776   0.00000  Uiso   1.00
H887   H     0.11309   0.37782   0.70956   0.00000  Uiso   1.00
H888   H     0.22025   0.62218   0.79044   0.00000  Uiso   1.00
H889   H     0.22063   0.37566   0.78986   0.00000  Uiso   1.00
H890   H     0.11271   0.62434   0.71015   0.00000  Uiso   1.00
N891   N     0.16667   0.61736   0.75000   0.00000  Uiso   1.00
N892   N     0.16667   0.38264   0.75000   0.00000  Uiso   1.00
C893   C     0.22141   0.43336   0.88501   0.00000  Uiso   1.00
H894   H     0.20909   0.40828   0.86197   0.00000  Uiso   1.00
O895   O     0.25861   0.43468   0.89144   0.00000  Uiso   1.00
C896   C     0.11191   0.56663   0.61499   0.00000  Uiso   1.00
H897   H     0.12422   0.59170   0.63804   0.00000  Uiso   1.00
O898   O     0.07471   0.56532   0.60855   0.00000  Uiso   1.00
N899   N     0.04298   0.44743   0.68518   0.00000  Uiso   1.00
O900   O     0.03378   0.40391   0.67802   0.00000  Uiso   1.00
O901   O     0.07031   0.46792   0.66037   0.00000  Uiso   1.00
N902   N     0.29035   0.55257   0.81482   0.00000  Uiso   1.00
O903   O     0.29955   0.59609   0.82198   0.00000  Uiso   1.00
O904   O     0.26302   0.53208   0.83963   0.00000  Uiso   1.00
N905   N     0.28935   0.44753   0.68610   0.00000  Uiso   1.00
O906   O     0.28917   0.46293   0.64531   0.00000  Uiso   1.00
O907   O     0.27469   0.40621   0.69513   0.00000  Uiso   1.00
N908   N     0.04398   0.55246   0.81391   0.00000  Uiso   1.00
O909   O     0.04415   0.53707   0.85470   0.00000  Uiso   1.00
O910   O     0.05865   0.59378   0.80488   0.00000  Uiso   1.00
O911   O     0.43988   0.53958   0.74999   0.00000  Uiso   1.00
O912   O     0.56012   0.46042   0.75001   0.00000  Uiso   1.00
O913   O     0.56012   0.53958   0.75001   0.00000  Uiso   1.00
O914   O     0.43988   0.46042   0.74999   0.00000  Uiso   1.00
C915   C     0.42079   0.50021   0.74981   0.00000  Uiso   1.00
C916   C     0.57920   0.49979   0.75020   0.00000  Uiso   1.00
O917   O     0.49999   0.53960   0.68513   0.00000  Uiso   1.00
O918   O     0.50001   0.46040   0.81487   0.00000  Uiso   1.00
O919   O     0.50001   0.53960   0.81487   0.00000  Uiso   1.00
O920   O     0.49999   0.46040   0.68513   0.00000  Uiso   1.00
C921   C     0.49889   0.50045   0.66439   0.00000  Uiso   1.00
C922   C     0.50111   0.49955   0.83561   0.00000  Uiso   1.00
Cu923  Cu    0.50000   0.54689   0.75000   0.00000  Uiso   1.00
Cu924  Cu    0.50000   0.45311   0.75000   0.00000  Uiso   1.00
C925   C     0.52676   0.46589   0.90835   0.00000  Uiso   1.00
C926   C     0.47324   0.53411   0.59165   0.00000  Uiso   1.00
C927   C     0.50215   0.49855   0.88399   0.00000  Uiso   1.00
C928   C     0.49785   0.50145   0.61601   0.00000  Uiso   1.00
C929   C     0.47847   0.53192   0.90578   0.00000  Uiso   1.00
C930   C     0.52153   0.46809   0.59422   0.00000  Uiso   1.00
C931   C     0.47761   0.53276   0.95173   0.00000  Uiso   1.00
C932   C     0.52240   0.46724   0.54827   0.00000  Uiso   1.00
C933   C     0.50081   0.49969   0.97669   0.00000  Uiso   1.00
C934   C     0.49919   0.50031   0.52331   0.00000  Uiso   1.00
C935   C     0.52559   0.46604   0.95514   0.00000  Uiso   1.00
C936   C     0.47441   0.53396   0.54486   0.00000  Uiso   1.00
C937   C     0.45360   0.56627   0.97298   0.00000  Uiso   1.00
C938   C     0.54640   0.43373   0.52702   0.00000  Uiso   1.00
C939   C     0.45213   0.56708   0.51895   0.00000  Uiso   1.00
C940   C     0.54787   0.43292   0.98105   0.00000  Uiso   1.00
H941   H     0.46015   0.55711   0.88670   0.00000  Uiso   1.00
H942   H     0.53986   0.44289   0.61330   0.00000  Uiso   1.00
H943   H     0.43593   0.59206   0.95398   0.00000  Uiso   1.00
H944   H     0.56407   0.40794   0.54602   0.00000  Uiso   1.00
H945   H     0.43365   0.59422   0.53379   0.00000  Uiso   1.00
H946   H     0.56635   0.40578   0.96621   0.00000  Uiso   1.00
C947   C     0.35467   0.47344   0.71827   0.00000  Uiso   1.00
C948   C     0.64532   0.52656   0.78173   0.00000  Uiso   1.00
C949   C     0.64497   0.47248   0.71939   0.00000  Uiso   1.00
C950   C     0.35503   0.52752   0.78062   0.00000  Uiso   1.00
C951   C     0.62383   0.49912   0.75091   0.00000  Uiso   1.00
C952   C     0.37617   0.50088   0.74909   0.00000  Uiso   1.00
C953   C     0.47021   0.35872   0.72763   0.00000  Uiso   1.00
C954   C     0.52979   0.64128   0.77237   0.00000  Uiso   1.00
C955   C     0.52987   0.35753   0.77224   0.00000  Uiso   1.00
C956   C     0.47013   0.64247   0.72776   0.00000  Uiso   1.00
H957   H     0.44642   0.37782   0.70956   0.00000  Uiso   1.00
H958   H     0.55358   0.62218   0.79044   0.00000  Uiso   1.00
H959   H     0.55396   0.37566   0.78986   0.00000  Uiso   1.00
H960   H     0.44604   0.62434   0.71015   0.00000  Uiso   1.00
N961   N     0.50000   0.61736   0.75000   0.00000  Uiso   1.00
N962   N     0.50000   0.38264   0.75000   0.00000  Uiso   1.00
C963   C     0.55474   0.43336   0.88501   0.00000  Uiso   1.00
H964   H     0.54243   0.40828   0.86197   0.00000  Uiso   1.00
O965   O     0.59195   0.43468   0.89144   0.00000  Uiso   1.00
C966   C     0.44524   0.56663   0.61499   0.00000  Uiso   1.00
H967   H     0.45755   0.59170   0.63804   0.00000  Uiso   1.00
O968   O     0.40805   0.56532   0.60855   0.00000  Uiso   1.00
N969   N     0.37631   0.44743   0.68518   0.00000  Uiso   1.00
O970   O     0.36712   0.40391   0.67802   0.00000  Uiso   1.00
O971   O     0.40364   0.46792   0.66037   0.00000  Uiso   1.00
N972   N     0.62369   0.55257   0.81482   0.00000  Uiso   1.00
O973   O     0.63288   0.59609   0.82198   0.00000  Uiso   1.00
O974   O     0.59635   0.53208   0.83963   0.00000  Uiso   1.00
N975   N     0.62269   0.44753   0.68610   0.00000  Uiso   1.00
O976   O     0.62250   0.46293   0.64531   0.00000  Uiso   1.00
O977   O     0.60802   0.40621   0.69513   0.00000  Uiso   1.00
N978   N     0.37731   0.55246   0.81391   0.00000  Uiso   1.00
O979   O     0.37748   0.53707   0.85470   0.00000  Uiso   1.00
O980   O     0.39199   0.59378   0.80488   0.00000  Uiso   1.00
O981   O     0.77321   0.53958   0.74999   0.00000  Uiso   1.00
O982   O     0.89345   0.46042   0.75001   0.00000  Uiso   1.00
O983   O     0.89345   0.53958   0.75001   0.00000  Uiso   1.00
O984   O     0.77321   0.46042   0.74999   0.00000  Uiso   1.00
C985   C     0.75413   0.50021   0.74981   0.00000  Uiso   1.00
C986   C     0.91254   0.49979   0.75020   0.00000  Uiso   1.00
O987   O     0.83332   0.53960   0.68513   0.00000  Uiso   1.00
O988   O     0.83334   0.46040   0.81487   0.00000  Uiso   1.00
O989   O     0.83334   0.53960   0.81487   0.00000  Uiso   1.00
O990   O     0.83332   0.46040   0.68513   0.00000  Uiso   1.00
C991   C     0.83222   0.50045   0.66439   0.00000  Uiso   1.00
C992   C     0.83444   0.49955   0.83561   0.00000  Uiso   1.00
Cu993  Cu    0.83333   0.54689   0.75000   0.00000  Uiso   1.00
Cu994  Cu    0.83333   0.45311   0.75000   0.00000  Uiso   1.00
C995   C     0.86009   0.46589   0.90835   0.00000  Uiso   1.00
C996   C     0.80657   0.53411   0.59165   0.00000  Uiso   1.00
C997   C     0.83548   0.49855   0.88399   0.00000  Uiso   1.00
C998   C     0.83118   0.50145   0.61601   0.00000  Uiso   1.00
C999   C     0.81180   0.53192   0.90578   0.00000  Uiso   1.00
C1000  C     0.85487   0.46809   0.59422   0.00000  Uiso   1.00
C1001  C     0.81094   0.53276   0.95173   0.00000  Uiso   1.00
C1002  C     0.85573   0.46724   0.54827   0.00000  Uiso   1.00
C1003  C     0.83414   0.49969   0.97669   0.00000  Uiso   1.00
C1004  C     0.83252   0.50031   0.52331   0.00000  Uiso   1.00
C1005  C     0.85893   0.46604   0.95514   0.00000  Uiso   1.00
C1006  C     0.80774   0.53396   0.54486   0.00000  Uiso   1.00
C1007  C     0.78693   0.56627   0.97298   0.00000  Uiso   1.00
C1008  C     0.87973   0.43373   0.52702   0.00000  Uiso   1.00
C1009  C     0.78546   0.56708   0.51895   0.00000  Uiso   1.00
C1010  C     0.88121   0.43292   0.98105   0.00000  Uiso   1.00
H1011  H     0.79348   0.55711   0.88670   0.00000  Uiso   1.00
H1012  H     0.87319   0.44289   0.61330   0.00000  Uiso   1.00
H1013  H     0.76926   0.59206   0.95398   0.00000  Uiso   1.00
H1014  H     0.89740   0.40794   0.54602   0.00000  Uiso   1.00
H1015  H     0.76699   0.59422   0.53379   0.00000  Uiso   1.00
H1016  H     0.89968   0.40578   0.96621   0.00000  Uiso   1.00
C1017  C     0.68801   0.47344   0.71827   0.00000  Uiso   1.00
C1018  C     0.97866   0.52656   0.78173   0.00000  Uiso   1.00
C1019  C     0.97830   0.47248   0.71939   0.00000  Uiso   1.00
C1020  C     0.68836   0.52752   0.78062   0.00000  Uiso   1.00
C1021  C     0.95717   0.49912   0.75091   0.00000  Uiso   1.00
C1022  C     0.70950   0.50088   0.74909   0.00000  Uiso   1.00
C1023  C     0.80354   0.35872   0.72763   0.00000  Uiso   1.00
C1024  C     0.86312   0.64128   0.77237   0.00000  Uiso   1.00
C1025  C     0.86320   0.35753   0.77224   0.00000  Uiso   1.00
C1026  C     0.80346   0.64247   0.72776   0.00000  Uiso   1.00
H1027  H     0.77975   0.37782   0.70956   0.00000  Uiso   1.00
H1028  H     0.88691   0.62218   0.79044   0.00000  Uiso   1.00
H1029  H     0.88729   0.37566   0.78986   0.00000  Uiso   1.00
H1030  H     0.77937   0.62434   0.71015   0.00000  Uiso   1.00
N1031  N     0.83333   0.61736   0.75000   0.00000  Uiso   1.00
N1032  N     0.83333   0.38264   0.75000   0.00000  Uiso   1.00
C1033  C     0.88808   0.43336   0.88501   0.00000  Uiso   1.00
H1034  H     0.87576   0.40828   0.86197   0.00000  Uiso   1.00
O1035  O     0.92528   0.43468   0.89144   0.00000  Uiso   1.00
C1036  C     0.77858   0.56663   0.61499   0.00000  Uiso   1.00
H1037  H     0.79089   0.59170   0.63804   0.00000  Uiso   1.00
O1038  O     0.74138   0.56532   0.60855   0.00000  Uiso   1.00
N1039  N     0.70965   0.44743   0.68518   0.00000  Uiso   1.00
O1040  O     0.70045   0.40391   0.67802   0.00000  Uiso   1.00
O1041  O     0.73698   0.46792   0.66037   0.00000  Uiso   1.00
N1042  N     0.95702   0.55257   0.81482   0.00000  Uiso   1.00
O1043  O     0.96622   0.59609   0.82198   0.00000  Uiso   1.00
O1044  O     0.92969   0.53208   0.83963   0.00000  Uiso   1.00
N1045  N     0.95602   0.44753   0.68610   0.00000  Uiso   1.00
O1046  O     0.95584   0.46293   0.64531   0.00000  Uiso   1.00
O1047  O     0.94135   0.40621   0.69513   0.00000  Uiso   1.00
N1048  N     0.71064   0.55246   0.81391   0.00000  Uiso   1.00
O1049  O     0.71082   0.53707   0.85470   0.00000  Uiso   1.00
O1050  O     0.72532   0.59378   0.80488   0.00000  Uiso   1.00
O1051  O     0.10655   0.87291   0.74999   0.00000  Uiso   1.00
O1052  O     0.22679   0.79375   0.75001   0.00000  Uiso   1.00
O1053  O     0.22679   0.87291   0.75001   0.00000  Uiso   1.00
O1054  O     0.10655   0.79375   0.74999   0.00000  Uiso   1.00
C1055  C     0.08746   0.83354   0.74981   0.00000  Uiso   1.00
C1056  C     0.24587   0.83313   0.75020   0.00000  Uiso   1.00
O1057  O     0.16666   0.87293   0.68513   0.00000  Uiso   1.00
O1058  O     0.16668   0.79373   0.81487   0.00000  Uiso   1.00
O1059  O     0.16668   0.87293   0.81487   0.00000  Uiso   1.00
O1060  O     0.16666   0.79373   0.68513   0.00000  Uiso   1.00
C1061  C     0.16555   0.83378   0.66439   0.00000  Uiso   1.00
C1062  C     0.16778   0.83289   0.83561   0.00000  Uiso   1.00
Cu1063 Cu    0.16667   0.88022   0.75000   0.00000  Uiso   1.00
Cu1064 Cu    0.16667   0.78645   0.75000   0.00000  Uiso   1.00
C1065  C     0.19342   0.79922   0.90835   0.00000  Uiso   1.00
C1066  C     0.13991   0.86745   0.59165   0.00000  Uiso   1.00
C1067  C     0.16882   0.83188   0.88399   0.00000  Uiso   1.00
C1068  C     0.16452   0.83478   0.61601   0.00000  Uiso   1.00
C1069  C     0.14514   0.86525   0.90578   0.00000  Uiso   1.00
C1070  C     0.18820   0.80142   0.59422   0.00000  Uiso   1.00
C1071  C     0.14427   0.86610   0.95173   0.00000  Uiso   1.00
C1072  C     0.18906   0.80057   0.54827   0.00000  Uiso   1.00
C1073  C     0.16748   0.83302   0.97669   0.00000  Uiso   1.00
C1074  C     0.16586   0.83365   0.52331   0.00000  Uiso   1.00
C1075  C     0.19226   0.79938   0.95514   0.00000  Uiso   1.00
C1076  C     0.14107   0.86729   0.54486   0.00000  Uiso   1.00
C1077  C     0.12027   0.89960   0.97298   0.00000  Uiso   1.00
C1078  C     0.21307   0.76707   0.52702   0.00000  Uiso   1.00
C1079  C     0.11879   0.90041   0.51895   0.00000  Uiso   1.00
C1080  C     0.21454   0.76625   0.98105   0.00000  Uiso   1.00
H1081  H     0.12681   0.89045   0.88670   0.00000  Uiso   1.00
H1082  H     0.20652   0.77622   0.61330   0.00000  Uiso   1.00
H1083  H     0.10260   0.92539   0.95398   0.00000  Uiso   1.00
H1084  H     0.23074   0.74128   0.54602   0.00000  Uiso   1.00
H1085  H     0.10032   0.92755   0.53379   0.00000  Uiso   1.00
H1086  H     0.23301   0.73912   0.96621   0.00000  Uiso   1.00
C1087  C     0.02134   0.80677   0.71827   0.00000  Uiso   1.00
C1088  C     0.31199   0.85989   0.78173   0.00000  Uiso   1.00
C1089  C     0.31164   0.80581   0.71939   0.00000  Uiso   1.00
C1090  C     0.02169   0.86086   0.78062   0.00000  Uiso   1.00
C1091  C     0.29050   0.83245   0.75091   0.00000  Uiso   1.00
C1092  C     0.04283   0.83421   0.74909   0.00000  Uiso   1.00
C1093  C     0.13688   0.69205   0.72763   0.00000  Uiso   1.00
C1094  C     0.19646   0.97462   0.77237   0.00000  Uiso   1.00
C1095  C     0.19654   0.69086   0.77224   0.00000  Uiso   1.00
C1096  C     0.13680   0.97580   0.72776   0.00000  Uiso   1.00
H1097  H     0.11309   0.71115   0.70956   0.00000  Uiso   1.00
H1098  H     0.22025   0.95552   0.79044   0.00000  Uiso   1.00
H1099  H     0.22063   0.70899   0.78986   0.00000  Uiso   1.00
H1100  H     0.11271   0.95767   0.71015   0.00000  Uiso   1.00
N1101  N     0.16667   0.95069   0.75000   0.00000  Uiso   1.00
N1102  N     0.16667   0.71598   0.75000   0.00000  Uiso   1.00
C1103  C     0.22141   0.76670   0.88501   0.00000  Uiso   1.00
H1104  H     0.20909   0.74162   0.86197   0.00000  Uiso   1.00
O1105  O     0.25861   0.76801   0.89144   0.00000  Uiso   1.00
C1106  C     0.11191   0.89996   0.61499   0.00000  Uiso   1.00
H1107  H     0.12422   0.92503   0.63804   0.00000  Uiso   1.00
O1108  O     0.07471   0.89865   0.60855   0.00000  Uiso   1.00
N1109  N     0.04298   0.78076   0.68518   0.00000  Uiso   1.00
O1110  O     0.03378   0.73724   0.67802   0.00000  Uiso   1.00
O1111  O     0.07031   0.80125   0.66037   0.00000  Uiso   1.00
N1112  N     0.29035   0.88590   0.81482   0.00000  Uiso   1.00
O1113  O     0.29955   0.92942   0.82198   0.00000  Uiso   1.00
O1114  O     0.26302   0.86541   0.83963   0.00000  Uiso   1.00
N1115  N     0.28935   0.78087   0.68610   0.00000  Uiso   1.00
O1116  O     0.28917   0.79627   0.64531   0.00000  Uiso   1.00
O1117  O     0.27469   0.73954   0.69513   0.00000  Uiso   1.00
N1118  N     0.04398   0.88579   0.81391   0.00000  Uiso   1.00
O1119  O     0.04415   0.87040   0.85470   0.00000  Uiso   1.00
O1120  O     0.05865   0.92711   0.80488   0.00000  Uiso   1.00
O1121  O     0.43988   0.87291   0.74999   0.00000  Uiso   1.00
O1122  O     0.56012   0.79375   0.75001   0.00000  Uiso   1.00
O1123  O     0.56012   0.87291   0.75001   0.00000  Uiso   1.00
O1124  O     0.43988   0.79375   0.74999   0.00000  Uiso   1.00
C1125  C     0.42079   0.83354   0.74981   0.00000  Uiso   1.00
C1126  C     0.57920   0.83313   0.75020   0.00000  Uiso   1.00
O1127  O     0.49999   0.87293   0.68513   0.00000  Uiso   1.00
O1128  O     0.50001   0.79373   0.81487   0.00000  Uiso   1.00
O1129  O     0.50001   0.87293   0.81487   0.00000  Uiso   1.00
O1130  O     0.49999   0.79373   0.68513   0.00000  Uiso   1.00
C1131  C     0.49889   0.83378   0.66439   0.00000  Uiso   1.00
C1132  C     0.50111   0.83289   0.83561   0.00000  Uiso   1.00
Cu1133 Cu    0.50000   0.88022   0.75000   0.00000  Uiso   1.00
Cu1134 Cu    0.50000   0.78645   0.75000   0.00000  Uiso   1.00
C1135  C     0.52676   0.79922   0.90835   0.00000  Uiso   1.00
C1136  C     0.47324   0.86745   0.59165   0.00000  Uiso   1.00
C1137  C     0.50215   0.83188   0.88399   0.00000  Uiso   1.00
C1138  C     0.49785   0.83478   0.61601   0.00000  Uiso   1.00
C1139  C     0.47847   0.86525   0.90578   0.00000  Uiso   1.00
C1140  C     0.52153   0.80142   0.59422   0.00000  Uiso   1.00
C1141  C     0.47761   0.86610   0.95173   0.00000  Uiso   1.00
C1142  C     0.52240   0.80057   0.54827   0.00000  Uiso   1.00
C1143  C     0.50081   0.83302   0.97669   0.00000  Uiso   1.00
C1144  C     0.49919   0.83365   0.52331   0.00000  Uiso   1.00
C1145  C     0.52559   0.79938   0.95514   0.00000  Uiso   1.00
C1146  C     0.47441   0.86729   0.54486   0.00000  Uiso   1.00
C1147  C     0.45360   0.89960   0.97298   0.00000  Uiso   1.00
C1148  C     0.54640   0.76707   0.52702   0.00000  Uiso   1.00
C1149  C     0.45213   0.90041   0.51895   0.00000  Uiso   1.00
C1150  C     0.54787   0.76625   0.98105   0.00000  Uiso   1.00
H1151  H     0.46015   0.89045   0.88670   0.00000  Uiso   1.00
H1152  H     0.53986   0.77622   0.61330   0.00000  Uiso   1.00
H1153  H     0.43593   0.92539   0.95398   0.00000  Uiso   1.00
H1154  H     0.56407   0.74128   0.54602   0.00000  Uiso   1.00
H1155  H     0.43365   0.92755   0.53379   0.00000  Uiso   1.00
H1156  H     0.56635   0.73912   0.96621   0.00000  Uiso   1.00
C1157  C     0.35467   0.80677   0.71827   0.00000  Uiso   1.00
C1158  C     0.64532   0.85989   0.78173   0.00000  Uiso   1.00
C1159  C     0.64497   0.80581   0.71939   0.00000  Uiso   1.00
C1160  C     0.35503   0.86086   0.78062   0.00000  Uiso   1.00
C1161  C     0.62383   0.83245   0.75091   0.00000  Uiso   1.00
C1162  C     0.37617   0.83421   0.74909   0.00000  Uiso   1.00
C1163  C     0.47021   0.69205   0.72763   0.00000  Uiso   1.00
C1164  C     0.52979   0.97462   0.77237   0.00000  Uiso   1.00
C1165  C     0.52987   0.69086   0.77224   0.00000  Uiso   1.00
C1166  C     0.47013   0.97580   0.72776   0.00000  Uiso   1.00
H1167  H     0.44642   0.71115   0.70956   0.00000  Uiso   1.00
H1168  H     0.55358   0.95552   0.79044   0.00000  Uiso   1.00
H1169  H     0.55396   0.70899   0.78986   0.00000  Uiso   1.00
H1170  H     0.44604   0.95767   0.71015   0.00000  Uiso   1.00
N1171  N     0.50000   0.95069   0.75000   0.00000  Uiso   1.00
N1172  N     0.50000   0.71598   0.75000   0.00000  Uiso   1.00
C1173  C     0.55474   0.76670   0.88501   0.00000  Uiso   1.00
H1174  H     0.54243   0.74162   0.86197   0.00000  Uiso   1.00
O1175  O     0.59195   0.76801   0.89144   0.00000  Uiso   1.00
C1176  C     0.44524   0.89996   0.61499   0.00000  Uiso   1.00
H1177  H     0.45755   0.92503   0.63804   0.00000  Uiso   1.00
O1178  O     0.40805   0.89865   0.60855   0.00000  Uiso   1.00
N1179  N     0.37631   0.78076   0.68518   0.00000  Uiso   1.00
O1180  O     0.36712   0.73724   0.67802   0.00000  Uiso   1.00
O1181  O     0.40364   0.80125   0.66037   0.00000  Uiso   1.00
N1182  N     0.62369   0.88590   0.81482   0.00000  Uiso   1.00
O1183  O     0.63288   0.92942   0.82198   0.00000  Uiso   1.00
O1184  O     0.59635   0.86541   0.83963   0.00000  Uiso   1.00
N1185  N     0.62269   0.78087   0.68610   0.00000  Uiso   1.00
O1186  O     0.62250   0.79627   0.64531   0.00000  Uiso   1.00
O1187  O     0.60802   0.73954   0.69513   0.00000  Uiso   1.00
N1188  N     0.37731   0.88579   0.81391   0.00000  Uiso   1.00
O1189  O     0.37748   0.87040   0.85470   0.00000  Uiso   1.00
O1190  O     0.39199   0.92711   0.80488   0.00000  Uiso   1.00
O1191  O     0.77321   0.87291   0.74999   0.00000  Uiso   1.00
O1192  O     0.89345   0.79375   0.75001   0.00000  Uiso   1.00
O1193  O     0.89345   0.87291   0.75001   0.00000  Uiso   1.00
O1194  O     0.77321   0.79375   0.74999   0.00000  Uiso   1.00
C1195  C     0.75413   0.83354   0.74981   0.00000  Uiso   1.00
C1196  C     0.91254   0.83313   0.75020   0.00000  Uiso   1.00
O1197  O     0.83332   0.87293   0.68513   0.00000  Uiso   1.00
O1198  O     0.83334   0.79373   0.81487   0.00000  Uiso   1.00
O1199  O     0.83334   0.87293   0.81487   0.00000  Uiso   1.00
O1200  O     0.83332   0.79373   0.68513   0.00000  Uiso   1.00
C1201  C     0.83222   0.83378   0.66439   0.00000  Uiso   1.00
C1202  C     0.83444   0.83289   0.83561   0.00000  Uiso   1.00
Cu1203 Cu    0.83333   0.88022   0.75000   0.00000  Uiso   1.00
Cu1204 Cu    0.83333   0.78645   0.75000   0.00000  Uiso   1.00
C1205  C     0.86009   0.79922   0.90835   0.00000  Uiso   1.00
C1206  C     0.80657   0.86745   0.59165   0.00000  Uiso   1.00
C1207  C     0.83548   0.83188   0.88399   0.00000  Uiso   1.00
C1208  C     0.83118   0.83478   0.61601   0.00000  Uiso   1.00
C1209  C     0.81180   0.86525   0.90578   0.00000  Uiso   1.00
C1210  C     0.85487   0.80142   0.59422   0.00000  Uiso   1.00
C1211  C     0.81094   0.86610   0.95173   0.00000  Uiso   1.00
C1212  C     0.85573   0.80057   0.54827   0.00000  Uiso   1.00
C1213  C     0.83414   0.83302   0.97669   0.00000  Uiso   1.00
C1214  C     0.83252   0.83365   0.52331   0.00000  Uiso   1.00
C1215  C     0.85893   0.79938   0.95514   0.00000  Uiso   1.00
C1216  C     0.80774   0.86729   0.54486   0.00000  Uiso   1.00
C1217  C     0.78693   0.89960   0.97298   0.00000  Uiso   1.00
C1218  C     0.87973   0.76707   0.52702   0.00000  Uiso   1.00
C1219  C     0.78546   0.90041   0.51895   0.00000  Uiso   1.00
C1220  C     0.88121   0.76625   0.98105   0.00000  Uiso   1.00
H1221  H     0.79348   0.89045   0.88670   0.00000  Uiso   1.00
H1222  H     0.87319   0.77622   0.61330   0.00000  Uiso   1.00
H1223  H     0.76926   0.92539   0.95398   0.00000  Uiso   1.00
H1224  H     0.89740   0.74128   0.54602   0.00000  Uiso   1.00
H1225  H     0.76699   0.92755   0.53379   0.00000  Uiso   1.00
H1226  H     0.89968   0.73912   0.96621   0.00000  Uiso   1.00
C1227  C     0.68801   0.80677   0.71827   0.00000  Uiso   1.00
C1228  C     0.97866   0.85989   0.78173   0.00000  Uiso   1.00
C1229  C     0.97830   0.80581   0.71939   0.00000  Uiso   1.00
C1230  C     0.68836   0.86086   0.78062   0.00000  Uiso   1.00
C1231  C     0.95717   0.83245   0.75091   0.00000  Uiso   1.00
C1232  C     0.70950   0.83421   0.74909   0.00000  Uiso   1.00
C1233  C     0.80354   0.69205   0.72763   0.00000  Uiso   1.00
C1234  C     0.86312   0.97462   0.77237   0.00000  Uiso   1.00
C1235  C     0.86320   0.69086   0.77224   0.00000  Uiso   1.00
C1236  C     0.80346   0.97580   0.72776   0.00000  Uiso   1.00
H1237  H     0.77975   0.71115   0.70956   0.00000  Uiso   1.00
H1238  H     0.88691   0.95552   0.79044   0.00000  Uiso   1.00
H1239  H     0.88729   0.70899   0.78986   0.00000  Uiso   1.00
H1240  H     0.77937   0.95767   0.71015   0.00000  Uiso   1.00
N1241  N     0.83333   0.95069   0.75000   0.00000  Uiso   1.00
N1242  N     0.83333   0.71598   0.75000   0.00000  Uiso   1.00
C1243  C     0.88808   0.76670   0.88501   0.00000  Uiso   1.00
H1244  H     0.87576   0.74162   0.86197   0.00000  Uiso   1.00
O1245  O     0.92528   0.76801   0.89144   0.00000  Uiso   1.00
C1246  C     0.77858   0.89996   0.61499   0.00000  Uiso   1.00
H1247  H     0.79089   0.92503   0.63804   0.00000  Uiso   1.00
O1248  O     0.74138   0.89865   0.60855   0.00000  Uiso   1.00
N1249  N     0.70965   0.78076   0.68518   0.00000  Uiso   1.00
O1250  O     0.70045   0.73724   0.67802   0.00000  Uiso   1.00
O1251  O     0.73698   0.80125   0.66037   0.00000  Uiso   1.00
N1252  N     0.95702   0.88590   0.81482   0.00000  Uiso   1.00
O1253  O     0.96622   0.92942   0.82198   0.00000  Uiso   1.00
O1254  O     0.92969   0.86541   0.83963   0.00000  Uiso   1.00
N1255  N     0.95602   0.78087   0.68610   0.00000  Uiso   1.00
O1256  O     0.95584   0.79627   0.64531   0.00000  Uiso   1.00
O1257  O     0.94135   0.73954   0.69513   0.00000  Uiso   1.00
N1258  N     0.71064   0.88579   0.81391   0.00000  Uiso   1.00
O1259  O     0.71082   0.87040   0.85470   0.00000  Uiso   1.00
O1260  O     0.72532   0.92711   0.80488   0.00000  Uiso   1.00
loop_
_geom_bond_atom_site_label_1
_geom_bond_atom_site_label_2
_geom_bond_distance
_geom_bond_site_symmetry_2
_ccdc_geom_bond_type
O1     Cu13    1.962   .     S
O1     C5      1.287   .     A
O2     Cu14    1.962   .     S
O2     C6      1.287   .     A
O3     Cu13    1.959   .     S
O3     C6      1.290   .     A
O4     Cu14    1.959   .     S
O4     C5      1.290   .     A
C5     C42     1.447   .     S
C6     C41     1.447   .     S
O7     C11     1.291   .     A
O7     Cu13    1.972   .     S
O8     C12     1.291   .     A
O8     Cu14    1.972   .     S
O9     Cu13    1.966   .     S
O9     C12     1.295   .     A
O10    Cu14    1.966   .     S
O10    C11     1.295   .     A
C11    C18     1.460   .     S
C12    C17     1.460   .     S
Cu13   N51     2.013   .     S
Cu13   Cu14    2.678   .     S
Cu14   N52     2.013   .     S
C15    C53     1.484   .     S
C15    C25     1.413   .     A
C15    C17     1.417   .     A
C16    C56     1.484   .     S
C16    C18     1.417   .     A
C16    C26     1.413   .     A
C17    C19     1.396   .     A
C18    C20     1.396   .     A
C19    H31     1.085   .     S
C19    C21     1.388   .     A
C20    H32     1.085   .     S
C20    C22     1.388   .     A
C21    C27     1.397   .     A
C21    C23     1.409   .     A
C22    C28     1.397   .     A
C22    C24     1.409   .     A
C23    C25     1.418   .     A
C23    C654    1.409   .     S
C24    C26     1.418   .     A
C24    C653    1.409   1_554 S
C25    C30     1.410   .     A
C26    C29     1.410   .     A
C27    H33     1.084   .     S
C27    C659    1.389   .     S
C28    H34     1.084   .     S
C28    C660    1.389   1_554 S
C29    H35     1.081   .     S
C29    C657    1.389   1_554 S
C30    H36     1.081   .     S
C30    C658    1.389   .     S
C37    N59     1.439   .     S
C37    C42     1.409   .     A
C37    C179    1.396   1_455 S
C38    C41     1.409   .     A
C38    N62     1.439   .     S
C38    C110    1.396   .     S
C39    N65     1.434   .     S
C39    C41     1.408   .     A
C39    C107    1.396   .     S
C40    C42     1.408   .     A
C40    N68     1.434   .     S
C40    C178    1.396   1_455 S
C43    N52     1.367   .     A
C43    H47     1.081   .     S
C43    C466    1.416   1_545 S
C44    N51     1.367   .     A
C44    H48     1.081   .     S
C44    C255    1.416   .     S
C45    H49     1.081   .     S
C45    N52     1.367   .     A
C45    C464    1.416   1_545 S
C46    H50     1.081   .     S
C46    N51     1.367   .     A
C46    C253    1.416   .     S
C53    H54     1.082   .     S
C53    O55     1.221   .     D
C56    H57     1.082   .     S
C56    O58     1.221   .     D
N59    O60     1.301   .     A
N59    O61     1.301   .     A
N62    O63     1.301   .     A
N62    O64     1.301   .     A
N65    O66     1.301   .     A
N65    O67     1.301   .     A
N68    O70     1.301   .     A
N68    O69     1.301   .     A
O71    Cu83    1.962   .     S
O71    C75     1.287   .     A
O72    Cu84    1.962   .     S
O72    C76     1.287   .     A
O73    Cu83    1.959   .     S
O73    C76     1.290   .     A
O74    Cu84    1.959   .     S
O74    C75     1.290   .     A
C75    C112    1.447   .     S
C76    C111    1.447   .     S
O77    C81     1.291   .     A
O77    Cu83    1.972   .     S
O78    C82     1.291   .     A
O78    Cu84    1.972   .     S
O79    Cu83    1.966   .     S
O79    C82     1.295   .     A
O80    Cu84    1.966   .     S
O80    C81     1.295   .     A
C81    C88     1.460   .     S
C82    C87     1.460   .     S
Cu83   N121    2.013   .     S
Cu83   Cu84    2.678   .     S
Cu84   N122    2.013   .     S
C85    C123    1.484   .     S
C85    C95     1.413   .     A
C85    C87     1.417   .     A
C86    C126    1.484   .     S
C86    C88     1.417   .     A
C86    C96     1.413   .     A
C87    C89     1.396   .     A
C88    C90     1.396   .     A
C89    H101    1.085   .     S
C89    C91     1.388   .     A
C90    H102    1.085   .     S
C90    C92     1.388   .     A
C91    C97     1.397   .     A
C91    C93     1.409   .     A
C92    C98     1.397   .     A
C92    C94     1.409   .     A
C93    C95     1.418   .     A
C93    C724    1.409   .     S
C94    C96     1.418   .     A
C94    C723    1.409   1_554 S
C95    C100    1.410   .     A
C96    C99     1.410   .     A
C97    H103    1.084   .     S
C97    C729    1.389   .     S
C98    H104    1.084   .     S
C98    C730    1.389   1_554 S
C99    H105    1.081   .     S
C99    C727    1.389   1_554 S
C100   H106    1.081   .     S
C100   C728    1.389   .     S
C107   N129    1.439   .     S
C107   C112    1.409   .     A
C108   C111    1.409   .     A
C108   N132    1.439   .     S
C108   C180    1.396   .     S
C109   N135    1.434   .     S
C109   C111    1.408   .     A
C109   C177    1.396   .     S
C110   C112    1.408   .     A
C110   N138    1.434   .     S
C113   N122    1.367   .     A
C113   H117    1.081   .     S
C113   C536    1.416   1_545 S
C114   N121    1.367   .     A
C114   H118    1.081   .     S
C114   C325    1.416   .     S
C115   H119    1.081   .     S
C115   N122    1.367   .     A
C115   C534    1.416   1_545 S
C116   H120    1.081   .     S
C116   N121    1.367   .     A
C116   C323    1.416   .     S
C123   H124    1.082   .     S
C123   O125    1.221   .     D
C126   H127    1.082   .     S
C126   O128    1.221   .     D
N129   O130    1.301   .     A
N129   O131    1.301   .     A
N132   O133    1.301   .     A
N132   O134    1.301   .     A
N135   O136    1.301   .     A
N135   O137    1.301   .     A
N138   O140    1.301   .     A
N138   O139    1.301   .     A
O141   Cu153   1.962   .     S
O141   C145    1.287   .     A
O142   Cu154   1.962   .     S
O142   C146    1.287   .     A
O143   Cu153   1.959   .     S
O143   C146    1.290   .     A
O144   Cu154   1.959   .     S
O144   C145    1.290   .     A
C145   C182    1.447   .     S
C146   C181    1.447   .     S
O147   C151    1.291   .     A
O147   Cu153   1.972   .     S
O148   C152    1.291   .     A
O148   Cu154   1.972   .     S
O149   Cu153   1.966   .     S
O149   C152    1.295   .     A
O150   Cu154   1.966   .     S
O150   C151    1.295   .     A
C151   C158    1.460   .     S
C152   C157    1.460   .     S
Cu153  N191    2.013   .     S
Cu153  Cu154   2.678   .     S
Cu154  N192    2.013   .     S
C155   C193    1.484   .     S
C155   C165    1.413   .     A
C155   C157    1.417   .     A
C156   C196    1.484   .     S
C156   C158    1.417   .     A
C156   C166    1.413   .     A
C157   C159    1.396   .     A
C158   C160    1.396   .     A
C159   H171    1.085   .     S
C159   C161    1.388   .     A
C160   H172    1.085   .     S
C160   C162    1.388   .     A
C161   C167    1.397   .     A
C161   C163    1.409   .     A
C162   C168    1.397   .     A
C162   C164    1.409   .     A
C163   C165    1.418   .     A
C163   C794    1.409   .     S
C164   C166    1.418   .     A
C164   C793    1.409   1_554 S
C165   C170    1.410   .     A
C166   C169    1.410   .     A
C167   H173    1.084   .     S
C167   C799    1.389   .     S
C168   H174    1.084   .     S
C168   C800    1.389   1_554 S
C169   H175    1.081   .     S
C169   C797    1.389   1_554 S
C170   H176    1.081   .     S
C170   C798    1.389   .     S
C177   N199    1.439   .     S
C177   C182    1.409   .     A
C178   C181    1.409   .     A
C178   N202    1.439   .     S
C178   C40     1.396   1_655 S
C179   N205    1.434   .     S
C179   C181    1.408   .     A
C179   C37     1.396   1_655 S
C180   C182    1.408   .     A
C180   N208    1.434   .     S
C183   N192    1.367   .     A
C183   H187    1.081   .     S
C183   C606    1.416   1_545 S
C184   N191    1.367   .     A
C184   H188    1.081   .     S
C184   C395    1.416   .     S
C185   H189    1.081   .     S
C185   N192    1.367   .     A
C185   C604    1.416   1_545 S
C186   H190    1.081   .     S
C186   N191    1.367   .     A
C186   C393    1.416   .     S
C193   H194    1.082   .     S
C193   O195    1.221   .     D
C196   H197    1.082   .     S
C196   O198    1.221   .     D
N199   O200    1.301   .     A
N199   O201    1.301   .     A
N202   O203    1.301   .     A
N202   O204    1.301   .     A
N205   O206    1.301   .     A
N205   O207    1.301   .     A
N208   O210    1.301   .     A
N208   O209    1.301   .     A
O211   Cu223   1.962   .     S
O211   C215    1.287   .     A
O212   Cu224   1.962   .     S
O212   C216    1.287   .     A
O213   Cu223   1.959   .     S
O213   C216    1.290   .     A
O214   Cu224   1.959   .     S
O214   C215    1.290   .     A
C215   C252    1.447   .     S
C216   C251    1.447   .     S
O217   C221    1.291   .     A
O217   Cu223   1.972   .     S
O218   C222    1.291   .     A
O218   Cu224   1.972   .     S
O219   Cu223   1.966   .     S
O219   C222    1.295   .     A
O220   Cu224   1.966   .     S
O220   C221    1.295   .     A
C221   C228    1.460   .     S
C222   C227    1.460   .     S
Cu223  N261    2.013   .     S
Cu223  Cu224   2.678   .     S
Cu224  N262    2.013   .     S
C225   C263    1.484   .     S
C225   C235    1.413   .     A
C225   C227    1.417   .     A
C226   C266    1.484   .     S
C226   C228    1.417   .     A
C226   C236    1.413   .     A
C227   C229    1.396   .     A
C228   C230    1.396   .     A
C229   H241    1.085   .     S
C229   C231    1.388   .     A
C230   H242    1.085   .     S
C230   C232    1.388   .     A
C231   C237    1.397   .     A
C231   C233    1.409   .     A
C232   C238    1.397   .     A
C232   C234    1.409   .     A
C233   C235    1.418   .     A
C233   C864    1.409   .     S
C234   C236    1.418   .     A
C234   C863    1.409   1_554 S
C235   C240    1.410   .     A
C236   C239    1.410   .     A
C237   H243    1.084   .     S
C237   C869    1.389   .     S
C238   H244    1.084   .     S
C238   C870    1.389   1_554 S
C239   H245    1.081   .     S
C239   C867    1.389   1_554 S
C240   H246    1.081   .     S
C240   C868    1.389   .     S
C247   N269    1.439   .     S
C247   C252    1.409   .     A
C247   C389    1.396   1_455 S
C248   C251    1.409   .     A
C248   N272    1.439   .     S
C248   C320    1.396   .     S
C249   N275    1.434   .     S
C249   C251    1.408   .     A
C249   C317    1.396   .     S
C250   C252    1.408   .     A
C250   N278    1.434   .     S
C250   C388    1.396   1_455 S
C253   N262    1.367   .     A
C253   H257    1.081   .     S
C254   N261    1.367   .     A
C254   H258    1.081   .     S
C254   C465    1.416   .     S
C255   H259    1.081   .     S
C255   N262    1.367   .     A
C256   H260    1.081   .     S
C256   N261    1.367   .     A
C256   C463    1.416   .     S
C263   H264    1.082   .     S
C263   O265    1.221   .     D
C266   H267    1.082   .     S
C266   O268    1.221   .     D
N269   O270    1.301   .     A
N269   O271    1.301   .     A
N272   O273    1.301   .     A
N272   O274    1.301   .     A
N275   O276    1.301   .     A
N275   O277    1.301   .     A
N278   O280    1.301   .     A
N278   O279    1.301   .     A
O281   Cu293   1.962   .     S
O281   C285    1.287   .     A
O282   Cu294   1.962   .     S
O282   C286    1.287   .     A
O283   Cu293   1.959   .     S
O283   C286    1.290   .     A
O284   Cu294   1.959   .     S
O284   C285    1.290   .     A
C285   C322    1.447   .     S
C286   C321    1.447   .     S
O287   C291    1.291   .     A
O287   Cu293   1.972   .     S
O288   C292    1.291   .     A
O288   Cu294   1.972   .     S
O289   Cu293   1.966   .     S
O289   C292    1.295   .     A
O290   Cu294   1.966   .     S
O290   C291    1.295   .     A
C291   C298    1.460   .     S
C292   C297    1.460   .     S
Cu293  N331    2.013   .     S
Cu293  Cu294   2.678   .     S
Cu294  N332    2.013   .     S
C295   C333    1.484   .     S
C295   C305    1.413   .     A
C295   C297    1.417   .     A
C296   C336    1.484   .     S
C296   C298    1.417   .     A
C296   C306    1.413   .     A
C297   C299    1.396   .     A
C298   C300    1.396   .     A
C299   H311    1.085   .     S
C299   C301    1.388   .     A
C300   H312    1.085   .     S
C300   C302    1.388   .     A
C301   C307    1.397   .     A
C301   C303    1.409   .     A
C302   C308    1.397   .     A
C302   C304    1.409   .     A
C303   C305    1.418   .     A
C303   C934    1.409   .     S
C304   C306    1.418   .     A
C304   C933    1.409   1_554 S
C305   C310    1.410   .     A
C306   C309    1.410   .     A
C307   H313    1.084   .     S
C307   C939    1.389   .     S
C308   H314    1.084   .     S
C308   C940    1.389   1_554 S
C309   H315    1.081   .     S
C309   C937    1.389   1_554 S
C310   H316    1.081   .     S
C310   C938    1.389   .     S
C317   N339    1.439   .     S
C317   C322    1.409   .     A
C318   C321    1.409   .     A
C318   N342    1.439   .     S
C318   C390    1.396   .     S
C319   N345    1.434   .     S
C319   C321    1.408   .     A
C319   C387    1.396   .     S
C320   C322    1.408   .     A
C320   N348    1.434   .     S
C323   N332    1.367   .     A
C323   H327    1.081   .     S
C324   N331    1.367   .     A
C324   H328    1.081   .     S
C324   C535    1.416   .     S
C325   H329    1.081   .     S
C325   N332    1.367   .     A
C326   H330    1.081   .     S
C326   N331    1.367   .     A
C326   C533    1.416   .     S
C333   H334    1.082   .     S
C333   O335    1.221   .     D
C336   H337    1.082   .     S
C336   O338    1.221   .     D
N339   O340    1.301   .     A
N339   O341    1.301   .     A
N342   O343    1.301   .     A
N342   O344    1.301   .     A
N345   O346    1.301   .     A
N345   O347    1.301   .     A
N348   O350    1.301   .     A
N348   O349    1.301   .     A
O351   Cu363   1.962   .     S
O351   C355    1.287   .     A
O352   Cu364   1.962   .     S
O352   C356    1.287   .     A
O353   Cu363   1.959   .     S
O353   C356    1.290   .     A
O354   Cu364   1.959   .     S
O354   C355    1.290   .     A
C355   C392    1.447   .     S
C356   C391    1.447   .     S
O357   C361    1.291   .     A
O357   Cu363   1.972   .     S
O358   C362    1.291   .     A
O358   Cu364   1.972   .     S
O359   Cu363   1.966   .     S
O359   C362    1.295   .     A
O360   Cu364   1.966   .     S
O360   C361    1.295   .     A
C361   C368    1.460   .     S
C362   C367    1.460   .     S
Cu363  N401    2.013   .     S
Cu363  Cu364   2.678   .     S
Cu364  N402    2.013   .     S
C365   C403    1.484   .     S
C365   C375    1.413   .     A
C365   C367    1.417   .     A
C366   C406    1.484   .     S
C366   C368    1.417   .     A
C366   C376    1.413   .     A
C367   C369    1.396   .     A
C368   C370    1.396   .     A
C369   H381    1.085   .     S
C369   C371    1.388   .     A
C370   H382    1.085   .     S
C370   C372    1.388   .     A
C371   C377    1.397   .     A
C371   C373    1.409   .     A
C372   C378    1.397   .     A
C372   C374    1.409   .     A
C373   C375    1.418   .     A
C373   C1004   1.409   .     S
C374   C376    1.418   .     A
C374   C1003   1.409   1_554 S
C375   C380    1.410   .     A
C376   C379    1.410   .     A
C377   H383    1.084   .     S
C377   C1009   1.389   .     S
C378   H384    1.084   .     S
C378   C1010   1.389   1_554 S
C379   H385    1.081   .     S
C379   C1007   1.389   1_554 S
C380   H386    1.081   .     S
C380   C1008   1.389   .     S
C387   N409    1.439   .     S
C387   C392    1.409   .     A
C388   C391    1.409   .     A
C388   N412    1.439   .     S
C388   C250    1.396   1_655 S
C389   N415    1.434   .     S
C389   C391    1.408   .     A
C389   C247    1.396   1_655 S
C390   C392    1.408   .     A
C390   N418    1.434   .     S
C393   N402    1.367   .     A
C393   H397    1.081   .     S
C394   N401    1.367   .     A
C394   H398    1.081   .     S
C394   C605    1.416   .     S
C395   H399    1.081   .     S
C395   N402    1.367   .     A
C396   H400    1.081   .     S
C396   N401    1.367   .     A
C396   C603    1.416   .     S
C403   H404    1.082   .     S
C403   O405    1.221   .     D
C406   H407    1.082   .     S
C406   O408    1.221   .     D
N409   O410    1.301   .     A
N409   O411    1.301   .     A
N412   O413    1.301   .     A
N412   O414    1.301   .     A
N415   O416    1.301   .     A
N415   O417    1.301   .     A
N418   O420    1.301   .     A
N418   O419    1.301   .     A
O421   Cu433   1.962   .     S
O421   C425    1.287   .     A
O422   Cu434   1.962   .     S
O422   C426    1.287   .     A
O423   Cu433   1.959   .     S
O423   C426    1.290   .     A
O424   Cu434   1.959   .     S
O424   C425    1.290   .     A
C425   C462    1.447   .     S
C426   C461    1.447   .     S
O427   C431    1.291   .     A
O427   Cu433   1.972   .     S
O428   C432    1.291   .     A
O428   Cu434   1.972   .     S
O429   Cu433   1.966   .     S
O429   C432    1.295   .     A
O430   Cu434   1.966   .     S
O430   C431    1.295   .     A
C431   C438    1.460   .     S
C432   C437    1.460   .     S
Cu433  N471    2.013   .     S
Cu433  Cu434   2.678   .     S
Cu434  N472    2.013   .     S
C435   C473    1.484   .     S
C435   C445    1.413   .     A
C435   C437    1.417   .     A
C436   C476    1.484   .     S
C436   C438    1.417   .     A
C436   C446    1.413   .     A
C437   C439    1.396   .     A
C438   C440    1.396   .     A
C439   H451    1.085   .     S
C439   C441    1.388   .     A
C440   H452    1.085   .     S
C440   C442    1.388   .     A
C441   C447    1.397   .     A
C441   C443    1.409   .     A
C442   C448    1.397   .     A
C442   C444    1.409   .     A
C443   C445    1.418   .     A
C443   C1074   1.409   .     S
C444   C446    1.418   .     A
C444   C1073   1.409   1_554 S
C445   C450    1.410   .     A
C446   C449    1.410   .     A
C447   H453    1.084   .     S
C447   C1079   1.389   .     S
C448   H454    1.084   .     S
C448   C1080   1.389   1_554 S
C449   H455    1.081   .     S
C449   C1077   1.389   1_554 S
C450   H456    1.081   .     S
C450   C1078   1.389   .     S
C457   N479    1.439   .     S
C457   C462    1.409   .     A
C457   C599    1.396   1_455 S
C458   C461    1.409   .     A
C458   N482    1.439   .     S
C458   C530    1.396   .     S
C459   N485    1.434   .     S
C459   C461    1.408   .     A
C459   C527    1.396   .     S
C460   C462    1.408   .     A
C460   N488    1.434   .     S
C460   C598    1.396   1_455 S
C463   N472    1.367   .     A
C463   H467    1.081   .     S
C464   N471    1.367   .     A
C464   H468    1.081   .     S
C464   C45     1.416   1_565 S
C465   H469    1.081   .     S
C465   N472    1.367   .     A
C466   H470    1.081   .     S
C466   N471    1.367   .     A
C466   C43     1.416   1_565 S
C473   H474    1.082   .     S
C473   O475    1.221   .     D
C476   H477    1.082   .     S
C476   O478    1.221   .     D
N479   O480    1.301   .     A
N479   O481    1.301   .     A
N482   O483    1.301   .     A
N482   O484    1.301   .     A
N485   O486    1.301   .     A
N485   O487    1.301   .     A
N488   O490    1.301   .     A
N488   O489    1.301   .     A
O491   Cu503   1.962   .     S
O491   C495    1.287   .     A
O492   Cu504   1.962   .     S
O492   C496    1.287   .     A
O493   Cu503   1.959   .     S
O493   C496    1.290   .     A
O494   Cu504   1.959   .     S
O494   C495    1.290   .     A
C495   C532    1.447   .     S
C496   C531    1.447   .     S
O497   C501    1.291   .     A
O497   Cu503   1.972   .     S
O498   C502    1.291   .     A
O498   Cu504   1.972   .     S
O499   Cu503   1.966   .     S
O499   C502    1.295   .     A
O500   Cu504   1.966   .     S
O500   C501    1.295   .     A
C501   C508    1.460   .     S
C502   C507    1.460   .     S
Cu503  N541    2.013   .     S
Cu503  Cu504   2.678   .     S
Cu504  N542    2.013   .     S
C505   C543    1.484   .     S
C505   C515    1.413   .     A
C505   C507    1.417   .     A
C506   C546    1.484   .     S
C506   C508    1.417   .     A
C506   C516    1.413   .     A
C507   C509    1.396   .     A
C508   C510    1.396   .     A
C509   H521    1.085   .     S
C509   C511    1.388   .     A
C510   H522    1.085   .     S
C510   C512    1.388   .     A
C511   C517    1.397   .     A
C511   C513    1.409   .     A
C512   C518    1.397   .     A
C512   C514    1.409   .     A
C513   C515    1.418   .     A
C513   C1144   1.409   .     S
C514   C516    1.418   .     A
C514   C1143   1.409   1_554 S
C515   C520    1.410   .     A
C516   C519    1.410   .     A
C517   H523    1.084   .     S
C517   C1149   1.389   .     S
C518   H524    1.084   .     S
C518   C1150   1.389   1_554 S
C519   H525    1.081   .     S
C519   C1147   1.389   1_554 S
C520   H526    1.081   .     S
C520   C1148   1.389   .     S
C527   N549    1.439   .     S
C527   C532    1.409   .     A
C528   C531    1.409   .     A
C528   N552    1.439   .     S
C528   C600    1.396   .     S
C529   N555    1.434   .     S
C529   C531    1.408   .     A
C529   C597    1.396   .     S
C530   C532    1.408   .     A
C530   N558    1.434   .     S
C533   N542    1.367   .     A
C533   H537    1.081   .     S
C534   N541    1.367   .     A
C534   H538    1.081   .     S
C534   C115    1.416   1_565 S
C535   H539    1.081   .     S
C535   N542    1.367   .     A
C536   H540    1.081   .     S
C536   N541    1.367   .     A
C536   C113    1.416   1_565 S
C543   H544    1.082   .     S
C543   O545    1.221   .     D
C546   H547    1.082   .     S
C546   O548    1.221   .     D
N549   O550    1.301   .     A
N549   O551    1.301   .     A
N552   O553    1.301   .     A
N552   O554    1.301   .     A
N555   O556    1.301   .     A
N555   O557    1.301   .     A
N558   O560    1.301   .     A
N558   O559    1.301   .     A
O561   Cu573   1.962   .     S
O561   C565    1.287   .     A
O562   Cu574   1.962   .     S
O562   C566    1.287   .     A
O563   Cu573   1.959   .     S
O563   C566    1.290   .     A
O564   Cu574   1.959   .     S
O564   C565    1.290   .     A
C565   C602    1.447   .     S
C566   C601    1.447   .     S
O567   C571    1.291   .     A
O567   Cu573   1.972   .     S
O568   C572    1.291   .     A
O568   Cu574   1.972   .     S
O569   Cu573   1.966   .     S
O569   C572    1.295   .     A
O570   Cu574   1.966   .     S
O570   C571    1.295   .     A
C571   C578    1.460   .     S
C572   C577    1.460   .     S
Cu573  N611    2.013   .     S
Cu573  Cu574   2.678   .     S
Cu574  N612    2.013   .     S
C575   C613    1.484   .     S
C575   C585    1.413   .     A
C575   C577    1.417   .     A
C576   C616    1.484   .     S
C576   C578    1.417   .     A
C576   C586    1.413   .     A
C577   C579    1.396   .     A
C578   C580    1.396   .     A
C579   H591    1.085   .     S
C579   C581    1.388   .     A
C580   H592    1.085   .     S
C580   C582    1.388   .     A
C581   C587    1.397   .     A
C581   C583    1.409   .     A
C582   C588    1.397   .     A
C582   C584    1.409   .     A
C583   C585    1.418   .     A
C583   C1214   1.409   .     S
C584   C586    1.418   .     A
C584   C1213   1.409   1_554 S
C585   C590    1.410   .     A
C586   C589    1.410   .     A
C587   H593    1.084   .     S
C587   C1219   1.389   .     S
C588   H594    1.084   .     S
C588   C1220   1.389   1_554 S
C589   H595    1.081   .     S
C589   C1217   1.389   1_554 S
C590   H596    1.081   .     S
C590   C1218   1.389   .     S
C597   N619    1.439   .     S
C597   C602    1.409   .     A
C598   C601    1.409   .     A
C598   N622    1.439   .     S
C598   C460    1.396   1_655 S
C599   N625    1.434   .     S
C599   C601    1.408   .     A
C599   C457    1.396   1_655 S
C600   C602    1.408   .     A
C600   N628    1.434   .     S
C603   N612    1.367   .     A
C603   H607    1.081   .     S
C604   N611    1.367   .     A
C604   H608    1.081   .     S
C604   C185    1.416   1_565 S
C605   H609    1.081   .     S
C605   N612    1.367   .     A
C606   H610    1.081   .     S
C606   N611    1.367   .     A
C606   C183    1.416   1_565 S
C613   H614    1.082   .     S
C613   O615    1.221   .     D
C616   H617    1.082   .     S
C616   O618    1.221   .     D
N619   O620    1.301   .     A
N619   O621    1.301   .     A
N622   O623    1.301   .     A
N622   O624    1.301   .     A
N625   O626    1.301   .     A
N625   O627    1.301   .     A
N628   O630    1.301   .     A
N628   O629    1.301   .     A
O631   Cu643   1.962   .     S
O631   C635    1.287   .     A
O632   Cu644   1.962   .     S
O632   C636    1.287   .     A
O633   Cu643   1.959   .     S
O633   C636    1.290   .     A
O634   Cu644   1.959   .     S
O634   C635    1.290   .     A
C635   C672    1.447   .     S
C636   C671    1.447   .     S
O637   C641    1.291   .     A
O637   Cu643   1.972   .     S
O638   C642    1.291   .     A
O638   Cu644   1.972   .     S
O639   Cu643   1.966   .     S
O639   C642    1.295   .     A
O640   Cu644   1.966   .     S
O640   C641    1.295   .     A
C641   C648    1.460   .     S
C642   C647    1.460   .     S
Cu643  N681    2.013   .     S
Cu643  Cu644   2.678   .     S
Cu644  N682    2.013   .     S
C645   C683    1.484   .     S
C645   C655    1.413   .     A
C645   C647    1.417   .     A
C646   C686    1.484   .     S
C646   C648    1.417   .     A
C646   C656    1.413   .     A
C647   C649    1.396   .     A
C648   C650    1.396   .     A
C649   H661    1.085   .     S
C649   C651    1.388   .     A
C650   H662    1.085   .     S
C650   C652    1.388   .     A
C651   C657    1.397   .     A
C651   C653    1.409   .     A
C652   C658    1.397   .     A
C652   C654    1.409   .     A
C653   C655    1.418   .     A
C653   C24     1.409   1_556 S
C654   C656    1.418   .     A
C655   C660    1.410   .     A
C656   C659    1.410   .     A
C657   H663    1.084   .     S
C657   C29     1.389   1_556 S
C658   H664    1.084   .     S
C659   H665    1.081   .     S
C660   H666    1.081   .     S
C660   C28     1.389   1_556 S
C667   N689    1.439   .     S
C667   C672    1.409   .     A
C667   C809    1.396   1_455 S
C668   C671    1.409   .     A
C668   N692    1.439   .     S
C668   C740    1.396   .     S
C669   N695    1.434   .     S
C669   C671    1.408   .     A
C669   C737    1.396   .     S
C670   C672    1.408   .     A
C670   N698    1.434   .     S
C670   C808    1.396   1_455 S
C673   N682    1.367   .     A
C673   H677    1.081   .     S
C673   C1096   1.416   1_545 S
C674   N681    1.367   .     A
C674   H678    1.081   .     S
C674   C885    1.416   .     S
C675   H679    1.081   .     S
C675   N682    1.367   .     A
C675   C1094   1.416   1_545 S
C676   H680    1.081   .     S
C676   N681    1.367   .     A
C676   C883    1.416   .     S
C683   H684    1.082   .     S
C683   O685    1.221   .     D
C686   H687    1.082   .     S
C686   O688    1.221   .     D
N689   O690    1.301   .     A
N689   O691    1.301   .     A
N692   O693    1.301   .     A
N692   O694    1.301   .     A
N695   O696    1.301   .     A
N695   O697    1.301   .     A
N698   O700    1.301   .     A
N698   O699    1.301   .     A
O701   Cu713   1.962   .     S
O701   C705    1.287   .     A
O702   Cu714   1.962   .     S
O702   C706    1.287   .     A
O703   Cu713   1.959   .     S
O703   C706    1.290   .     A
O704   Cu714   1.959   .     S
O704   C705    1.290   .     A
C705   C742    1.447   .     S
C706   C741    1.447   .     S
O707   C711    1.291   .     A
O707   Cu713   1.972   .     S
O708   C712    1.291   .     A
O708   Cu714   1.972   .     S
O709   Cu713   1.966   .     S
O709   C712    1.295   .     A
O710   Cu714   1.966   .     S
O710   C711    1.295   .     A
C711   C718    1.460   .     S
C712   C717    1.460   .     S
Cu713  N751    2.013   .     S
Cu713  Cu714   2.678   .     S
Cu714  N752    2.013   .     S
C715   C753    1.484   .     S
C715   C725    1.413   .     A
C715   C717    1.417   .     A
C716   C756    1.484   .     S
C716   C718    1.417   .     A
C716   C726    1.413   .     A
C717   C719    1.396   .     A
C718   C720    1.396   .     A
C719   H731    1.085   .     S
C719   C721    1.388   .     A
C720   H732    1.085   .     S
C720   C722    1.388   .     A
C721   C727    1.397   .     A
C721   C723    1.409   .     A
C722   C728    1.397   .     A
C722   C724    1.409   .     A
C723   C725    1.418   .     A
C723   C94     1.409   1_556 S
C724   C726    1.418   .     A
C725   C730    1.410   .     A
C726   C729    1.410   .     A
C727   H733    1.084   .     S
C727   C99     1.389   1_556 S
C728   H734    1.084   .     S
C729   H735    1.081   .     S
C730   H736    1.081   .     S
C730   C98     1.389   1_556 S
C737   N759    1.439   .     S
C737   C742    1.409   .     A
C738   C741    1.409   .     A
C738   N762    1.439   .     S
C738   C810    1.396   .     S
C739   N765    1.434   .     S
C739   C741    1.408   .     A
C739   C807    1.396   .     S
C740   C742    1.408   .     A
C740   N768    1.434   .     S
C743   N752    1.367   .     A
C743   H747    1.081   .     S
C743   C1166   1.416   1_545 S
C744   N751    1.367   .     A
C744   H748    1.081   .     S
C744   C955    1.416   .     S
C745   H749    1.081   .     S
C745   N752    1.367   .     A
C745   C1164   1.416   1_545 S
C746   H750    1.081   .     S
C746   N751    1.367   .     A
C746   C953    1.416   .     S
C753   H754    1.082   .     S
C753   O755    1.221   .     D
C756   H757    1.082   .     S
C756   O758    1.221   .     D
N759   O760    1.301   .     A
N759   O761    1.301   .     A
N762   O763    1.301   .     A
N762   O764    1.301   .     A
N765   O766    1.301   .     A
N765   O767    1.301   .     A
N768   O770    1.301   .     A
N768   O769    1.301   .     A
O771   Cu783   1.962   .     S
O771   C775    1.287   .     A
O772   Cu784   1.962   .     S
O772   C776    1.287   .     A
O773   Cu783   1.959   .     S
O773   C776    1.290   .     A
O774   Cu784   1.959   .     S
O774   C775    1.290   .     A
C775   C812    1.447   .     S
C776   C811    1.447   .     S
O777   C781    1.291   .     A
O777   Cu783   1.972   .     S
O778   C782    1.291   .     A
O778   Cu784   1.972   .     S
O779   Cu783   1.966   .     S
O779   C782    1.295   .     A
O780   Cu784   1.966   .     S
O780   C781    1.295   .     A
C781   C788    1.460   .     S
C782   C787    1.460   .     S
Cu783  N821    2.013   .     S
Cu783  Cu784   2.678   .     S
Cu784  N822    2.013   .     S
C785   C823    1.484   .     S
C785   C795    1.413   .     A
C785   C787    1.417   .     A
C786   C826    1.484   .     S
C786   C788    1.417   .     A
C786   C796    1.413   .     A
C787   C789    1.396   .     A
C788   C790    1.396   .     A
C789   H801    1.085   .     S
C789   C791    1.388   .     A
C790   H802    1.085   .     S
C790   C792    1.388   .     A
C791   C797    1.397   .     A
C791   C793    1.409   .     A
C792   C798    1.397   .     A
C792   C794    1.409   .     A
C793   C795    1.418   .     A
C793   C164    1.409   1_556 S
C794   C796    1.418   .     A
C795   C800    1.410   .     A
C796   C799    1.410   .     A
C797   H803    1.084   .     S
C797   C169    1.389   1_556 S
C798   H804    1.084   .     S
C799   H805    1.081   .     S
C800   H806    1.081   .     S
C800   C168    1.389   1_556 S
C807   N829    1.439   .     S
C807   C812    1.409   .     A
C808   C811    1.409   .     A
C808   N832    1.439   .     S
C808   C670    1.396   1_655 S
C809   N835    1.434   .     S
C809   C811    1.408   .     A
C809   C667    1.396   1_655 S
C810   C812    1.408   .     A
C810   N838    1.434   .     S
C813   N822    1.367   .     A
C813   H817    1.081   .     S
C813   C1236   1.416   1_545 S
C814   N821    1.367   .     A
C814   H818    1.081   .     S
C814   C1025   1.416   .     S
C815   H819    1.081   .     S
C815   N822    1.367   .     A
C815   C1234   1.416   1_545 S
C816   H820    1.081   .     S
C816   N821    1.367   .     A
C816   C1023   1.416   .     S
C823   H824    1.082   .     S
C823   O825    1.221   .     D
C826   H827    1.082   .     S
C826   O828    1.221   .     D
N829   O830    1.301   .     A
N829   O831    1.301   .     A
N832   O833    1.301   .     A
N832   O834    1.301   .     A
N835   O836    1.301   .     A
N835   O837    1.301   .     A
N838   O840    1.301   .     A
N838   O839    1.301   .     A
O841   Cu853   1.962   .     S
O841   C845    1.287   .     A
O842   Cu854   1.962   .     S
O842   C846    1.287   .     A
O843   Cu853   1.959   .     S
O843   C846    1.290   .     A
O844   Cu854   1.959   .     S
O844   C845    1.290   .     A
C845   C882    1.447   .     S
C846   C881    1.447   .     S
O847   C851    1.291   .     A
O847   Cu853   1.972   .     S
O848   C852    1.291   .     A
O848   Cu854   1.972   .     S
O849   Cu853   1.966   .     S
O849   C852    1.295   .     A
O850   Cu854   1.966   .     S
O850   C851    1.295   .     A
C851   C858    1.460   .     S
C852   C857    1.460   .     S
Cu853  N891    2.013   .     S
Cu853  Cu854   2.678   .     S
Cu854  N892    2.013   .     S
C855   C893    1.484   .     S
C855   C865    1.413   .     A
C855   C857    1.417   .     A
C856   C896    1.484   .     S
C856   C858    1.417   .     A
C856   C866    1.413   .     A
C857   C859    1.396   .     A
C858   C860    1.396   .     A
C859   H871    1.085   .     S
C859   C861    1.388   .     A
C860   H872    1.085   .     S
C860   C862    1.388   .     A
C861   C867    1.397   .     A
C861   C863    1.409   .     A
C862   C868    1.397   .     A
C862   C864    1.409   .     A
C863   C865    1.418   .     A
C863   C234    1.409   1_556 S
C864   C866    1.418   .     A
C865   C870    1.410   .     A
C866   C869    1.410   .     A
C867   H873    1.084   .     S
C867   C239    1.389   1_556 S
C868   H874    1.084   .     S
C869   H875    1.081   .     S
C870   H876    1.081   .     S
C870   C238    1.389   1_556 S
C877   N899    1.439   .     S
C877   C882    1.409   .     A
C877   C1019   1.396   1_455 S
C878   C881    1.409   .     A
C878   N902    1.439   .     S
C878   C950    1.396   .     S
C879   N905    1.434   .     S
C879   C881    1.408   .     A
C879   C947    1.396   .     S
C880   C882    1.408   .     A
C880   N908    1.434   .     S
C880   C1018   1.396   1_455 S
C883   N892    1.367   .     A
C883   H887    1.081   .     S
C884   N891    1.367   .     A
C884   H888    1.081   .     S
C884   C1095   1.416   .     S
C885   H889    1.081   .     S
C885   N892    1.367   .     A
C886   H890    1.081   .     S
C886   N891    1.367   .     A
C886   C1093   1.416   .     S
C893   H894    1.082   .     S
C893   O895    1.221   .     D
C896   H897    1.082   .     S
C896   O898    1.221   .     D
N899   O900    1.301   .     A
N899   O901    1.301   .     A
N902   O903    1.301   .     A
N902   O904    1.301   .     A
N905   O906    1.301   .     A
N905   O907    1.301   .     A
N908   O910    1.301   .     A
N908   O909    1.301   .     A
O911   Cu923   1.962   .     S
O911   C915    1.287   .     A
O912   Cu924   1.962   .     S
O912   C916    1.287   .     A
O913   Cu923   1.959   .     S
O913   C916    1.290   .     A
O914   Cu924   1.959   .     S
O914   C915    1.290   .     A
C915   C952    1.447   .     S
C916   C951    1.447   .     S
O917   C921    1.291   .     A
O917   Cu923   1.972   .     S
O918   C922    1.291   .     A
O918   Cu924   1.972   .     S
O919   Cu923   1.966   .     S
O919   C922    1.295   .     A
O920   Cu924   1.966   .     S
O920   C921    1.295   .     A
C921   C928    1.460   .     S
C922   C927    1.460   .     S
Cu923  N961    2.013   .     S
Cu923  Cu924   2.678   .     S
Cu924  N962    2.013   .     S
C925   C963    1.484   .     S
C925   C935    1.413   .     A
C925   C927    1.417   .     A
C926   C966    1.484   .     S
C926   C928    1.417   .     A
C926   C936    1.413   .     A
C927   C929    1.396   .     A
C928   C930    1.396   .     A
C929   H941    1.085   .     S
C929   C931    1.388   .     A
C930   H942    1.085   .     S
C930   C932    1.388   .     A
C931   C937    1.397   .     A
C931   C933    1.409   .     A
C932   C938    1.397   .     A
C932   C934    1.409   .     A
C933   C935    1.418   .     A
C933   C304    1.409   1_556 S
C934   C936    1.418   .     A
C935   C940    1.410   .     A
C936   C939    1.410   .     A
C937   H943    1.084   .     S
C937   C309    1.389   1_556 S
C938   H944    1.084   .     S
C939   H945    1.081   .     S
C940   H946    1.081   .     S
C940   C308    1.389   1_556 S
C947   N969    1.439   .     S
C947   C952    1.409   .     A
C948   C951    1.409   .     A
C948   N972    1.439   .     S
C948   C1020   1.396   .     S
C949   N975    1.434   .     S
C949   C951    1.408   .     A
C949   C1017   1.396   .     S
C950   C952    1.408   .     A
C950   N978    1.434   .     S
C953   N962    1.367   .     A
C953   H957    1.081   .     S
C954   N961    1.367   .     A
C954   H958    1.081   .     S
C954   C1165   1.416   .     S
C955   H959    1.081   .     S
C955   N962    1.367   .     A
C956   H960    1.081   .     S
C956   N961    1.367   .     A
C956   C1163   1.416   .     S
C963   H964    1.082   .     S
C963   O965    1.221   .     D
C966   H967    1.082   .     S
C966   O968    1.221   .     D
N969   O970    1.301   .     A
N969   O971    1.301   .     A
N972   O973    1.301   .     A
N972   O974    1.301   .     A
N975   O976    1.301   .     A
N975   O977    1.301   .     A
N978   O980    1.301   .     A
N978   O979    1.301   .     A
O981   Cu993   1.962   .     S
O981   C985    1.287   .     A
O982   Cu994   1.962   .     S
O982   C986    1.287   .     A
O983   Cu993   1.959   .     S
O983   C986    1.290   .     A
O984   Cu994   1.959   .     S
O984   C985    1.290   .     A
C985   C1022   1.447   .     S
C986   C1021   1.447   .     S
O987   C991    1.291   .     A
O987   Cu993   1.972   .     S
O988   C992    1.291   .     A
O988   Cu994   1.972   .     S
O989   Cu993   1.966   .     S
O989   C992    1.295   .     A
O990   Cu994   1.966   .     S
O990   C991    1.295   .     A
C991   C998    1.460   .     S
C992   C997    1.460   .     S
Cu993  N1031   2.013   .     S
Cu993  Cu994   2.678   .     S
Cu994  N1032   2.013   .     S
C995   C1033   1.484   .     S
C995   C1005   1.413   .     A
C995   C997    1.417   .     A
C996   C1036   1.484   .     S
C996   C998    1.417   .     A
C996   C1006   1.413   .     A
C997   C999    1.396   .     A
C998   C1000   1.396   .     A
C999   H1011   1.085   .     S
C999   C1001   1.388   .     A
C1000  H1012   1.085   .     S
C1000  C1002   1.388   .     A
C1001  C1007   1.397   .     A
C1001  C1003   1.409   .     A
C1002  C1008   1.397   .     A
C1002  C1004   1.409   .     A
C1003  C1005   1.418   .     A
C1003  C374    1.409   1_556 S
C1004  C1006   1.418   .     A
C1005  C1010   1.410   .     A
C1006  C1009   1.410   .     A
C1007  H1013   1.084   .     S
C1007  C379    1.389   1_556 S
C1008  H1014   1.084   .     S
C1009  H1015   1.081   .     S
C1010  H1016   1.081   .     S
C1010  C378    1.389   1_556 S
C1017  N1039   1.439   .     S
C1017  C1022   1.409   .     A
C1018  C1021   1.409   .     A
C1018  N1042   1.439   .     S
C1018  C880    1.396   1_655 S
C1019  N1045   1.434   .     S
C1019  C1021   1.408   .     A
C1019  C877    1.396   1_655 S
C1020  C1022   1.408   .     A
C1020  N1048   1.434   .     S
C1023  N1032   1.367   .     A
C1023  H1027   1.081   .     S
C1024  N1031   1.367   .     A
C1024  H1028   1.081   .     S
C1024  C1235   1.416   .     S
C1025  H1029   1.081   .     S
C1025  N1032   1.367   .     A
C1026  H1030   1.081   .     S
C1026  N1031   1.367   .     A
C1026  C1233   1.416   .     S
C1033  H1034   1.082   .     S
C1033  O1035   1.221   .     D
C1036  H1037   1.082   .     S
C1036  O1038   1.221   .     D
N1039  O1040   1.301   .     A
N1039  O1041   1.301   .     A
N1042  O1043   1.301   .     A
N1042  O1044   1.301   .     A
N1045  O1046   1.301   .     A
N1045  O1047   1.301   .     A
N1048  O1050   1.301   .     A
N1048  O1049   1.301   .     A
O1051  Cu1063  1.962   .     S
O1051  C1055   1.287   .     A
O1052  Cu1064  1.962   .     S
O1052  C1056   1.287   .     A
O1053  Cu1063  1.959   .     S
O1053  C1056   1.290   .     A
O1054  Cu1064  1.959   .     S
O1054  C1055   1.290   .     A
C1055  C1092   1.447   .     S
C1056  C1091   1.447   .     S
O1057  C1061   1.291   .     A
O1057  Cu1063  1.972   .     S
O1058  C1062   1.291   .     A
O1058  Cu1064  1.972   .     S
O1059  Cu1063  1.966   .     S
O1059  C1062   1.295   .     A
O1060  Cu1064  1.966   .     S
O1060  C1061   1.295   .     A
C1061  C1068   1.460   .     S
C1062  C1067   1.460   .     S
Cu1063 N1101   2.013   .     S
Cu1063 Cu1064  2.678   .     S
Cu1064 N1102   2.013   .     S
C1065  C1103   1.484   .     S
C1065  C1075   1.413   .     A
C1065  C1067   1.417   .     A
C1066  C1106   1.484   .     S
C1066  C1068   1.417   .     A
C1066  C1076   1.413   .     A
C1067  C1069   1.396   .     A
C1068  C1070   1.396   .     A
C1069  H1081   1.085   .     S
C1069  C1071   1.388   .     A
C1070  H1082   1.085   .     S
C1070  C1072   1.388   .     A
C1071  C1077   1.397   .     A
C1071  C1073   1.409   .     A
C1072  C1078   1.397   .     A
C1072  C1074   1.409   .     A
C1073  C1075   1.418   .     A
C1073  C444    1.409   1_556 S
C1074  C1076   1.418   .     A
C1075  C1080   1.410   .     A
C1076  C1079   1.410   .     A
C1077  H1083   1.084   .     S
C1077  C449    1.389   1_556 S
C1078  H1084   1.084   .     S
C1079  H1085   1.081   .     S
C1080  H1086   1.081   .     S
C1080  C448    1.389   1_556 S
C1087  N1109   1.439   .     S
C1087  C1092   1.409   .     A
C1087  C1229   1.396   1_455 S
C1088  C1091   1.409   .     A
C1088  N1112   1.439   .     S
C1088  C1160   1.396   .     S
C1089  N1115   1.434   .     S
C1089  C1091   1.408   .     A
C1089  C1157   1.396   .     S
C1090  C1092   1.408   .     A
C1090  N1118   1.434   .     S
C1090  C1228   1.396   1_455 S
C1093  N1102   1.367   .     A
C1093  H1097   1.081   .     S
C1094  N1101   1.367   .     A
C1094  H1098   1.081   .     S
C1094  C675    1.416   1_565 S
C1095  H1099   1.081   .     S
C1095  N1102   1.367   .     A
C1096  H1100   1.081   .     S
C1096  N1101   1.367   .     A
C1096  C673    1.416   1_565 S
C1103  H1104   1.082   .     S
C1103  O1105   1.221   .     D
C1106  H1107   1.082   .     S
C1106  O1108   1.221   .     D
N1109  O1110   1.301   .     A
N1109  O1111   1.301   .     A
N1112  O1113   1.301   .     A
N1112  O1114   1.301   .     A
N1115  O1116   1.301   .     A
N1115  O1117   1.301   .     A
N1118  O1120   1.301   .     A
N1118  O1119   1.301   .     A
O1121  Cu1133  1.962   .     S
O1121  C1125   1.287   .     A
O1122  Cu1134  1.962   .     S
O1122  C1126   1.287   .     A
O1123  Cu1133  1.959   .     S
O1123  C1126   1.290   .     A
O1124  Cu1134  1.959   .     S
O1124  C1125   1.290   .     A
C1125  C1162   1.447   .     S
C1126  C1161   1.447   .     S
O1127  C1131   1.291   .     A
O1127  Cu1133  1.972   .     S
O1128  C1132   1.291   .     A
O1128  Cu1134  1.972   .     S
O1129  Cu1133  1.966   .     S
O1129  C1132   1.295   .     A
O1130  Cu1134  1.966   .     S
O1130  C1131   1.295   .     A
C1131  C1138   1.460   .     S
C1132  C1137   1.460   .     S
Cu1133 N1171   2.013   .     S
Cu1133 Cu1134  2.678   .     S
Cu1134 N1172   2.013   .     S
C1135  C1173   1.484   .     S
C1135  C1145   1.413   .     A
C1135  C1137   1.417   .     A
C1136  C1176   1.484   .     S
C1136  C1138   1.417   .     A
C1136  C1146   1.413   .     A
C1137  C1139   1.396   .     A
C1138  C1140   1.396   .     A
C1139  H1151   1.085   .     S
C1139  C1141   1.388   .     A
C1140  H1152   1.085   .     S
C1140  C1142   1.388   .     A
C1141  C1147   1.397   .     A
C1141  C1143   1.409   .     A
C1142  C1148   1.397   .     A
C1142  C1144   1.409   .     A
C1143  C1145   1.418   .     A
C1143  C514    1.409   1_556 S
C1144  C1146   1.418   .     A
C1145  C1150   1.410   .     A
C1146  C1149   1.410   .     A
C1147  H1153   1.084   .     S
C1147  C519    1.389   1_556 S
C1148  H1154   1.084   .     S
C1149  H1155   1.081   .     S
C1150  H1156   1.081   .     S
C1150  C518    1.389   1_556 S
C1157  N1179   1.439   .     S
C1157  C1162   1.409   .     A
C1158  C1161   1.409   .     A
C1158  N1182   1.439   .     S
C1158  C1230   1.396   .     S
C1159  N1185   1.434   .     S
C1159  C1161   1.408   .     A
C1159  C1227   1.396   .     S
C1160  C1162   1.408   .     A
C1160  N1188   1.434   .     S
C1163  N1172   1.367   .     A
C1163  H1167   1.081   .     S
C1164  N1171   1.367   .     A
C1164  H1168   1.081   .     S
C1164  C745    1.416   1_565 S
C1165  H1169   1.081   .     S
C1165  N1172   1.367   .     A
C1166  H1170   1.081   .     S
C1166  N1171   1.367   .     A
C1166  C743    1.416   1_565 S
C1173  H1174   1.082   .     S
C1173  O1175   1.221   .     D
C1176  H1177   1.082   .     S
C1176  O1178   1.221   .     D
N1179  O1180   1.301   .     A
N1179  O1181   1.301   .     A
N1182  O1183   1.301   .     A
N1182  O1184   1.301   .     A
N1185  O1186   1.301   .     A
N1185  O1187   1.301   .     A
N1188  O1190   1.301   .     A
N1188  O1189   1.301   .     A
O1191  Cu1203  1.962   .     S
O1191  C1195   1.287   .     A
O1192  Cu1204  1.962   .     S
O1192  C1196   1.287   .     A
O1193  Cu1203  1.959   .     S
O1193  C1196   1.290   .     A
O1194  Cu1204  1.959   .     S
O1194  C1195   1.290   .     A
C1195  C1232   1.447   .     S
C1196  C1231   1.447   .     S
O1197  C1201   1.291   .     A
O1197  Cu1203  1.972   .     S
O1198  C1202   1.291   .     A
O1198  Cu1204  1.972   .     S
O1199  Cu1203  1.966   .     S
O1199  C1202   1.295   .     A
O1200  Cu1204  1.966   .     S
O1200  C1201   1.295   .     A
C1201  C1208   1.460   .     S
C1202  C1207   1.460   .     S
Cu1203 N1241   2.013   .     S
Cu1203 Cu1204  2.678   .     S
Cu1204 N1242   2.013   .     S
C1205  C1243   1.484   .     S
C1205  C1215   1.413   .     A
C1205  C1207   1.417   .     A
C1206  C1246   1.484   .     S
C1206  C1208   1.417   .     A
C1206  C1216   1.413   .     A
C1207  C1209   1.396   .     A
C1208  C1210   1.396   .     A
C1209  H1221   1.085   .     S
C1209  C1211   1.388   .     A
C1210  H1222   1.085   .     S
C1210  C1212   1.388   .     A
C1211  C1217   1.397   .     A
C1211  C1213   1.409   .     A
C1212  C1218   1.397   .     A
C1212  C1214   1.409   .     A
C1213  C1215   1.418   .     A
C1213  C584    1.409   1_556 S
C1214  C1216   1.418   .     A
C1215  C1220   1.410   .     A
C1216  C1219   1.410   .     A
C1217  H1223   1.084   .     S
C1217  C589    1.389   1_556 S
C1218  H1224   1.084   .     S
C1219  H1225   1.081   .     S
C1220  H1226   1.081   .     S
C1220  C588    1.389   1_556 S
C1227  N1249   1.439   .     S
C1227  C1232   1.409   .     A
C1228  C1231   1.409   .     A
C1228  N1252   1.439   .     S
C1228  C1090   1.396   1_655 S
C1229  N1255   1.434   .     S
C1229  C1231   1.408   .     A
C1229  C1087   1.396   1_655 S
C1230  C1232   1.408   .     A
C1230  N1258   1.434   .     S
C1233  N1242   1.367   .     A
C1233  H1237   1.081   .     S
C1234  N1241   1.367   .     A
C1234  H1238   1.081   .     S
C1234  C815    1.416   1_565 S
C1235  H1239   1.081   .     S
C1235  N1242   1.367   .     A
C1236  H1240   1.081   .     S
C1236  N1241   1.367   .     A
C1236  C813    1.416   1_565 S
C1243  H1244   1.082   .     S
C1243  O1245   1.221   .     D
C1246  H1247   1.082   .     S
C1246  O1248   1.221   .     D
N1249  O1250   1.301   .     A
N1249  O1251   1.301   .     A
N1252  O1253   1.301   .     A
N1252  O1254   1.301   .     A
N1255  O1256   1.301   .     A
N1255  O1257   1.301   .     A
N1258  O1260   1.301   .     A
N1258  O1259   1.301   .     A
