data_str_m2_o1_o18_pcu_sym.218
_audit_creation_date              2020-01-03
_audit_creation_method            'Materials Studio'
_symmetry_space_group_name_H-M    'P1'
_symmetry_Int_Tables_number       1
_symmetry_cell_setting            triclinic
loop_
_symmetry_equiv_pos_as_xyz
  x,y,z
_cell_length_a                    28.9839
_cell_length_b                    32.3240
_cell_length_c                    30.6640
_cell_angle_alpha                 90.0799
_cell_angle_beta                  69.9216
_cell_angle_gamma                 90.0291
loop_
_atom_site_label
_atom_site_type_symbol
_atom_site_fract_x
_atom_site_fract_y
_atom_site_fract_z
_atom_site_U_iso_or_equiv
_atom_site_adp_type
_atom_site_occupancy
C1     C     0.00051   0.08761   0.24862   0.00000  Uiso   1.00
C2     C     0.33286   0.24573   0.25134   0.00000  Uiso   1.00
C3     C     0.19044   0.10057   0.04815   0.00000  Uiso   1.00
C4     C     0.14292   0.10168   0.45184   0.00000  Uiso   1.00
C5     C     0.23821   0.11699   0.02739   0.00000  Uiso   1.00
C6     C     0.09816   0.12313   0.47072   0.00000  Uiso   1.00
C7     C     0.31855   0.02023   0.21586   0.00000  Uiso   1.00
C8     C     0.01557   0.31312   0.28356   0.00000  Uiso   1.00
C9     C     0.31682   0.31063   0.21951   0.00000  Uiso   1.00
C10    C     0.01689   0.02272   0.28020   0.00000  Uiso   1.00
C11    C     0.33229   0.29045   0.25239   0.00000  Uiso   1.00
C12    C     0.00126   0.04290   0.24742   0.00000  Uiso   1.00
C13    C     0.17983   0.14399   0.28163   0.00000  Uiso   1.00
C14    C     0.15353   0.18931   0.21835   0.00000  Uiso   1.00
C15    C     0.13057   0.14397   0.28161   0.00000  Uiso   1.00
C16    C     0.20277   0.18933   0.21838   0.00000  Uiso   1.00
C17    C     0.30417   0.16533   0.33678   0.00000  Uiso   1.00
C18    C     0.02917   0.16585   0.16318   0.00000  Uiso   1.00
C19    C     0.28454   0.15728   0.38726   0.00000  Uiso   1.00
C20    C     0.04905   0.15895   0.11249   0.00000  Uiso   1.00
C21    C     0.29137   0.16032   0.46354   0.00000  Uiso   1.00
C22    C     0.04517   0.16646   0.03543   0.00000  Uiso   1.00
C23    C     0.30753   0.17255   0.41699   0.00000  Uiso   1.00
C24    C     0.02703   0.17595   0.08278   0.00000  Uiso   1.00
C25    C     0.24168   0.13373   0.40596   0.00000  Uiso   1.00
C26    C     0.09181   0.13526   0.09360   0.00000  Uiso   1.00
C27    C     0.22426   0.12177   0.45327   0.00000  Uiso   1.00
C28    C     0.11001   0.12450   0.04600   0.00000  Uiso   1.00
C29    C     0.25232   0.13242   0.48132   0.00000  Uiso   1.00
C30    C     0.08381   0.13800   0.01718   0.00000  Uiso   1.00
C31    C     0.17634   0.10568   0.47544   0.00000  Uiso   1.00
C32    C     0.15722   0.10656   0.02442   0.00000  Uiso   1.00
Cu33   Cu    0.04689   0.16667   0.25000   0.00000  Uiso   1.00
Cu34   Cu    0.28645   0.16666   0.25000   0.00000  Uiso   1.00
H35    H     0.18883   0.12566   0.30708   0.00000  Uiso   1.00
H36    H     0.14457   0.20762   0.19284   0.00000  Uiso   1.00
N37    N     0.11736   0.16668   0.24999   0.00000  Uiso   1.00
N38    N     0.21597   0.16666   0.25001   0.00000  Uiso   1.00
O39    O     0.03958   0.10655   0.25000   0.00000  Uiso   1.00
O40    O     0.29375   0.22678   0.25000   0.00000  Uiso   1.00
O41    O     0.29372   0.10654   0.25001   0.00000  Uiso   1.00
O42    O     0.03961   0.22679   0.25000   0.00000  Uiso   1.00
O43    O     0.01852   0.16668   0.31492   0.00000  Uiso   1.00
O44    O     0.31481   0.16666   0.18509   0.00000  Uiso   1.00
O45    O     0.27267   0.16667   0.31492   0.00000  Uiso   1.00
O46    O     0.06067   0.16667   0.18508   0.00000  Uiso   1.00
C47    C     0.27295   0.11674   0.05291   0.00000  Uiso   1.00
O48    O     0.26511   0.13859   0.08726   0.00000  Uiso   1.00
O49    O     0.31266   0.08941   0.03947   0.00000  Uiso   1.00
H50    H     0.33114   0.08898   0.06214   0.00000  Uiso   1.00
C51    C     0.06939   0.13204   0.44067   0.00000  Uiso   1.00
O52    O     0.07602   0.16473   0.41962   0.00000  Uiso   1.00
O53    O     0.03807   0.10230   0.43285   0.00000  Uiso   1.00
H54    H     0.03695   0.07589   0.45095   0.00000  Uiso   1.00
H55    H     0.11066   0.12611   0.11674   0.00000  Uiso   1.00
H56    H     0.22183   0.12610   0.38313   0.00000  Uiso   1.00
H57    H     0.32952   0.19690   0.09606   0.00000  Uiso   1.00
H58    H     0.00439   0.19409   0.40415   0.00000  Uiso   1.00
H59    H     0.30821   0.17376   0.48608   0.00000  Uiso   1.00
H60    H     0.03001   0.18251   0.01304   0.00000  Uiso   1.00
C61    C     0.17580   0.07377   0.09044   0.00000  Uiso   1.00
O62    O     0.19742   0.07539   0.11829   0.00000  Uiso   1.00
O63    O     0.13614   0.04659   0.09844   0.00000  Uiso   1.00
H64    H     0.12894   0.03037   0.12832   0.00000  Uiso   1.00
C65    C     0.15554   0.07452   0.40976   0.00000  Uiso   1.00
O66    O     0.13284   0.07646   0.38282   0.00000  Uiso   1.00
O67    O     0.19429   0.04631   0.40114   0.00000  Uiso   1.00
H68    H     0.20002   0.02981   0.37160   0.00000  Uiso   1.00
C69    C     0.30635   0.03956   0.17711   0.00000  Uiso   1.00
O70    O     0.32405   0.07289   0.16108   0.00000  Uiso   1.00
O71    O     0.27610   0.01854   0.15744   0.00000  Uiso   1.00
H72    H     0.27209   0.03393   0.13019   0.00000  Uiso   1.00
C73    C     0.02944   0.29364   0.32124   0.00000  Uiso   1.00
O74    O     0.01084   0.26096   0.33861   0.00000  Uiso   1.00
O75    O     0.06276   0.31363   0.33806   0.00000  Uiso   1.00
H76    H     0.06893   0.29769   0.36399   0.00000  Uiso   1.00
H77    H     0.30542   0.29244   0.19522   0.00000  Uiso   1.00
H78    H     0.02839   0.04084   0.30448   0.00000  Uiso   1.00
H79    H     0.10314   0.12557   0.30708   0.00000  Uiso   1.00
H80    H     0.23021   0.20773   0.19292   0.00000  Uiso   1.00
C81    C     0.33384   0.08761   0.24862   0.00000  Uiso   1.00
C82    C     0.66619   0.24573   0.25134   0.00000  Uiso   1.00
C83    C     0.52377   0.10057   0.04815   0.00000  Uiso   1.00
C84    C     0.47625   0.10168   0.45184   0.00000  Uiso   1.00
C85    C     0.57155   0.11699   0.02739   0.00000  Uiso   1.00
C86    C     0.43150   0.12313   0.47072   0.00000  Uiso   1.00
C87    C     0.65188   0.02023   0.21586   0.00000  Uiso   1.00
C88    C     0.34890   0.31312   0.28356   0.00000  Uiso   1.00
C89    C     0.65015   0.31063   0.21951   0.00000  Uiso   1.00
C90    C     0.35022   0.02272   0.28020   0.00000  Uiso   1.00
C91    C     0.66562   0.29045   0.25239   0.00000  Uiso   1.00
C92    C     0.33459   0.04290   0.24742   0.00000  Uiso   1.00
C93    C     0.51316   0.14399   0.28163   0.00000  Uiso   1.00
C94    C     0.48686   0.18931   0.21835   0.00000  Uiso   1.00
C95    C     0.46390   0.14397   0.28161   0.00000  Uiso   1.00
C96    C     0.53611   0.18933   0.21838   0.00000  Uiso   1.00
C97    C     0.63750   0.16533   0.33678   0.00000  Uiso   1.00
C98    C     0.36251   0.16585   0.16318   0.00000  Uiso   1.00
C99    C     0.61787   0.15728   0.38726   0.00000  Uiso   1.00
C100   C     0.38238   0.15895   0.11249   0.00000  Uiso   1.00
C101   C     0.62470   0.16032   0.46354   0.00000  Uiso   1.00
C102   C     0.37851   0.16646   0.03543   0.00000  Uiso   1.00
C103   C     0.64087   0.17255   0.41699   0.00000  Uiso   1.00
C104   C     0.36036   0.17595   0.08278   0.00000  Uiso   1.00
C105   C     0.57501   0.13373   0.40596   0.00000  Uiso   1.00
C106   C     0.42514   0.13526   0.09360   0.00000  Uiso   1.00
C107   C     0.55759   0.12177   0.45327   0.00000  Uiso   1.00
C108   C     0.44334   0.12450   0.04600   0.00000  Uiso   1.00
C109   C     0.58566   0.13242   0.48132   0.00000  Uiso   1.00
C110   C     0.41714   0.13800   0.01718   0.00000  Uiso   1.00
C111   C     0.50967   0.10568   0.47544   0.00000  Uiso   1.00
C112   C     0.49055   0.10656   0.02442   0.00000  Uiso   1.00
Cu113  Cu    0.38022   0.16667   0.25000   0.00000  Uiso   1.00
Cu114  Cu    0.61978   0.16666   0.25000   0.00000  Uiso   1.00
H115   H     0.52217   0.12566   0.30708   0.00000  Uiso   1.00
H116   H     0.47790   0.20762   0.19284   0.00000  Uiso   1.00
N117   N     0.45069   0.16668   0.24999   0.00000  Uiso   1.00
N118   N     0.54931   0.16666   0.25001   0.00000  Uiso   1.00
O119   O     0.37291   0.10655   0.25000   0.00000  Uiso   1.00
O120   O     0.62709   0.22678   0.25000   0.00000  Uiso   1.00
O121   O     0.62706   0.10654   0.25001   0.00000  Uiso   1.00
O122   O     0.37294   0.22679   0.25000   0.00000  Uiso   1.00
O123   O     0.35186   0.16668   0.31492   0.00000  Uiso   1.00
O124   O     0.64814   0.16666   0.18509   0.00000  Uiso   1.00
O125   O     0.60600   0.16667   0.31492   0.00000  Uiso   1.00
O126   O     0.39400   0.16667   0.18508   0.00000  Uiso   1.00
C127   C     0.60629   0.11674   0.05291   0.00000  Uiso   1.00
O128   O     0.59844   0.13859   0.08726   0.00000  Uiso   1.00
O129   O     0.64599   0.08941   0.03947   0.00000  Uiso   1.00
H130   H     0.66448   0.08898   0.06214   0.00000  Uiso   1.00
C131   C     0.40273   0.13204   0.44067   0.00000  Uiso   1.00
O132   O     0.40935   0.16473   0.41962   0.00000  Uiso   1.00
O133   O     0.37140   0.10230   0.43285   0.00000  Uiso   1.00
H134   H     0.37028   0.07589   0.45095   0.00000  Uiso   1.00
H135   H     0.44400   0.12611   0.11674   0.00000  Uiso   1.00
H136   H     0.55517   0.12610   0.38313   0.00000  Uiso   1.00
H137   H     0.66286   0.19690   0.09606   0.00000  Uiso   1.00
H138   H     0.33773   0.19409   0.40415   0.00000  Uiso   1.00
H139   H     0.64155   0.17376   0.48608   0.00000  Uiso   1.00
H140   H     0.36334   0.18251   0.01304   0.00000  Uiso   1.00
C141   C     0.50913   0.07377   0.09044   0.00000  Uiso   1.00
O142   O     0.53075   0.07539   0.11829   0.00000  Uiso   1.00
O143   O     0.46947   0.04659   0.09844   0.00000  Uiso   1.00
H144   H     0.46227   0.03037   0.12832   0.00000  Uiso   1.00
C145   C     0.48888   0.07452   0.40976   0.00000  Uiso   1.00
O146   O     0.46617   0.07646   0.38282   0.00000  Uiso   1.00
O147   O     0.52762   0.04631   0.40114   0.00000  Uiso   1.00
H148   H     0.53335   0.02981   0.37160   0.00000  Uiso   1.00
C149   C     0.63968   0.03956   0.17711   0.00000  Uiso   1.00
O150   O     0.65738   0.07289   0.16108   0.00000  Uiso   1.00
O151   O     0.60943   0.01854   0.15744   0.00000  Uiso   1.00
H152   H     0.60542   0.03393   0.13019   0.00000  Uiso   1.00
C153   C     0.36277   0.29364   0.32124   0.00000  Uiso   1.00
O154   O     0.34417   0.26096   0.33861   0.00000  Uiso   1.00
O155   O     0.39609   0.31363   0.33806   0.00000  Uiso   1.00
H156   H     0.40227   0.29769   0.36399   0.00000  Uiso   1.00
H157   H     0.63875   0.29244   0.19522   0.00000  Uiso   1.00
H158   H     0.36173   0.04084   0.30448   0.00000  Uiso   1.00
H159   H     0.43647   0.12557   0.30708   0.00000  Uiso   1.00
H160   H     0.56354   0.20773   0.19292   0.00000  Uiso   1.00
C161   C     0.66718   0.08761   0.24862   0.00000  Uiso   1.00
C162   C     0.99953   0.24573   0.25134   0.00000  Uiso   1.00
C163   C     0.85710   0.10057   0.04815   0.00000  Uiso   1.00
C164   C     0.80959   0.10168   0.45184   0.00000  Uiso   1.00
C165   C     0.90488   0.11699   0.02739   0.00000  Uiso   1.00
C166   C     0.76483   0.12313   0.47072   0.00000  Uiso   1.00
C167   C     0.98522   0.02023   0.21586   0.00000  Uiso   1.00
C168   C     0.68223   0.31312   0.28356   0.00000  Uiso   1.00
C169   C     0.98348   0.31063   0.21951   0.00000  Uiso   1.00
C170   C     0.68356   0.02272   0.28020   0.00000  Uiso   1.00
C171   C     0.99895   0.29045   0.25239   0.00000  Uiso   1.00
C172   C     0.66792   0.04290   0.24742   0.00000  Uiso   1.00
C173   C     0.84649   0.14399   0.28163   0.00000  Uiso   1.00
C174   C     0.82019   0.18931   0.21835   0.00000  Uiso   1.00
C175   C     0.79724   0.14397   0.28161   0.00000  Uiso   1.00
C176   C     0.86944   0.18933   0.21838   0.00000  Uiso   1.00
C177   C     0.97084   0.16533   0.33678   0.00000  Uiso   1.00
C178   C     0.69584   0.16585   0.16318   0.00000  Uiso   1.00
C179   C     0.95121   0.15728   0.38726   0.00000  Uiso   1.00
C180   C     0.71572   0.15895   0.11249   0.00000  Uiso   1.00
C181   C     0.95803   0.16032   0.46354   0.00000  Uiso   1.00
C182   C     0.71184   0.16646   0.03543   0.00000  Uiso   1.00
C183   C     0.97420   0.17255   0.41699   0.00000  Uiso   1.00
C184   C     0.69369   0.17595   0.08278   0.00000  Uiso   1.00
C185   C     0.90834   0.13373   0.40596   0.00000  Uiso   1.00
C186   C     0.75847   0.13526   0.09360   0.00000  Uiso   1.00
C187   C     0.89093   0.12177   0.45327   0.00000  Uiso   1.00
C188   C     0.77668   0.12450   0.04600   0.00000  Uiso   1.00
C189   C     0.91899   0.13242   0.48132   0.00000  Uiso   1.00
C190   C     0.75047   0.13800   0.01718   0.00000  Uiso   1.00
C191   C     0.84300   0.10568   0.47544   0.00000  Uiso   1.00
C192   C     0.82388   0.10656   0.02442   0.00000  Uiso   1.00
Cu193  Cu    0.71355   0.16667   0.25000   0.00000  Uiso   1.00
Cu194  Cu    0.95311   0.16666   0.25000   0.00000  Uiso   1.00
H195   H     0.85550   0.12566   0.30708   0.00000  Uiso   1.00
H196   H     0.81123   0.20762   0.19284   0.00000  Uiso   1.00
N197   N     0.78403   0.16668   0.24999   0.00000  Uiso   1.00
N198   N     0.88264   0.16666   0.25001   0.00000  Uiso   1.00
O199   O     0.70625   0.10655   0.25000   0.00000  Uiso   1.00
O200   O     0.96042   0.22678   0.25000   0.00000  Uiso   1.00
O201   O     0.96039   0.10654   0.25001   0.00000  Uiso   1.00
O202   O     0.70628   0.22679   0.25000   0.00000  Uiso   1.00
O203   O     0.68519   0.16668   0.31492   0.00000  Uiso   1.00
O204   O     0.98148   0.16666   0.18509   0.00000  Uiso   1.00
O205   O     0.93933   0.16667   0.31492   0.00000  Uiso   1.00
O206   O     0.72733   0.16667   0.18508   0.00000  Uiso   1.00
C207   C     0.93962   0.11674   0.05291   0.00000  Uiso   1.00
O208   O     0.93178   0.13859   0.08726   0.00000  Uiso   1.00
O209   O     0.97932   0.08941   0.03947   0.00000  Uiso   1.00
H210   H     0.99781   0.08898   0.06214   0.00000  Uiso   1.00
C211   C     0.73606   0.13204   0.44067   0.00000  Uiso   1.00
O212   O     0.74268   0.16473   0.41962   0.00000  Uiso   1.00
O213   O     0.70474   0.10230   0.43285   0.00000  Uiso   1.00
H214   H     0.70361   0.07589   0.45095   0.00000  Uiso   1.00
H215   H     0.77733   0.12611   0.11674   0.00000  Uiso   1.00
H216   H     0.88850   0.12610   0.38313   0.00000  Uiso   1.00
H217   H     0.99619   0.19690   0.09606   0.00000  Uiso   1.00
H218   H     0.67106   0.19409   0.40415   0.00000  Uiso   1.00
H219   H     0.97488   0.17376   0.48608   0.00000  Uiso   1.00
H220   H     0.69667   0.18251   0.01304   0.00000  Uiso   1.00
C221   C     0.84246   0.07377   0.09044   0.00000  Uiso   1.00
O222   O     0.86409   0.07539   0.11829   0.00000  Uiso   1.00
O223   O     0.80281   0.04659   0.09844   0.00000  Uiso   1.00
H224   H     0.79561   0.03037   0.12832   0.00000  Uiso   1.00
C225   C     0.82221   0.07452   0.40976   0.00000  Uiso   1.00
O226   O     0.79951   0.07646   0.38282   0.00000  Uiso   1.00
O227   O     0.86096   0.04631   0.40114   0.00000  Uiso   1.00
H228   H     0.86668   0.02981   0.37160   0.00000  Uiso   1.00
C229   C     0.97302   0.03956   0.17711   0.00000  Uiso   1.00
O230   O     0.99072   0.07289   0.16108   0.00000  Uiso   1.00
O231   O     0.94276   0.01854   0.15744   0.00000  Uiso   1.00
H232   H     0.93875   0.03393   0.13019   0.00000  Uiso   1.00
C233   C     0.69610   0.29364   0.32124   0.00000  Uiso   1.00
O234   O     0.67751   0.26096   0.33861   0.00000  Uiso   1.00
O235   O     0.72943   0.31363   0.33806   0.00000  Uiso   1.00
H236   H     0.73560   0.29769   0.36399   0.00000  Uiso   1.00
H237   H     0.97208   0.29244   0.19522   0.00000  Uiso   1.00
H238   H     0.69506   0.04084   0.30448   0.00000  Uiso   1.00
H239   H     0.76981   0.12557   0.30708   0.00000  Uiso   1.00
H240   H     0.89688   0.20773   0.19292   0.00000  Uiso   1.00
C241   C     0.00051   0.42094   0.24862   0.00000  Uiso   1.00
C242   C     0.33286   0.57907   0.25134   0.00000  Uiso   1.00
C243   C     0.19044   0.43391   0.04815   0.00000  Uiso   1.00
C244   C     0.14292   0.43501   0.45184   0.00000  Uiso   1.00
C245   C     0.23821   0.45032   0.02739   0.00000  Uiso   1.00
C246   C     0.09816   0.45647   0.47072   0.00000  Uiso   1.00
C247   C     0.31855   0.35356   0.21586   0.00000  Uiso   1.00
C248   C     0.01557   0.64645   0.28356   0.00000  Uiso   1.00
C249   C     0.31682   0.64396   0.21951   0.00000  Uiso   1.00
C250   C     0.01689   0.35605   0.28020   0.00000  Uiso   1.00
C251   C     0.33229   0.62379   0.25239   0.00000  Uiso   1.00
C252   C     0.00126   0.37623   0.24742   0.00000  Uiso   1.00
C253   C     0.17983   0.47732   0.28163   0.00000  Uiso   1.00
C254   C     0.15353   0.52264   0.21835   0.00000  Uiso   1.00
C255   C     0.13057   0.47730   0.28161   0.00000  Uiso   1.00
C256   C     0.20277   0.52267   0.21838   0.00000  Uiso   1.00
C257   C     0.30417   0.49866   0.33678   0.00000  Uiso   1.00
C258   C     0.02917   0.49919   0.16318   0.00000  Uiso   1.00
C259   C     0.28454   0.49061   0.38726   0.00000  Uiso   1.00
C260   C     0.04905   0.49228   0.11249   0.00000  Uiso   1.00
C261   C     0.29137   0.49365   0.46354   0.00000  Uiso   1.00
C262   C     0.04517   0.49979   0.03543   0.00000  Uiso   1.00
C263   C     0.30753   0.50588   0.41699   0.00000  Uiso   1.00
C264   C     0.02703   0.50929   0.08278   0.00000  Uiso   1.00
C265   C     0.24168   0.46706   0.40596   0.00000  Uiso   1.00
C266   C     0.09181   0.46859   0.09360   0.00000  Uiso   1.00
C267   C     0.22426   0.45510   0.45327   0.00000  Uiso   1.00
C268   C     0.11001   0.45783   0.04600   0.00000  Uiso   1.00
C269   C     0.25232   0.46575   0.48132   0.00000  Uiso   1.00
C270   C     0.08381   0.47133   0.01718   0.00000  Uiso   1.00
C271   C     0.17634   0.43902   0.47544   0.00000  Uiso   1.00
C272   C     0.15722   0.43989   0.02442   0.00000  Uiso   1.00
Cu273  Cu    0.04689   0.50001   0.25000   0.00000  Uiso   1.00
Cu274  Cu    0.28645   0.49999   0.25000   0.00000  Uiso   1.00
H275   H     0.18883   0.45900   0.30708   0.00000  Uiso   1.00
H276   H     0.14457   0.54096   0.19284   0.00000  Uiso   1.00
N277   N     0.11736   0.50001   0.24999   0.00000  Uiso   1.00
N278   N     0.21597   0.49999   0.25001   0.00000  Uiso   1.00
O279   O     0.03958   0.43989   0.25000   0.00000  Uiso   1.00
O280   O     0.29375   0.56011   0.25000   0.00000  Uiso   1.00
O281   O     0.29372   0.43988   0.25001   0.00000  Uiso   1.00
O282   O     0.03961   0.56012   0.25000   0.00000  Uiso   1.00
O283   O     0.01852   0.50001   0.31492   0.00000  Uiso   1.00
O284   O     0.31481   0.49999   0.18509   0.00000  Uiso   1.00
O285   O     0.27267   0.50000   0.31492   0.00000  Uiso   1.00
O286   O     0.06067   0.50000   0.18508   0.00000  Uiso   1.00
C287   C     0.27295   0.45007   0.05291   0.00000  Uiso   1.00
O288   O     0.26511   0.47192   0.08726   0.00000  Uiso   1.00
O289   O     0.31266   0.42274   0.03947   0.00000  Uiso   1.00
H290   H     0.33114   0.42231   0.06214   0.00000  Uiso   1.00
C291   C     0.06939   0.46537   0.44067   0.00000  Uiso   1.00
O292   O     0.07602   0.49807   0.41962   0.00000  Uiso   1.00
O293   O     0.03807   0.43563   0.43285   0.00000  Uiso   1.00
H294   H     0.03695   0.40922   0.45095   0.00000  Uiso   1.00
H295   H     0.11066   0.45944   0.11674   0.00000  Uiso   1.00
H296   H     0.22183   0.45944   0.38313   0.00000  Uiso   1.00
H297   H     0.32952   0.53023   0.09606   0.00000  Uiso   1.00
H298   H     0.00439   0.52742   0.40415   0.00000  Uiso   1.00
H299   H     0.30821   0.50709   0.48608   0.00000  Uiso   1.00
H300   H     0.03001   0.51584   0.01304   0.00000  Uiso   1.00
C301   C     0.17580   0.40711   0.09044   0.00000  Uiso   1.00
O302   O     0.19742   0.40872   0.11829   0.00000  Uiso   1.00
O303   O     0.13614   0.37993   0.09844   0.00000  Uiso   1.00
H304   H     0.12894   0.36370   0.12832   0.00000  Uiso   1.00
C305   C     0.15554   0.40785   0.40976   0.00000  Uiso   1.00
O306   O     0.13284   0.40979   0.38282   0.00000  Uiso   1.00
O307   O     0.19429   0.37965   0.40114   0.00000  Uiso   1.00
H308   H     0.20002   0.36314   0.37160   0.00000  Uiso   1.00
C309   C     0.30635   0.37289   0.17711   0.00000  Uiso   1.00
O310   O     0.32405   0.40623   0.16108   0.00000  Uiso   1.00
O311   O     0.27610   0.35187   0.15744   0.00000  Uiso   1.00
H312   H     0.27209   0.36726   0.13019   0.00000  Uiso   1.00
C313   C     0.02944   0.62697   0.32124   0.00000  Uiso   1.00
O314   O     0.01084   0.59429   0.33861   0.00000  Uiso   1.00
O315   O     0.06276   0.64696   0.33806   0.00000  Uiso   1.00
H316   H     0.06893   0.63103   0.36399   0.00000  Uiso   1.00
H317   H     0.30542   0.62577   0.19522   0.00000  Uiso   1.00
H318   H     0.02839   0.37418   0.30448   0.00000  Uiso   1.00
H319   H     0.10314   0.45890   0.30708   0.00000  Uiso   1.00
H320   H     0.23021   0.54106   0.19292   0.00000  Uiso   1.00
C321   C     0.33384   0.42094   0.24862   0.00000  Uiso   1.00
C322   C     0.66619   0.57907   0.25134   0.00000  Uiso   1.00
C323   C     0.52377   0.43391   0.04815   0.00000  Uiso   1.00
C324   C     0.47625   0.43501   0.45184   0.00000  Uiso   1.00
C325   C     0.57155   0.45032   0.02739   0.00000  Uiso   1.00
C326   C     0.43150   0.45647   0.47072   0.00000  Uiso   1.00
C327   C     0.65188   0.35356   0.21586   0.00000  Uiso   1.00
C328   C     0.34890   0.64645   0.28356   0.00000  Uiso   1.00
C329   C     0.65015   0.64396   0.21951   0.00000  Uiso   1.00
C330   C     0.35022   0.35605   0.28020   0.00000  Uiso   1.00
C331   C     0.66562   0.62379   0.25239   0.00000  Uiso   1.00
C332   C     0.33459   0.37623   0.24742   0.00000  Uiso   1.00
C333   C     0.51316   0.47732   0.28163   0.00000  Uiso   1.00
C334   C     0.48686   0.52264   0.21835   0.00000  Uiso   1.00
C335   C     0.46390   0.47730   0.28161   0.00000  Uiso   1.00
C336   C     0.53611   0.52267   0.21838   0.00000  Uiso   1.00
C337   C     0.63750   0.49866   0.33678   0.00000  Uiso   1.00
C338   C     0.36251   0.49919   0.16318   0.00000  Uiso   1.00
C339   C     0.61787   0.49061   0.38726   0.00000  Uiso   1.00
C340   C     0.38238   0.49228   0.11249   0.00000  Uiso   1.00
C341   C     0.62470   0.49365   0.46354   0.00000  Uiso   1.00
C342   C     0.37851   0.49979   0.03543   0.00000  Uiso   1.00
C343   C     0.64087   0.50588   0.41699   0.00000  Uiso   1.00
C344   C     0.36036   0.50929   0.08278   0.00000  Uiso   1.00
C345   C     0.57501   0.46706   0.40596   0.00000  Uiso   1.00
C346   C     0.42514   0.46859   0.09360   0.00000  Uiso   1.00
C347   C     0.55759   0.45510   0.45327   0.00000  Uiso   1.00
C348   C     0.44334   0.45783   0.04600   0.00000  Uiso   1.00
C349   C     0.58566   0.46575   0.48132   0.00000  Uiso   1.00
C350   C     0.41714   0.47133   0.01718   0.00000  Uiso   1.00
C351   C     0.50967   0.43902   0.47544   0.00000  Uiso   1.00
C352   C     0.49055   0.43989   0.02442   0.00000  Uiso   1.00
Cu353  Cu    0.38022   0.50001   0.25000   0.00000  Uiso   1.00
Cu354  Cu    0.61978   0.49999   0.25000   0.00000  Uiso   1.00
H355   H     0.52217   0.45900   0.30708   0.00000  Uiso   1.00
H356   H     0.47790   0.54096   0.19284   0.00000  Uiso   1.00
N357   N     0.45069   0.50001   0.24999   0.00000  Uiso   1.00
N358   N     0.54931   0.49999   0.25001   0.00000  Uiso   1.00
O359   O     0.37291   0.43989   0.25000   0.00000  Uiso   1.00
O360   O     0.62709   0.56011   0.25000   0.00000  Uiso   1.00
O361   O     0.62706   0.43988   0.25001   0.00000  Uiso   1.00
O362   O     0.37294   0.56012   0.25000   0.00000  Uiso   1.00
O363   O     0.35186   0.50001   0.31492   0.00000  Uiso   1.00
O364   O     0.64814   0.49999   0.18509   0.00000  Uiso   1.00
O365   O     0.60600   0.50000   0.31492   0.00000  Uiso   1.00
O366   O     0.39400   0.50000   0.18508   0.00000  Uiso   1.00
C367   C     0.60629   0.45007   0.05291   0.00000  Uiso   1.00
O368   O     0.59844   0.47192   0.08726   0.00000  Uiso   1.00
O369   O     0.64599   0.42274   0.03947   0.00000  Uiso   1.00
H370   H     0.66448   0.42231   0.06214   0.00000  Uiso   1.00
C371   C     0.40273   0.46537   0.44067   0.00000  Uiso   1.00
O372   O     0.40935   0.49807   0.41962   0.00000  Uiso   1.00
O373   O     0.37140   0.43563   0.43285   0.00000  Uiso   1.00
H374   H     0.37028   0.40922   0.45095   0.00000  Uiso   1.00
H375   H     0.44400   0.45944   0.11674   0.00000  Uiso   1.00
H376   H     0.55517   0.45944   0.38313   0.00000  Uiso   1.00
H377   H     0.66286   0.53023   0.09606   0.00000  Uiso   1.00
H378   H     0.33773   0.52742   0.40415   0.00000  Uiso   1.00
H379   H     0.64155   0.50709   0.48608   0.00000  Uiso   1.00
H380   H     0.36334   0.51584   0.01304   0.00000  Uiso   1.00
C381   C     0.50913   0.40711   0.09044   0.00000  Uiso   1.00
O382   O     0.53075   0.40872   0.11829   0.00000  Uiso   1.00
O383   O     0.46947   0.37993   0.09844   0.00000  Uiso   1.00
H384   H     0.46227   0.36370   0.12832   0.00000  Uiso   1.00
C385   C     0.48888   0.40785   0.40976   0.00000  Uiso   1.00
O386   O     0.46617   0.40979   0.38282   0.00000  Uiso   1.00
O387   O     0.52762   0.37965   0.40114   0.00000  Uiso   1.00
H388   H     0.53335   0.36314   0.37160   0.00000  Uiso   1.00
C389   C     0.63968   0.37289   0.17711   0.00000  Uiso   1.00
O390   O     0.65738   0.40623   0.16108   0.00000  Uiso   1.00
O391   O     0.60943   0.35187   0.15744   0.00000  Uiso   1.00
H392   H     0.60542   0.36726   0.13019   0.00000  Uiso   1.00
C393   C     0.36277   0.62697   0.32124   0.00000  Uiso   1.00
O394   O     0.34417   0.59429   0.33861   0.00000  Uiso   1.00
O395   O     0.39609   0.64696   0.33806   0.00000  Uiso   1.00
H396   H     0.40227   0.63103   0.36399   0.00000  Uiso   1.00
H397   H     0.63875   0.62577   0.19522   0.00000  Uiso   1.00
H398   H     0.36173   0.37418   0.30448   0.00000  Uiso   1.00
H399   H     0.43647   0.45890   0.30708   0.00000  Uiso   1.00
H400   H     0.56354   0.54106   0.19292   0.00000  Uiso   1.00
C401   C     0.66718   0.42094   0.24862   0.00000  Uiso   1.00
C402   C     0.99953   0.57907   0.25134   0.00000  Uiso   1.00
C403   C     0.85710   0.43391   0.04815   0.00000  Uiso   1.00
C404   C     0.80959   0.43501   0.45184   0.00000  Uiso   1.00
C405   C     0.90488   0.45032   0.02739   0.00000  Uiso   1.00
C406   C     0.76483   0.45647   0.47072   0.00000  Uiso   1.00
C407   C     0.98522   0.35356   0.21586   0.00000  Uiso   1.00
C408   C     0.68223   0.64645   0.28356   0.00000  Uiso   1.00
C409   C     0.98348   0.64396   0.21951   0.00000  Uiso   1.00
C410   C     0.68356   0.35605   0.28020   0.00000  Uiso   1.00
C411   C     0.99895   0.62379   0.25239   0.00000  Uiso   1.00
C412   C     0.66792   0.37623   0.24742   0.00000  Uiso   1.00
C413   C     0.84649   0.47732   0.28163   0.00000  Uiso   1.00
C414   C     0.82019   0.52264   0.21835   0.00000  Uiso   1.00
C415   C     0.79724   0.47730   0.28161   0.00000  Uiso   1.00
C416   C     0.86944   0.52267   0.21838   0.00000  Uiso   1.00
C417   C     0.97084   0.49866   0.33678   0.00000  Uiso   1.00
C418   C     0.69584   0.49919   0.16318   0.00000  Uiso   1.00
C419   C     0.95121   0.49061   0.38726   0.00000  Uiso   1.00
C420   C     0.71572   0.49228   0.11249   0.00000  Uiso   1.00
C421   C     0.95803   0.49365   0.46354   0.00000  Uiso   1.00
C422   C     0.71184   0.49979   0.03543   0.00000  Uiso   1.00
C423   C     0.97420   0.50588   0.41699   0.00000  Uiso   1.00
C424   C     0.69369   0.50929   0.08278   0.00000  Uiso   1.00
C425   C     0.90834   0.46706   0.40596   0.00000  Uiso   1.00
C426   C     0.75847   0.46859   0.09360   0.00000  Uiso   1.00
C427   C     0.89093   0.45510   0.45327   0.00000  Uiso   1.00
C428   C     0.77668   0.45783   0.04600   0.00000  Uiso   1.00
C429   C     0.91899   0.46575   0.48132   0.00000  Uiso   1.00
C430   C     0.75047   0.47133   0.01718   0.00000  Uiso   1.00
C431   C     0.84300   0.43902   0.47544   0.00000  Uiso   1.00
C432   C     0.82388   0.43989   0.02442   0.00000  Uiso   1.00
Cu433  Cu    0.71355   0.50001   0.25000   0.00000  Uiso   1.00
Cu434  Cu    0.95311   0.49999   0.25000   0.00000  Uiso   1.00
H435   H     0.85550   0.45900   0.30708   0.00000  Uiso   1.00
H436   H     0.81123   0.54096   0.19284   0.00000  Uiso   1.00
N437   N     0.78403   0.50001   0.24999   0.00000  Uiso   1.00
N438   N     0.88264   0.49999   0.25001   0.00000  Uiso   1.00
O439   O     0.70625   0.43989   0.25000   0.00000  Uiso   1.00
O440   O     0.96042   0.56011   0.25000   0.00000  Uiso   1.00
O441   O     0.96039   0.43988   0.25001   0.00000  Uiso   1.00
O442   O     0.70628   0.56012   0.25000   0.00000  Uiso   1.00
O443   O     0.68519   0.50001   0.31492   0.00000  Uiso   1.00
O444   O     0.98148   0.49999   0.18509   0.00000  Uiso   1.00
O445   O     0.93933   0.50000   0.31492   0.00000  Uiso   1.00
O446   O     0.72733   0.50000   0.18508   0.00000  Uiso   1.00
C447   C     0.93962   0.45007   0.05291   0.00000  Uiso   1.00
O448   O     0.93178   0.47192   0.08726   0.00000  Uiso   1.00
O449   O     0.97932   0.42274   0.03947   0.00000  Uiso   1.00
H450   H     0.99781   0.42231   0.06214   0.00000  Uiso   1.00
C451   C     0.73606   0.46537   0.44067   0.00000  Uiso   1.00
O452   O     0.74268   0.49807   0.41962   0.00000  Uiso   1.00
O453   O     0.70474   0.43563   0.43285   0.00000  Uiso   1.00
H454   H     0.70361   0.40922   0.45095   0.00000  Uiso   1.00
H455   H     0.77733   0.45944   0.11674   0.00000  Uiso   1.00
H456   H     0.88850   0.45944   0.38313   0.00000  Uiso   1.00
H457   H     0.99619   0.53023   0.09606   0.00000  Uiso   1.00
H458   H     0.67106   0.52742   0.40415   0.00000  Uiso   1.00
H459   H     0.97488   0.50709   0.48608   0.00000  Uiso   1.00
H460   H     0.69667   0.51584   0.01304   0.00000  Uiso   1.00
C461   C     0.84246   0.40711   0.09044   0.00000  Uiso   1.00
O462   O     0.86409   0.40872   0.11829   0.00000  Uiso   1.00
O463   O     0.80281   0.37993   0.09844   0.00000  Uiso   1.00
H464   H     0.79561   0.36370   0.12832   0.00000  Uiso   1.00
C465   C     0.82221   0.40785   0.40976   0.00000  Uiso   1.00
O466   O     0.79951   0.40979   0.38282   0.00000  Uiso   1.00
O467   O     0.86096   0.37965   0.40114   0.00000  Uiso   1.00
H468   H     0.86668   0.36314   0.37160   0.00000  Uiso   1.00
C469   C     0.97302   0.37289   0.17711   0.00000  Uiso   1.00
O470   O     0.99072   0.40623   0.16108   0.00000  Uiso   1.00
O471   O     0.94276   0.35187   0.15744   0.00000  Uiso   1.00
H472   H     0.93875   0.36726   0.13019   0.00000  Uiso   1.00
C473   C     0.69610   0.62697   0.32124   0.00000  Uiso   1.00
O474   O     0.67751   0.59429   0.33861   0.00000  Uiso   1.00
O475   O     0.72943   0.64696   0.33806   0.00000  Uiso   1.00
H476   H     0.73560   0.63103   0.36399   0.00000  Uiso   1.00
H477   H     0.97208   0.62577   0.19522   0.00000  Uiso   1.00
H478   H     0.69506   0.37418   0.30448   0.00000  Uiso   1.00
H479   H     0.76981   0.45890   0.30708   0.00000  Uiso   1.00
H480   H     0.89688   0.54106   0.19292   0.00000  Uiso   1.00
C481   C     0.00051   0.75427   0.24862   0.00000  Uiso   1.00
C482   C     0.33286   0.91240   0.25134   0.00000  Uiso   1.00
C483   C     0.19044   0.76724   0.04815   0.00000  Uiso   1.00
C484   C     0.14292   0.76835   0.45184   0.00000  Uiso   1.00
C485   C     0.23821   0.78365   0.02739   0.00000  Uiso   1.00
C486   C     0.09816   0.78980   0.47072   0.00000  Uiso   1.00
C487   C     0.31855   0.68689   0.21586   0.00000  Uiso   1.00
C488   C     0.01557   0.97978   0.28356   0.00000  Uiso   1.00
C489   C     0.31682   0.97730   0.21951   0.00000  Uiso   1.00
C490   C     0.01689   0.68939   0.28020   0.00000  Uiso   1.00
C491   C     0.33229   0.95712   0.25239   0.00000  Uiso   1.00
C492   C     0.00126   0.70957   0.24742   0.00000  Uiso   1.00
C493   C     0.17983   0.81065   0.28163   0.00000  Uiso   1.00
C494   C     0.15353   0.85598   0.21835   0.00000  Uiso   1.00
C495   C     0.13057   0.81064   0.28161   0.00000  Uiso   1.00
C496   C     0.20277   0.85600   0.21838   0.00000  Uiso   1.00
C497   C     0.30417   0.83200   0.33678   0.00000  Uiso   1.00
C498   C     0.02917   0.83252   0.16318   0.00000  Uiso   1.00
C499   C     0.28454   0.82395   0.38726   0.00000  Uiso   1.00
C500   C     0.04905   0.82562   0.11249   0.00000  Uiso   1.00
C501   C     0.29137   0.82699   0.46354   0.00000  Uiso   1.00
C502   C     0.04517   0.83312   0.03543   0.00000  Uiso   1.00
C503   C     0.30753   0.83921   0.41699   0.00000  Uiso   1.00
C504   C     0.02703   0.84262   0.08278   0.00000  Uiso   1.00
C505   C     0.24168   0.80040   0.40596   0.00000  Uiso   1.00
C506   C     0.09181   0.80193   0.09360   0.00000  Uiso   1.00
C507   C     0.22426   0.78843   0.45327   0.00000  Uiso   1.00
C508   C     0.11001   0.79116   0.04600   0.00000  Uiso   1.00
C509   C     0.25232   0.79908   0.48132   0.00000  Uiso   1.00
C510   C     0.08381   0.80466   0.01718   0.00000  Uiso   1.00
C511   C     0.17634   0.77235   0.47544   0.00000  Uiso   1.00
C512   C     0.15722   0.77322   0.02442   0.00000  Uiso   1.00
Cu513  Cu    0.04689   0.83334   0.25000   0.00000  Uiso   1.00
Cu514  Cu    0.28645   0.83333   0.25000   0.00000  Uiso   1.00
H515   H     0.18883   0.79233   0.30708   0.00000  Uiso   1.00
H516   H     0.14457   0.87429   0.19284   0.00000  Uiso   1.00
N517   N     0.11736   0.83334   0.24999   0.00000  Uiso   1.00
N518   N     0.21597   0.83332   0.25001   0.00000  Uiso   1.00
O519   O     0.03958   0.77322   0.25000   0.00000  Uiso   1.00
O520   O     0.29375   0.89345   0.25000   0.00000  Uiso   1.00
O521   O     0.29372   0.77321   0.25001   0.00000  Uiso   1.00
O522   O     0.03961   0.89346   0.25000   0.00000  Uiso   1.00
O523   O     0.01852   0.83334   0.31492   0.00000  Uiso   1.00
O524   O     0.31481   0.83332   0.18509   0.00000  Uiso   1.00
O525   O     0.27267   0.83333   0.31492   0.00000  Uiso   1.00
O526   O     0.06067   0.83333   0.18508   0.00000  Uiso   1.00
C527   C     0.27295   0.78341   0.05291   0.00000  Uiso   1.00
O528   O     0.26511   0.80525   0.08726   0.00000  Uiso   1.00
O529   O     0.31266   0.75607   0.03947   0.00000  Uiso   1.00
H530   H     0.33114   0.75564   0.06214   0.00000  Uiso   1.00
C531   C     0.06939   0.79871   0.44067   0.00000  Uiso   1.00
O532   O     0.07602   0.83140   0.41962   0.00000  Uiso   1.00
O533   O     0.03807   0.76896   0.43285   0.00000  Uiso   1.00
H534   H     0.03695   0.74256   0.45095   0.00000  Uiso   1.00
H535   H     0.11066   0.79277   0.11674   0.00000  Uiso   1.00
H536   H     0.22183   0.79277   0.38313   0.00000  Uiso   1.00
H537   H     0.32952   0.86357   0.09606   0.00000  Uiso   1.00
H538   H     0.00439   0.86076   0.40415   0.00000  Uiso   1.00
H539   H     0.30821   0.84042   0.48608   0.00000  Uiso   1.00
H540   H     0.03001   0.84917   0.01304   0.00000  Uiso   1.00
C541   C     0.17580   0.74044   0.09044   0.00000  Uiso   1.00
O542   O     0.19742   0.74206   0.11829   0.00000  Uiso   1.00
O543   O     0.13614   0.71326   0.09844   0.00000  Uiso   1.00
H544   H     0.12894   0.69704   0.12832   0.00000  Uiso   1.00
C545   C     0.15554   0.74119   0.40976   0.00000  Uiso   1.00
O546   O     0.13284   0.74312   0.38282   0.00000  Uiso   1.00
O547   O     0.19429   0.71298   0.40114   0.00000  Uiso   1.00
H548   H     0.20002   0.69647   0.37160   0.00000  Uiso   1.00
C549   C     0.30635   0.70622   0.17711   0.00000  Uiso   1.00
O550   O     0.32405   0.73956   0.16108   0.00000  Uiso   1.00
O551   O     0.27610   0.68520   0.15744   0.00000  Uiso   1.00
H552   H     0.27209   0.70060   0.13019   0.00000  Uiso   1.00
C553   C     0.02944   0.96031   0.32124   0.00000  Uiso   1.00
O554   O     0.01084   0.92762   0.33861   0.00000  Uiso   1.00
O555   O     0.06276   0.98030   0.33806   0.00000  Uiso   1.00
H556   H     0.06893   0.96436   0.36399   0.00000  Uiso   1.00
H557   H     0.30542   0.95911   0.19522   0.00000  Uiso   1.00
H558   H     0.02839   0.70751   0.30448   0.00000  Uiso   1.00
H559   H     0.10314   0.79223   0.30708   0.00000  Uiso   1.00
H560   H     0.23021   0.87440   0.19292   0.00000  Uiso   1.00
C561   C     0.33384   0.75427   0.24862   0.00000  Uiso   1.00
C562   C     0.66619   0.91240   0.25134   0.00000  Uiso   1.00
C563   C     0.52377   0.76724   0.04815   0.00000  Uiso   1.00
C564   C     0.47625   0.76835   0.45184   0.00000  Uiso   1.00
C565   C     0.57155   0.78365   0.02739   0.00000  Uiso   1.00
C566   C     0.43150   0.78980   0.47072   0.00000  Uiso   1.00
C567   C     0.65188   0.68689   0.21586   0.00000  Uiso   1.00
C568   C     0.34890   0.97978   0.28356   0.00000  Uiso   1.00
C569   C     0.65015   0.97730   0.21951   0.00000  Uiso   1.00
C570   C     0.35022   0.68939   0.28020   0.00000  Uiso   1.00
C571   C     0.66562   0.95712   0.25239   0.00000  Uiso   1.00
C572   C     0.33459   0.70957   0.24742   0.00000  Uiso   1.00
C573   C     0.51316   0.81065   0.28163   0.00000  Uiso   1.00
C574   C     0.48686   0.85598   0.21835   0.00000  Uiso   1.00
C575   C     0.46390   0.81064   0.28161   0.00000  Uiso   1.00
C576   C     0.53611   0.85600   0.21838   0.00000  Uiso   1.00
C577   C     0.63750   0.83200   0.33678   0.00000  Uiso   1.00
C578   C     0.36251   0.83252   0.16318   0.00000  Uiso   1.00
C579   C     0.61787   0.82395   0.38726   0.00000  Uiso   1.00
C580   C     0.38238   0.82562   0.11249   0.00000  Uiso   1.00
C581   C     0.62470   0.82699   0.46354   0.00000  Uiso   1.00
C582   C     0.37851   0.83312   0.03543   0.00000  Uiso   1.00
C583   C     0.64087   0.83921   0.41699   0.00000  Uiso   1.00
C584   C     0.36036   0.84262   0.08278   0.00000  Uiso   1.00
C585   C     0.57501   0.80040   0.40596   0.00000  Uiso   1.00
C586   C     0.42514   0.80193   0.09360   0.00000  Uiso   1.00
C587   C     0.55759   0.78843   0.45327   0.00000  Uiso   1.00
C588   C     0.44334   0.79116   0.04600   0.00000  Uiso   1.00
C589   C     0.58566   0.79908   0.48132   0.00000  Uiso   1.00
C590   C     0.41714   0.80466   0.01718   0.00000  Uiso   1.00
C591   C     0.50967   0.77235   0.47544   0.00000  Uiso   1.00
C592   C     0.49055   0.77322   0.02442   0.00000  Uiso   1.00
Cu593  Cu    0.38022   0.83334   0.25000   0.00000  Uiso   1.00
Cu594  Cu    0.61978   0.83333   0.25000   0.00000  Uiso   1.00
H595   H     0.52217   0.79233   0.30708   0.00000  Uiso   1.00
H596   H     0.47790   0.87429   0.19284   0.00000  Uiso   1.00
N597   N     0.45069   0.83334   0.24999   0.00000  Uiso   1.00
N598   N     0.54931   0.83332   0.25001   0.00000  Uiso   1.00
O599   O     0.37291   0.77322   0.25000   0.00000  Uiso   1.00
O600   O     0.62709   0.89345   0.25000   0.00000  Uiso   1.00
O601   O     0.62706   0.77321   0.25001   0.00000  Uiso   1.00
O602   O     0.37294   0.89346   0.25000   0.00000  Uiso   1.00
O603   O     0.35186   0.83334   0.31492   0.00000  Uiso   1.00
O604   O     0.64814   0.83332   0.18509   0.00000  Uiso   1.00
O605   O     0.60600   0.83333   0.31492   0.00000  Uiso   1.00
O606   O     0.39400   0.83333   0.18508   0.00000  Uiso   1.00
C607   C     0.60629   0.78341   0.05291   0.00000  Uiso   1.00
O608   O     0.59844   0.80525   0.08726   0.00000  Uiso   1.00
O609   O     0.64599   0.75607   0.03947   0.00000  Uiso   1.00
H610   H     0.66448   0.75564   0.06214   0.00000  Uiso   1.00
C611   C     0.40273   0.79871   0.44067   0.00000  Uiso   1.00
O612   O     0.40935   0.83140   0.41962   0.00000  Uiso   1.00
O613   O     0.37140   0.76896   0.43285   0.00000  Uiso   1.00
H614   H     0.37028   0.74256   0.45095   0.00000  Uiso   1.00
H615   H     0.44400   0.79277   0.11674   0.00000  Uiso   1.00
H616   H     0.55517   0.79277   0.38313   0.00000  Uiso   1.00
H617   H     0.66286   0.86357   0.09606   0.00000  Uiso   1.00
H618   H     0.33773   0.86076   0.40415   0.00000  Uiso   1.00
H619   H     0.64155   0.84042   0.48608   0.00000  Uiso   1.00
H620   H     0.36334   0.84917   0.01304   0.00000  Uiso   1.00
C621   C     0.50913   0.74044   0.09044   0.00000  Uiso   1.00
O622   O     0.53075   0.74206   0.11829   0.00000  Uiso   1.00
O623   O     0.46947   0.71326   0.09844   0.00000  Uiso   1.00
H624   H     0.46227   0.69704   0.12832   0.00000  Uiso   1.00
C625   C     0.48888   0.74119   0.40976   0.00000  Uiso   1.00
O626   O     0.46617   0.74312   0.38282   0.00000  Uiso   1.00
O627   O     0.52762   0.71298   0.40114   0.00000  Uiso   1.00
H628   H     0.53335   0.69647   0.37160   0.00000  Uiso   1.00
C629   C     0.63968   0.70622   0.17711   0.00000  Uiso   1.00
O630   O     0.65738   0.73956   0.16108   0.00000  Uiso   1.00
O631   O     0.60943   0.68520   0.15744   0.00000  Uiso   1.00
H632   H     0.60542   0.70060   0.13019   0.00000  Uiso   1.00
C633   C     0.36277   0.96031   0.32124   0.00000  Uiso   1.00
O634   O     0.34417   0.92762   0.33861   0.00000  Uiso   1.00
O635   O     0.39609   0.98030   0.33806   0.00000  Uiso   1.00
H636   H     0.40227   0.96436   0.36399   0.00000  Uiso   1.00
H637   H     0.63875   0.95911   0.19522   0.00000  Uiso   1.00
H638   H     0.36173   0.70751   0.30448   0.00000  Uiso   1.00
H639   H     0.43647   0.79223   0.30708   0.00000  Uiso   1.00
H640   H     0.56354   0.87440   0.19292   0.00000  Uiso   1.00
C641   C     0.66718   0.75427   0.24862   0.00000  Uiso   1.00
C642   C     0.99953   0.91240   0.25134   0.00000  Uiso   1.00
C643   C     0.85710   0.76724   0.04815   0.00000  Uiso   1.00
C644   C     0.80959   0.76835   0.45184   0.00000  Uiso   1.00
C645   C     0.90488   0.78365   0.02739   0.00000  Uiso   1.00
C646   C     0.76483   0.78980   0.47072   0.00000  Uiso   1.00
C647   C     0.98522   0.68689   0.21586   0.00000  Uiso   1.00
C648   C     0.68223   0.97978   0.28356   0.00000  Uiso   1.00
C649   C     0.98348   0.97730   0.21951   0.00000  Uiso   1.00
C650   C     0.68356   0.68939   0.28020   0.00000  Uiso   1.00
C651   C     0.99895   0.95712   0.25239   0.00000  Uiso   1.00
C652   C     0.66792   0.70957   0.24742   0.00000  Uiso   1.00
C653   C     0.84649   0.81065   0.28163   0.00000  Uiso   1.00
C654   C     0.82019   0.85598   0.21835   0.00000  Uiso   1.00
C655   C     0.79724   0.81064   0.28161   0.00000  Uiso   1.00
C656   C     0.86944   0.85600   0.21838   0.00000  Uiso   1.00
C657   C     0.97084   0.83200   0.33678   0.00000  Uiso   1.00
C658   C     0.69584   0.83252   0.16318   0.00000  Uiso   1.00
C659   C     0.95121   0.82395   0.38726   0.00000  Uiso   1.00
C660   C     0.71572   0.82562   0.11249   0.00000  Uiso   1.00
C661   C     0.95803   0.82699   0.46354   0.00000  Uiso   1.00
C662   C     0.71184   0.83312   0.03543   0.00000  Uiso   1.00
C663   C     0.97420   0.83921   0.41699   0.00000  Uiso   1.00
C664   C     0.69369   0.84262   0.08278   0.00000  Uiso   1.00
C665   C     0.90834   0.80040   0.40596   0.00000  Uiso   1.00
C666   C     0.75847   0.80193   0.09360   0.00000  Uiso   1.00
C667   C     0.89093   0.78843   0.45327   0.00000  Uiso   1.00
C668   C     0.77668   0.79116   0.04600   0.00000  Uiso   1.00
C669   C     0.91899   0.79908   0.48132   0.00000  Uiso   1.00
C670   C     0.75047   0.80466   0.01718   0.00000  Uiso   1.00
C671   C     0.84300   0.77235   0.47544   0.00000  Uiso   1.00
C672   C     0.82388   0.77322   0.02442   0.00000  Uiso   1.00
Cu673  Cu    0.71355   0.83334   0.25000   0.00000  Uiso   1.00
Cu674  Cu    0.95311   0.83333   0.25000   0.00000  Uiso   1.00
H675   H     0.85550   0.79233   0.30708   0.00000  Uiso   1.00
H676   H     0.81123   0.87429   0.19284   0.00000  Uiso   1.00
N677   N     0.78403   0.83334   0.24999   0.00000  Uiso   1.00
N678   N     0.88264   0.83332   0.25001   0.00000  Uiso   1.00
O679   O     0.70625   0.77322   0.25000   0.00000  Uiso   1.00
O680   O     0.96042   0.89345   0.25000   0.00000  Uiso   1.00
O681   O     0.96039   0.77321   0.25001   0.00000  Uiso   1.00
O682   O     0.70628   0.89346   0.25000   0.00000  Uiso   1.00
O683   O     0.68519   0.83334   0.31492   0.00000  Uiso   1.00
O684   O     0.98148   0.83332   0.18509   0.00000  Uiso   1.00
O685   O     0.93933   0.83333   0.31492   0.00000  Uiso   1.00
O686   O     0.72733   0.83333   0.18508   0.00000  Uiso   1.00
C687   C     0.93962   0.78341   0.05291   0.00000  Uiso   1.00
O688   O     0.93178   0.80525   0.08726   0.00000  Uiso   1.00
O689   O     0.97932   0.75607   0.03947   0.00000  Uiso   1.00
H690   H     0.99781   0.75564   0.06214   0.00000  Uiso   1.00
C691   C     0.73606   0.79871   0.44067   0.00000  Uiso   1.00
O692   O     0.74268   0.83140   0.41962   0.00000  Uiso   1.00
O693   O     0.70474   0.76896   0.43285   0.00000  Uiso   1.00
H694   H     0.70361   0.74256   0.45095   0.00000  Uiso   1.00
H695   H     0.77733   0.79277   0.11674   0.00000  Uiso   1.00
H696   H     0.88850   0.79277   0.38313   0.00000  Uiso   1.00
H697   H     0.99619   0.86357   0.09606   0.00000  Uiso   1.00
H698   H     0.67106   0.86076   0.40415   0.00000  Uiso   1.00
H699   H     0.97488   0.84042   0.48608   0.00000  Uiso   1.00
H700   H     0.69667   0.84917   0.01304   0.00000  Uiso   1.00
C701   C     0.84246   0.74044   0.09044   0.00000  Uiso   1.00
O702   O     0.86409   0.74206   0.11829   0.00000  Uiso   1.00
O703   O     0.80281   0.71326   0.09844   0.00000  Uiso   1.00
H704   H     0.79561   0.69704   0.12832   0.00000  Uiso   1.00
C705   C     0.82221   0.74119   0.40976   0.00000  Uiso   1.00
O706   O     0.79951   0.74312   0.38282   0.00000  Uiso   1.00
O707   O     0.86096   0.71298   0.40114   0.00000  Uiso   1.00
H708   H     0.86668   0.69647   0.37160   0.00000  Uiso   1.00
C709   C     0.97302   0.70622   0.17711   0.00000  Uiso   1.00
O710   O     0.99072   0.73956   0.16108   0.00000  Uiso   1.00
O711   O     0.94276   0.68520   0.15744   0.00000  Uiso   1.00
H712   H     0.93875   0.70060   0.13019   0.00000  Uiso   1.00
C713   C     0.69610   0.96031   0.32124   0.00000  Uiso   1.00
O714   O     0.67751   0.92762   0.33861   0.00000  Uiso   1.00
O715   O     0.72943   0.98030   0.33806   0.00000  Uiso   1.00
H716   H     0.73560   0.96436   0.36399   0.00000  Uiso   1.00
H717   H     0.97208   0.95911   0.19522   0.00000  Uiso   1.00
H718   H     0.69506   0.70751   0.30448   0.00000  Uiso   1.00
H719   H     0.76981   0.79223   0.30708   0.00000  Uiso   1.00
H720   H     0.89688   0.87440   0.19292   0.00000  Uiso   1.00
C721   C     0.00051   0.08761   0.74862   0.00000  Uiso   1.00
C722   C     0.33286   0.24573   0.75134   0.00000  Uiso   1.00
C723   C     0.19044   0.10057   0.54815   0.00000  Uiso   1.00
C724   C     0.14292   0.10168   0.95184   0.00000  Uiso   1.00
C725   C     0.23821   0.11699   0.52739   0.00000  Uiso   1.00
C726   C     0.09816   0.12313   0.97072   0.00000  Uiso   1.00
C727   C     0.31855   0.02023   0.71586   0.00000  Uiso   1.00
C728   C     0.01557   0.31312   0.78356   0.00000  Uiso   1.00
C729   C     0.31682   0.31063   0.71951   0.00000  Uiso   1.00
C730   C     0.01689   0.02272   0.78020   0.00000  Uiso   1.00
C731   C     0.33229   0.29045   0.75239   0.00000  Uiso   1.00
C732   C     0.00126   0.04290   0.74742   0.00000  Uiso   1.00
C733   C     0.17983   0.14399   0.78163   0.00000  Uiso   1.00
C734   C     0.15353   0.18931   0.71835   0.00000  Uiso   1.00
C735   C     0.13057   0.14397   0.78161   0.00000  Uiso   1.00
C736   C     0.20277   0.18933   0.71838   0.00000  Uiso   1.00
C737   C     0.30417   0.16533   0.83678   0.00000  Uiso   1.00
C738   C     0.02917   0.16585   0.66318   0.00000  Uiso   1.00
C739   C     0.28454   0.15728   0.88726   0.00000  Uiso   1.00
C740   C     0.04905   0.15895   0.61249   0.00000  Uiso   1.00
C741   C     0.29137   0.16032   0.96354   0.00000  Uiso   1.00
C742   C     0.04517   0.16646   0.53543   0.00000  Uiso   1.00
C743   C     0.30753   0.17255   0.91699   0.00000  Uiso   1.00
C744   C     0.02703   0.17595   0.58278   0.00000  Uiso   1.00
C745   C     0.24168   0.13373   0.90596   0.00000  Uiso   1.00
C746   C     0.09181   0.13526   0.59360   0.00000  Uiso   1.00
C747   C     0.22426   0.12177   0.95327   0.00000  Uiso   1.00
C748   C     0.11001   0.12450   0.54600   0.00000  Uiso   1.00
C749   C     0.25232   0.13242   0.98132   0.00000  Uiso   1.00
C750   C     0.08381   0.13800   0.51718   0.00000  Uiso   1.00
C751   C     0.17634   0.10568   0.97544   0.00000  Uiso   1.00
C752   C     0.15722   0.10656   0.52442   0.00000  Uiso   1.00
Cu753  Cu    0.04689   0.16667   0.75000   0.00000  Uiso   1.00
Cu754  Cu    0.28645   0.16666   0.75000   0.00000  Uiso   1.00
H755   H     0.18883   0.12566   0.80708   0.00000  Uiso   1.00
H756   H     0.14457   0.20762   0.69284   0.00000  Uiso   1.00
N757   N     0.11736   0.16668   0.74999   0.00000  Uiso   1.00
N758   N     0.21597   0.16666   0.75001   0.00000  Uiso   1.00
O759   O     0.03958   0.10655   0.75000   0.00000  Uiso   1.00
O760   O     0.29375   0.22678   0.75000   0.00000  Uiso   1.00
O761   O     0.29372   0.10654   0.75001   0.00000  Uiso   1.00
O762   O     0.03961   0.22679   0.75000   0.00000  Uiso   1.00
O763   O     0.01852   0.16668   0.81492   0.00000  Uiso   1.00
O764   O     0.31481   0.16666   0.68509   0.00000  Uiso   1.00
O765   O     0.27267   0.16667   0.81492   0.00000  Uiso   1.00
O766   O     0.06067   0.16667   0.68508   0.00000  Uiso   1.00
C767   C     0.27295   0.11674   0.55291   0.00000  Uiso   1.00
O768   O     0.26511   0.13859   0.58726   0.00000  Uiso   1.00
O769   O     0.31266   0.08941   0.53947   0.00000  Uiso   1.00
H770   H     0.33114   0.08898   0.56214   0.00000  Uiso   1.00
C771   C     0.06939   0.13204   0.94067   0.00000  Uiso   1.00
O772   O     0.07602   0.16473   0.91962   0.00000  Uiso   1.00
O773   O     0.03807   0.10230   0.93285   0.00000  Uiso   1.00
H774   H     0.03695   0.07589   0.95095   0.00000  Uiso   1.00
H775   H     0.11066   0.12611   0.61674   0.00000  Uiso   1.00
H776   H     0.22183   0.12610   0.88313   0.00000  Uiso   1.00
H777   H     0.32952   0.19690   0.59606   0.00000  Uiso   1.00
H778   H     0.00439   0.19409   0.90415   0.00000  Uiso   1.00
H779   H     0.30821   0.17376   0.98608   0.00000  Uiso   1.00
H780   H     0.03001   0.18251   0.51304   0.00000  Uiso   1.00
C781   C     0.17580   0.07377   0.59044   0.00000  Uiso   1.00
O782   O     0.19742   0.07539   0.61829   0.00000  Uiso   1.00
O783   O     0.13614   0.04659   0.59844   0.00000  Uiso   1.00
H784   H     0.12894   0.03037   0.62832   0.00000  Uiso   1.00
C785   C     0.15554   0.07452   0.90976   0.00000  Uiso   1.00
O786   O     0.13284   0.07646   0.88282   0.00000  Uiso   1.00
O787   O     0.19429   0.04631   0.90114   0.00000  Uiso   1.00
H788   H     0.20002   0.02981   0.87160   0.00000  Uiso   1.00
C789   C     0.30635   0.03956   0.67711   0.00000  Uiso   1.00
O790   O     0.32405   0.07289   0.66108   0.00000  Uiso   1.00
O791   O     0.27610   0.01854   0.65744   0.00000  Uiso   1.00
H792   H     0.27209   0.03393   0.63019   0.00000  Uiso   1.00
C793   C     0.02944   0.29364   0.82124   0.00000  Uiso   1.00
O794   O     0.01084   0.26096   0.83861   0.00000  Uiso   1.00
O795   O     0.06276   0.31363   0.83806   0.00000  Uiso   1.00
H796   H     0.06893   0.29769   0.86399   0.00000  Uiso   1.00
H797   H     0.30542   0.29244   0.69522   0.00000  Uiso   1.00
H798   H     0.02839   0.04084   0.80448   0.00000  Uiso   1.00
H799   H     0.10314   0.12557   0.80708   0.00000  Uiso   1.00
H800   H     0.23021   0.20773   0.69292   0.00000  Uiso   1.00
C801   C     0.33384   0.08761   0.74862   0.00000  Uiso   1.00
C802   C     0.66619   0.24573   0.75134   0.00000  Uiso   1.00
C803   C     0.52377   0.10057   0.54815   0.00000  Uiso   1.00
C804   C     0.47625   0.10168   0.95184   0.00000  Uiso   1.00
C805   C     0.57155   0.11699   0.52739   0.00000  Uiso   1.00
C806   C     0.43150   0.12313   0.97072   0.00000  Uiso   1.00
C807   C     0.65188   0.02023   0.71586   0.00000  Uiso   1.00
C808   C     0.34890   0.31312   0.78356   0.00000  Uiso   1.00
C809   C     0.65015   0.31063   0.71951   0.00000  Uiso   1.00
C810   C     0.35022   0.02272   0.78020   0.00000  Uiso   1.00
C811   C     0.66562   0.29045   0.75239   0.00000  Uiso   1.00
C812   C     0.33459   0.04290   0.74742   0.00000  Uiso   1.00
C813   C     0.51316   0.14399   0.78163   0.00000  Uiso   1.00
C814   C     0.48686   0.18931   0.71835   0.00000  Uiso   1.00
C815   C     0.46390   0.14397   0.78161   0.00000  Uiso   1.00
C816   C     0.53611   0.18933   0.71838   0.00000  Uiso   1.00
C817   C     0.63750   0.16533   0.83678   0.00000  Uiso   1.00
C818   C     0.36251   0.16585   0.66318   0.00000  Uiso   1.00
C819   C     0.61787   0.15728   0.88726   0.00000  Uiso   1.00
C820   C     0.38238   0.15895   0.61249   0.00000  Uiso   1.00
C821   C     0.62470   0.16032   0.96354   0.00000  Uiso   1.00
C822   C     0.37851   0.16646   0.53543   0.00000  Uiso   1.00
C823   C     0.64087   0.17255   0.91699   0.00000  Uiso   1.00
C824   C     0.36036   0.17595   0.58278   0.00000  Uiso   1.00
C825   C     0.57501   0.13373   0.90596   0.00000  Uiso   1.00
C826   C     0.42514   0.13526   0.59360   0.00000  Uiso   1.00
C827   C     0.55759   0.12177   0.95327   0.00000  Uiso   1.00
C828   C     0.44334   0.12450   0.54600   0.00000  Uiso   1.00
C829   C     0.58566   0.13242   0.98132   0.00000  Uiso   1.00
C830   C     0.41714   0.13800   0.51718   0.00000  Uiso   1.00
C831   C     0.50967   0.10568   0.97544   0.00000  Uiso   1.00
C832   C     0.49055   0.10656   0.52442   0.00000  Uiso   1.00
Cu833  Cu    0.38022   0.16667   0.75000   0.00000  Uiso   1.00
Cu834  Cu    0.61978   0.16666   0.75000   0.00000  Uiso   1.00
H835   H     0.52217   0.12566   0.80708   0.00000  Uiso   1.00
H836   H     0.47790   0.20762   0.69284   0.00000  Uiso   1.00
N837   N     0.45069   0.16668   0.74999   0.00000  Uiso   1.00
N838   N     0.54931   0.16666   0.75001   0.00000  Uiso   1.00
O839   O     0.37291   0.10655   0.75000   0.00000  Uiso   1.00
O840   O     0.62709   0.22678   0.75000   0.00000  Uiso   1.00
O841   O     0.62706   0.10654   0.75001   0.00000  Uiso   1.00
O842   O     0.37294   0.22679   0.75000   0.00000  Uiso   1.00
O843   O     0.35186   0.16668   0.81492   0.00000  Uiso   1.00
O844   O     0.64814   0.16666   0.68509   0.00000  Uiso   1.00
O845   O     0.60600   0.16667   0.81492   0.00000  Uiso   1.00
O846   O     0.39400   0.16667   0.68508   0.00000  Uiso   1.00
C847   C     0.60629   0.11674   0.55291   0.00000  Uiso   1.00
O848   O     0.59844   0.13859   0.58726   0.00000  Uiso   1.00
O849   O     0.64599   0.08941   0.53947   0.00000  Uiso   1.00
H850   H     0.66448   0.08898   0.56214   0.00000  Uiso   1.00
C851   C     0.40273   0.13204   0.94067   0.00000  Uiso   1.00
O852   O     0.40935   0.16473   0.91962   0.00000  Uiso   1.00
O853   O     0.37140   0.10230   0.93285   0.00000  Uiso   1.00
H854   H     0.37028   0.07589   0.95095   0.00000  Uiso   1.00
H855   H     0.44400   0.12611   0.61674   0.00000  Uiso   1.00
H856   H     0.55517   0.12610   0.88313   0.00000  Uiso   1.00
H857   H     0.66286   0.19690   0.59606   0.00000  Uiso   1.00
H858   H     0.33773   0.19409   0.90415   0.00000  Uiso   1.00
H859   H     0.64155   0.17376   0.98608   0.00000  Uiso   1.00
H860   H     0.36334   0.18251   0.51304   0.00000  Uiso   1.00
C861   C     0.50913   0.07377   0.59044   0.00000  Uiso   1.00
O862   O     0.53075   0.07539   0.61829   0.00000  Uiso   1.00
O863   O     0.46947   0.04659   0.59844   0.00000  Uiso   1.00
H864   H     0.46227   0.03037   0.62832   0.00000  Uiso   1.00
C865   C     0.48888   0.07452   0.90976   0.00000  Uiso   1.00
O866   O     0.46617   0.07646   0.88282   0.00000  Uiso   1.00
O867   O     0.52762   0.04631   0.90114   0.00000  Uiso   1.00
H868   H     0.53335   0.02981   0.87160   0.00000  Uiso   1.00
C869   C     0.63968   0.03956   0.67711   0.00000  Uiso   1.00
O870   O     0.65738   0.07289   0.66108   0.00000  Uiso   1.00
O871   O     0.60943   0.01854   0.65744   0.00000  Uiso   1.00
H872   H     0.60542   0.03393   0.63019   0.00000  Uiso   1.00
C873   C     0.36277   0.29364   0.82124   0.00000  Uiso   1.00
O874   O     0.34417   0.26096   0.83861   0.00000  Uiso   1.00
O875   O     0.39609   0.31363   0.83806   0.00000  Uiso   1.00
H876   H     0.40227   0.29769   0.86399   0.00000  Uiso   1.00
H877   H     0.63875   0.29244   0.69522   0.00000  Uiso   1.00
H878   H     0.36173   0.04084   0.80448   0.00000  Uiso   1.00
H879   H     0.43647   0.12557   0.80708   0.00000  Uiso   1.00
H880   H     0.56354   0.20773   0.69292   0.00000  Uiso   1.00
C881   C     0.66718   0.08761   0.74862   0.00000  Uiso   1.00
C882   C     0.99953   0.24573   0.75134   0.00000  Uiso   1.00
C883   C     0.85710   0.10057   0.54815   0.00000  Uiso   1.00
C884   C     0.80959   0.10168   0.95184   0.00000  Uiso   1.00
C885   C     0.90488   0.11699   0.52739   0.00000  Uiso   1.00
C886   C     0.76483   0.12313   0.97072   0.00000  Uiso   1.00
C887   C     0.98522   0.02023   0.71586   0.00000  Uiso   1.00
C888   C     0.68223   0.31312   0.78356   0.00000  Uiso   1.00
C889   C     0.98348   0.31063   0.71951   0.00000  Uiso   1.00
C890   C     0.68356   0.02272   0.78020   0.00000  Uiso   1.00
C891   C     0.99895   0.29045   0.75239   0.00000  Uiso   1.00
C892   C     0.66792   0.04290   0.74742   0.00000  Uiso   1.00
C893   C     0.84649   0.14399   0.78163   0.00000  Uiso   1.00
C894   C     0.82019   0.18931   0.71835   0.00000  Uiso   1.00
C895   C     0.79724   0.14397   0.78161   0.00000  Uiso   1.00
C896   C     0.86944   0.18933   0.71838   0.00000  Uiso   1.00
C897   C     0.97084   0.16533   0.83678   0.00000  Uiso   1.00
C898   C     0.69584   0.16585   0.66318   0.00000  Uiso   1.00
C899   C     0.95121   0.15728   0.88726   0.00000  Uiso   1.00
C900   C     0.71572   0.15895   0.61249   0.00000  Uiso   1.00
C901   C     0.95803   0.16032   0.96354   0.00000  Uiso   1.00
C902   C     0.71184   0.16646   0.53543   0.00000  Uiso   1.00
C903   C     0.97420   0.17255   0.91699   0.00000  Uiso   1.00
C904   C     0.69369   0.17595   0.58278   0.00000  Uiso   1.00
C905   C     0.90834   0.13373   0.90596   0.00000  Uiso   1.00
C906   C     0.75847   0.13526   0.59360   0.00000  Uiso   1.00
C907   C     0.89093   0.12177   0.95327   0.00000  Uiso   1.00
C908   C     0.77668   0.12450   0.54600   0.00000  Uiso   1.00
C909   C     0.91899   0.13242   0.98132   0.00000  Uiso   1.00
C910   C     0.75047   0.13800   0.51718   0.00000  Uiso   1.00
C911   C     0.84300   0.10568   0.97544   0.00000  Uiso   1.00
C912   C     0.82388   0.10656   0.52442   0.00000  Uiso   1.00
Cu913  Cu    0.71355   0.16667   0.75000   0.00000  Uiso   1.00
Cu914  Cu    0.95311   0.16666   0.75000   0.00000  Uiso   1.00
H915   H     0.85550   0.12566   0.80708   0.00000  Uiso   1.00
H916   H     0.81123   0.20762   0.69284   0.00000  Uiso   1.00
N917   N     0.78403   0.16668   0.74999   0.00000  Uiso   1.00
N918   N     0.88264   0.16666   0.75001   0.00000  Uiso   1.00
O919   O     0.70625   0.10655   0.75000   0.00000  Uiso   1.00
O920   O     0.96042   0.22678   0.75000   0.00000  Uiso   1.00
O921   O     0.96039   0.10654   0.75001   0.00000  Uiso   1.00
O922   O     0.70628   0.22679   0.75000   0.00000  Uiso   1.00
O923   O     0.68519   0.16668   0.81492   0.00000  Uiso   1.00
O924   O     0.98148   0.16666   0.68509   0.00000  Uiso   1.00
O925   O     0.93933   0.16667   0.81492   0.00000  Uiso   1.00
O926   O     0.72733   0.16667   0.68508   0.00000  Uiso   1.00
C927   C     0.93962   0.11674   0.55291   0.00000  Uiso   1.00
O928   O     0.93178   0.13859   0.58726   0.00000  Uiso   1.00
O929   O     0.97932   0.08941   0.53947   0.00000  Uiso   1.00
H930   H     0.99781   0.08898   0.56214   0.00000  Uiso   1.00
C931   C     0.73606   0.13204   0.94067   0.00000  Uiso   1.00
O932   O     0.74268   0.16473   0.91962   0.00000  Uiso   1.00
O933   O     0.70474   0.10230   0.93285   0.00000  Uiso   1.00
H934   H     0.70361   0.07589   0.95095   0.00000  Uiso   1.00
H935   H     0.77733   0.12611   0.61674   0.00000  Uiso   1.00
H936   H     0.88850   0.12610   0.88313   0.00000  Uiso   1.00
H937   H     0.99619   0.19690   0.59606   0.00000  Uiso   1.00
H938   H     0.67106   0.19409   0.90415   0.00000  Uiso   1.00
H939   H     0.97488   0.17376   0.98608   0.00000  Uiso   1.00
H940   H     0.69667   0.18251   0.51304   0.00000  Uiso   1.00
C941   C     0.84246   0.07377   0.59044   0.00000  Uiso   1.00
O942   O     0.86409   0.07539   0.61829   0.00000  Uiso   1.00
O943   O     0.80281   0.04659   0.59844   0.00000  Uiso   1.00
H944   H     0.79561   0.03037   0.62832   0.00000  Uiso   1.00
C945   C     0.82221   0.07452   0.90976   0.00000  Uiso   1.00
O946   O     0.79951   0.07646   0.88282   0.00000  Uiso   1.00
O947   O     0.86096   0.04631   0.90114   0.00000  Uiso   1.00
H948   H     0.86668   0.02981   0.87160   0.00000  Uiso   1.00
C949   C     0.97302   0.03956   0.67711   0.00000  Uiso   1.00
O950   O     0.99072   0.07289   0.66108   0.00000  Uiso   1.00
O951   O     0.94276   0.01854   0.65744   0.00000  Uiso   1.00
H952   H     0.93875   0.03393   0.63019   0.00000  Uiso   1.00
C953   C     0.69610   0.29364   0.82124   0.00000  Uiso   1.00
O954   O     0.67751   0.26096   0.83861   0.00000  Uiso   1.00
O955   O     0.72943   0.31363   0.83806   0.00000  Uiso   1.00
H956   H     0.73560   0.29769   0.86399   0.00000  Uiso   1.00
H957   H     0.97208   0.29244   0.69522   0.00000  Uiso   1.00
H958   H     0.69506   0.04084   0.80448   0.00000  Uiso   1.00
H959   H     0.76981   0.12557   0.80708   0.00000  Uiso   1.00
H960   H     0.89688   0.20773   0.69292   0.00000  Uiso   1.00
C961   C     0.00051   0.42094   0.74862   0.00000  Uiso   1.00
C962   C     0.33286   0.57907   0.75134   0.00000  Uiso   1.00
C963   C     0.19044   0.43391   0.54815   0.00000  Uiso   1.00
C964   C     0.14292   0.43501   0.95184   0.00000  Uiso   1.00
C965   C     0.23821   0.45032   0.52739   0.00000  Uiso   1.00
C966   C     0.09816   0.45647   0.97072   0.00000  Uiso   1.00
C967   C     0.31855   0.35356   0.71586   0.00000  Uiso   1.00
C968   C     0.01557   0.64645   0.78356   0.00000  Uiso   1.00
C969   C     0.31682   0.64396   0.71951   0.00000  Uiso   1.00
C970   C     0.01689   0.35605   0.78020   0.00000  Uiso   1.00
C971   C     0.33229   0.62379   0.75239   0.00000  Uiso   1.00
C972   C     0.00126   0.37623   0.74742   0.00000  Uiso   1.00
C973   C     0.17983   0.47732   0.78163   0.00000  Uiso   1.00
C974   C     0.15353   0.52264   0.71835   0.00000  Uiso   1.00
C975   C     0.13057   0.47730   0.78161   0.00000  Uiso   1.00
C976   C     0.20277   0.52267   0.71838   0.00000  Uiso   1.00
C977   C     0.30417   0.49866   0.83678   0.00000  Uiso   1.00
C978   C     0.02917   0.49919   0.66318   0.00000  Uiso   1.00
C979   C     0.28454   0.49061   0.88726   0.00000  Uiso   1.00
C980   C     0.04905   0.49228   0.61249   0.00000  Uiso   1.00
C981   C     0.29137   0.49365   0.96354   0.00000  Uiso   1.00
C982   C     0.04517   0.49979   0.53543   0.00000  Uiso   1.00
C983   C     0.30753   0.50588   0.91699   0.00000  Uiso   1.00
C984   C     0.02703   0.50929   0.58278   0.00000  Uiso   1.00
C985   C     0.24168   0.46706   0.90596   0.00000  Uiso   1.00
C986   C     0.09181   0.46859   0.59360   0.00000  Uiso   1.00
C987   C     0.22426   0.45510   0.95327   0.00000  Uiso   1.00
C988   C     0.11001   0.45783   0.54600   0.00000  Uiso   1.00
C989   C     0.25232   0.46575   0.98132   0.00000  Uiso   1.00
C990   C     0.08381   0.47133   0.51718   0.00000  Uiso   1.00
C991   C     0.17634   0.43902   0.97544   0.00000  Uiso   1.00
C992   C     0.15722   0.43989   0.52442   0.00000  Uiso   1.00
Cu993  Cu    0.04689   0.50001   0.75000   0.00000  Uiso   1.00
Cu994  Cu    0.28645   0.49999   0.75000   0.00000  Uiso   1.00
H995   H     0.18883   0.45900   0.80708   0.00000  Uiso   1.00
H996   H     0.14457   0.54096   0.69284   0.00000  Uiso   1.00
N997   N     0.11736   0.50001   0.74999   0.00000  Uiso   1.00
N998   N     0.21597   0.49999   0.75001   0.00000  Uiso   1.00
O999   O     0.03958   0.43989   0.75000   0.00000  Uiso   1.00
O1000  O     0.29375   0.56011   0.75000   0.00000  Uiso   1.00
O1001  O     0.29372   0.43988   0.75001   0.00000  Uiso   1.00
O1002  O     0.03961   0.56012   0.75000   0.00000  Uiso   1.00
O1003  O     0.01852   0.50001   0.81492   0.00000  Uiso   1.00
O1004  O     0.31481   0.49999   0.68509   0.00000  Uiso   1.00
O1005  O     0.27267   0.50000   0.81492   0.00000  Uiso   1.00
O1006  O     0.06067   0.50000   0.68508   0.00000  Uiso   1.00
C1007  C     0.27295   0.45007   0.55291   0.00000  Uiso   1.00
O1008  O     0.26511   0.47192   0.58726   0.00000  Uiso   1.00
O1009  O     0.31266   0.42274   0.53947   0.00000  Uiso   1.00
H1010  H     0.33114   0.42231   0.56214   0.00000  Uiso   1.00
C1011  C     0.06939   0.46537   0.94067   0.00000  Uiso   1.00
O1012  O     0.07602   0.49807   0.91962   0.00000  Uiso   1.00
O1013  O     0.03807   0.43563   0.93285   0.00000  Uiso   1.00
H1014  H     0.03695   0.40922   0.95095   0.00000  Uiso   1.00
H1015  H     0.11066   0.45944   0.61674   0.00000  Uiso   1.00
H1016  H     0.22183   0.45944   0.88313   0.00000  Uiso   1.00
H1017  H     0.32952   0.53023   0.59606   0.00000  Uiso   1.00
H1018  H     0.00439   0.52742   0.90415   0.00000  Uiso   1.00
H1019  H     0.30821   0.50709   0.98608   0.00000  Uiso   1.00
H1020  H     0.03001   0.51584   0.51304   0.00000  Uiso   1.00
C1021  C     0.17580   0.40711   0.59044   0.00000  Uiso   1.00
O1022  O     0.19742   0.40872   0.61829   0.00000  Uiso   1.00
O1023  O     0.13614   0.37993   0.59844   0.00000  Uiso   1.00
H1024  H     0.12894   0.36370   0.62832   0.00000  Uiso   1.00
C1025  C     0.15554   0.40785   0.90976   0.00000  Uiso   1.00
O1026  O     0.13284   0.40979   0.88282   0.00000  Uiso   1.00
O1027  O     0.19429   0.37965   0.90114   0.00000  Uiso   1.00
H1028  H     0.20002   0.36314   0.87160   0.00000  Uiso   1.00
C1029  C     0.30635   0.37289   0.67711   0.00000  Uiso   1.00
O1030  O     0.32405   0.40623   0.66108   0.00000  Uiso   1.00
O1031  O     0.27610   0.35187   0.65744   0.00000  Uiso   1.00
H1032  H     0.27209   0.36726   0.63019   0.00000  Uiso   1.00
C1033  C     0.02944   0.62697   0.82124   0.00000  Uiso   1.00
O1034  O     0.01084   0.59429   0.83861   0.00000  Uiso   1.00
O1035  O     0.06276   0.64696   0.83806   0.00000  Uiso   1.00
H1036  H     0.06893   0.63103   0.86399   0.00000  Uiso   1.00
H1037  H     0.30542   0.62577   0.69522   0.00000  Uiso   1.00
H1038  H     0.02839   0.37418   0.80448   0.00000  Uiso   1.00
H1039  H     0.10314   0.45890   0.80708   0.00000  Uiso   1.00
H1040  H     0.23021   0.54106   0.69292   0.00000  Uiso   1.00
C1041  C     0.33384   0.42094   0.74862   0.00000  Uiso   1.00
C1042  C     0.66619   0.57907   0.75134   0.00000  Uiso   1.00
C1043  C     0.52377   0.43391   0.54815   0.00000  Uiso   1.00
C1044  C     0.47625   0.43501   0.95184   0.00000  Uiso   1.00
C1045  C     0.57155   0.45032   0.52739   0.00000  Uiso   1.00
C1046  C     0.43150   0.45647   0.97072   0.00000  Uiso   1.00
C1047  C     0.65188   0.35356   0.71586   0.00000  Uiso   1.00
C1048  C     0.34890   0.64645   0.78356   0.00000  Uiso   1.00
C1049  C     0.65015   0.64396   0.71951   0.00000  Uiso   1.00
C1050  C     0.35022   0.35605   0.78020   0.00000  Uiso   1.00
C1051  C     0.66562   0.62379   0.75239   0.00000  Uiso   1.00
C1052  C     0.33459   0.37623   0.74742   0.00000  Uiso   1.00
C1053  C     0.51316   0.47732   0.78163   0.00000  Uiso   1.00
C1054  C     0.48686   0.52264   0.71835   0.00000  Uiso   1.00
C1055  C     0.46390   0.47730   0.78161   0.00000  Uiso   1.00
C1056  C     0.53611   0.52267   0.71838   0.00000  Uiso   1.00
C1057  C     0.63750   0.49866   0.83678   0.00000  Uiso   1.00
C1058  C     0.36251   0.49919   0.66318   0.00000  Uiso   1.00
C1059  C     0.61787   0.49061   0.88726   0.00000  Uiso   1.00
C1060  C     0.38238   0.49228   0.61249   0.00000  Uiso   1.00
C1061  C     0.62470   0.49365   0.96354   0.00000  Uiso   1.00
C1062  C     0.37851   0.49979   0.53543   0.00000  Uiso   1.00
C1063  C     0.64087   0.50588   0.91699   0.00000  Uiso   1.00
C1064  C     0.36036   0.50929   0.58278   0.00000  Uiso   1.00
C1065  C     0.57501   0.46706   0.90596   0.00000  Uiso   1.00
C1066  C     0.42514   0.46859   0.59360   0.00000  Uiso   1.00
C1067  C     0.55759   0.45510   0.95327   0.00000  Uiso   1.00
C1068  C     0.44334   0.45783   0.54600   0.00000  Uiso   1.00
C1069  C     0.58566   0.46575   0.98132   0.00000  Uiso   1.00
C1070  C     0.41714   0.47133   0.51718   0.00000  Uiso   1.00
C1071  C     0.50967   0.43902   0.97544   0.00000  Uiso   1.00
C1072  C     0.49055   0.43989   0.52442   0.00000  Uiso   1.00
Cu1073 Cu    0.38022   0.50001   0.75000   0.00000  Uiso   1.00
Cu1074 Cu    0.61978   0.49999   0.75000   0.00000  Uiso   1.00
H1075  H     0.52217   0.45900   0.80708   0.00000  Uiso   1.00
H1076  H     0.47790   0.54096   0.69284   0.00000  Uiso   1.00
N1077  N     0.45069   0.50001   0.74999   0.00000  Uiso   1.00
N1078  N     0.54931   0.49999   0.75001   0.00000  Uiso   1.00
O1079  O     0.37291   0.43989   0.75000   0.00000  Uiso   1.00
O1080  O     0.62709   0.56011   0.75000   0.00000  Uiso   1.00
O1081  O     0.62706   0.43988   0.75001   0.00000  Uiso   1.00
O1082  O     0.37294   0.56012   0.75000   0.00000  Uiso   1.00
O1083  O     0.35186   0.50001   0.81492   0.00000  Uiso   1.00
O1084  O     0.64814   0.49999   0.68509   0.00000  Uiso   1.00
O1085  O     0.60600   0.50000   0.81492   0.00000  Uiso   1.00
O1086  O     0.39400   0.50000   0.68508   0.00000  Uiso   1.00
C1087  C     0.60629   0.45007   0.55291   0.00000  Uiso   1.00
O1088  O     0.59844   0.47192   0.58726   0.00000  Uiso   1.00
O1089  O     0.64599   0.42274   0.53947   0.00000  Uiso   1.00
H1090  H     0.66448   0.42231   0.56214   0.00000  Uiso   1.00
C1091  C     0.40273   0.46537   0.94067   0.00000  Uiso   1.00
O1092  O     0.40935   0.49807   0.91962   0.00000  Uiso   1.00
O1093  O     0.37140   0.43563   0.93285   0.00000  Uiso   1.00
H1094  H     0.37028   0.40922   0.95095   0.00000  Uiso   1.00
H1095  H     0.44400   0.45944   0.61674   0.00000  Uiso   1.00
H1096  H     0.55517   0.45944   0.88313   0.00000  Uiso   1.00
H1097  H     0.66286   0.53023   0.59606   0.00000  Uiso   1.00
H1098  H     0.33773   0.52742   0.90415   0.00000  Uiso   1.00
H1099  H     0.64155   0.50709   0.98608   0.00000  Uiso   1.00
H1100  H     0.36334   0.51584   0.51304   0.00000  Uiso   1.00
C1101  C     0.50913   0.40711   0.59044   0.00000  Uiso   1.00
O1102  O     0.53075   0.40872   0.61829   0.00000  Uiso   1.00
O1103  O     0.46947   0.37993   0.59844   0.00000  Uiso   1.00
H1104  H     0.46227   0.36370   0.62832   0.00000  Uiso   1.00
C1105  C     0.48888   0.40785   0.90976   0.00000  Uiso   1.00
O1106  O     0.46617   0.40979   0.88282   0.00000  Uiso   1.00
O1107  O     0.52762   0.37965   0.90114   0.00000  Uiso   1.00
H1108  H     0.53335   0.36314   0.87160   0.00000  Uiso   1.00
C1109  C     0.63968   0.37289   0.67711   0.00000  Uiso   1.00
O1110  O     0.65738   0.40623   0.66108   0.00000  Uiso   1.00
O1111  O     0.60943   0.35187   0.65744   0.00000  Uiso   1.00
H1112  H     0.60542   0.36726   0.63019   0.00000  Uiso   1.00
C1113  C     0.36277   0.62697   0.82124   0.00000  Uiso   1.00
O1114  O     0.34417   0.59429   0.83861   0.00000  Uiso   1.00
O1115  O     0.39609   0.64696   0.83806   0.00000  Uiso   1.00
H1116  H     0.40227   0.63103   0.86399   0.00000  Uiso   1.00
H1117  H     0.63875   0.62577   0.69522   0.00000  Uiso   1.00
H1118  H     0.36173   0.37418   0.80448   0.00000  Uiso   1.00
H1119  H     0.43647   0.45890   0.80708   0.00000  Uiso   1.00
H1120  H     0.56354   0.54106   0.69292   0.00000  Uiso   1.00
C1121  C     0.66718   0.42094   0.74862   0.00000  Uiso   1.00
C1122  C     0.99953   0.57907   0.75134   0.00000  Uiso   1.00
C1123  C     0.85710   0.43391   0.54815   0.00000  Uiso   1.00
C1124  C     0.80959   0.43501   0.95184   0.00000  Uiso   1.00
C1125  C     0.90488   0.45032   0.52739   0.00000  Uiso   1.00
C1126  C     0.76483   0.45647   0.97072   0.00000  Uiso   1.00
C1127  C     0.98522   0.35356   0.71586   0.00000  Uiso   1.00
C1128  C     0.68223   0.64645   0.78356   0.00000  Uiso   1.00
C1129  C     0.98348   0.64396   0.71951   0.00000  Uiso   1.00
C1130  C     0.68356   0.35605   0.78020   0.00000  Uiso   1.00
C1131  C     0.99895   0.62379   0.75239   0.00000  Uiso   1.00
C1132  C     0.66792   0.37623   0.74742   0.00000  Uiso   1.00
C1133  C     0.84649   0.47732   0.78163   0.00000  Uiso   1.00
C1134  C     0.82019   0.52264   0.71835   0.00000  Uiso   1.00
C1135  C     0.79724   0.47730   0.78161   0.00000  Uiso   1.00
C1136  C     0.86944   0.52267   0.71838   0.00000  Uiso   1.00
C1137  C     0.97084   0.49866   0.83678   0.00000  Uiso   1.00
C1138  C     0.69584   0.49919   0.66318   0.00000  Uiso   1.00
C1139  C     0.95121   0.49061   0.88726   0.00000  Uiso   1.00
C1140  C     0.71572   0.49228   0.61249   0.00000  Uiso   1.00
C1141  C     0.95803   0.49365   0.96354   0.00000  Uiso   1.00
C1142  C     0.71184   0.49979   0.53543   0.00000  Uiso   1.00
C1143  C     0.97420   0.50588   0.91699   0.00000  Uiso   1.00
C1144  C     0.69369   0.50929   0.58278   0.00000  Uiso   1.00
C1145  C     0.90834   0.46706   0.90596   0.00000  Uiso   1.00
C1146  C     0.75847   0.46859   0.59360   0.00000  Uiso   1.00
C1147  C     0.89093   0.45510   0.95327   0.00000  Uiso   1.00
C1148  C     0.77668   0.45783   0.54600   0.00000  Uiso   1.00
C1149  C     0.91899   0.46575   0.98132   0.00000  Uiso   1.00
C1150  C     0.75047   0.47133   0.51718   0.00000  Uiso   1.00
C1151  C     0.84300   0.43902   0.97544   0.00000  Uiso   1.00
C1152  C     0.82388   0.43989   0.52442   0.00000  Uiso   1.00
Cu1153 Cu    0.71355   0.50001   0.75000   0.00000  Uiso   1.00
Cu1154 Cu    0.95311   0.49999   0.75000   0.00000  Uiso   1.00
H1155  H     0.85550   0.45900   0.80708   0.00000  Uiso   1.00
H1156  H     0.81123   0.54096   0.69284   0.00000  Uiso   1.00
N1157  N     0.78403   0.50001   0.74999   0.00000  Uiso   1.00
N1158  N     0.88264   0.49999   0.75001   0.00000  Uiso   1.00
O1159  O     0.70625   0.43989   0.75000   0.00000  Uiso   1.00
O1160  O     0.96042   0.56011   0.75000   0.00000  Uiso   1.00
O1161  O     0.96039   0.43988   0.75001   0.00000  Uiso   1.00
O1162  O     0.70628   0.56012   0.75000   0.00000  Uiso   1.00
O1163  O     0.68519   0.50001   0.81492   0.00000  Uiso   1.00
O1164  O     0.98148   0.49999   0.68509   0.00000  Uiso   1.00
O1165  O     0.93933   0.50000   0.81492   0.00000  Uiso   1.00
O1166  O     0.72733   0.50000   0.68508   0.00000  Uiso   1.00
C1167  C     0.93962   0.45007   0.55291   0.00000  Uiso   1.00
O1168  O     0.93178   0.47192   0.58726   0.00000  Uiso   1.00
O1169  O     0.97932   0.42274   0.53947   0.00000  Uiso   1.00
H1170  H     0.99781   0.42231   0.56214   0.00000  Uiso   1.00
C1171  C     0.73606   0.46537   0.94067   0.00000  Uiso   1.00
O1172  O     0.74268   0.49807   0.91962   0.00000  Uiso   1.00
O1173  O     0.70474   0.43563   0.93285   0.00000  Uiso   1.00
H1174  H     0.70361   0.40922   0.95095   0.00000  Uiso   1.00
H1175  H     0.77733   0.45944   0.61674   0.00000  Uiso   1.00
H1176  H     0.88850   0.45944   0.88313   0.00000  Uiso   1.00
H1177  H     0.99619   0.53023   0.59606   0.00000  Uiso   1.00
H1178  H     0.67106   0.52742   0.90415   0.00000  Uiso   1.00
H1179  H     0.97488   0.50709   0.98608   0.00000  Uiso   1.00
H1180  H     0.69667   0.51584   0.51304   0.00000  Uiso   1.00
C1181  C     0.84246   0.40711   0.59044   0.00000  Uiso   1.00
O1182  O     0.86409   0.40872   0.61829   0.00000  Uiso   1.00
O1183  O     0.80281   0.37993   0.59844   0.00000  Uiso   1.00
H1184  H     0.79561   0.36370   0.62832   0.00000  Uiso   1.00
C1185  C     0.82221   0.40785   0.90976   0.00000  Uiso   1.00
O1186  O     0.79951   0.40979   0.88282   0.00000  Uiso   1.00
O1187  O     0.86096   0.37965   0.90114   0.00000  Uiso   1.00
H1188  H     0.86668   0.36314   0.87160   0.00000  Uiso   1.00
C1189  C     0.97302   0.37289   0.67711   0.00000  Uiso   1.00
O1190  O     0.99072   0.40623   0.66108   0.00000  Uiso   1.00
O1191  O     0.94276   0.35187   0.65744   0.00000  Uiso   1.00
H1192  H     0.93875   0.36726   0.63019   0.00000  Uiso   1.00
C1193  C     0.69610   0.62697   0.82124   0.00000  Uiso   1.00
O1194  O     0.67751   0.59429   0.83861   0.00000  Uiso   1.00
O1195  O     0.72943   0.64696   0.83806   0.00000  Uiso   1.00
H1196  H     0.73560   0.63103   0.86399   0.00000  Uiso   1.00
H1197  H     0.97208   0.62577   0.69522   0.00000  Uiso   1.00
H1198  H     0.69506   0.37418   0.80448   0.00000  Uiso   1.00
H1199  H     0.76981   0.45890   0.80708   0.00000  Uiso   1.00
H1200  H     0.89688   0.54106   0.69292   0.00000  Uiso   1.00
C1201  C     0.00051   0.75427   0.74862   0.00000  Uiso   1.00
C1202  C     0.33286   0.91240   0.75134   0.00000  Uiso   1.00
C1203  C     0.19044   0.76724   0.54815   0.00000  Uiso   1.00
C1204  C     0.14292   0.76835   0.95184   0.00000  Uiso   1.00
C1205  C     0.23821   0.78365   0.52739   0.00000  Uiso   1.00
C1206  C     0.09816   0.78980   0.97072   0.00000  Uiso   1.00
C1207  C     0.31855   0.68689   0.71586   0.00000  Uiso   1.00
C1208  C     0.01557   0.97978   0.78356   0.00000  Uiso   1.00
C1209  C     0.31682   0.97730   0.71951   0.00000  Uiso   1.00
C1210  C     0.01689   0.68939   0.78020   0.00000  Uiso   1.00
C1211  C     0.33229   0.95712   0.75239   0.00000  Uiso   1.00
C1212  C     0.00126   0.70957   0.74742   0.00000  Uiso   1.00
C1213  C     0.17983   0.81065   0.78163   0.00000  Uiso   1.00
C1214  C     0.15353   0.85598   0.71835   0.00000  Uiso   1.00
C1215  C     0.13057   0.81064   0.78161   0.00000  Uiso   1.00
C1216  C     0.20277   0.85600   0.71838   0.00000  Uiso   1.00
C1217  C     0.30417   0.83200   0.83678   0.00000  Uiso   1.00
C1218  C     0.02917   0.83252   0.66318   0.00000  Uiso   1.00
C1219  C     0.28454   0.82395   0.88726   0.00000  Uiso   1.00
C1220  C     0.04905   0.82562   0.61249   0.00000  Uiso   1.00
C1221  C     0.29137   0.82699   0.96354   0.00000  Uiso   1.00
C1222  C     0.04517   0.83312   0.53543   0.00000  Uiso   1.00
C1223  C     0.30753   0.83921   0.91699   0.00000  Uiso   1.00
C1224  C     0.02703   0.84262   0.58278   0.00000  Uiso   1.00
C1225  C     0.24168   0.80040   0.90596   0.00000  Uiso   1.00
C1226  C     0.09181   0.80193   0.59360   0.00000  Uiso   1.00
C1227  C     0.22426   0.78843   0.95327   0.00000  Uiso   1.00
C1228  C     0.11001   0.79116   0.54600   0.00000  Uiso   1.00
C1229  C     0.25232   0.79908   0.98132   0.00000  Uiso   1.00
C1230  C     0.08381   0.80466   0.51718   0.00000  Uiso   1.00
C1231  C     0.17634   0.77235   0.97544   0.00000  Uiso   1.00
C1232  C     0.15722   0.77322   0.52442   0.00000  Uiso   1.00
Cu1233 Cu    0.04689   0.83334   0.75000   0.00000  Uiso   1.00
Cu1234 Cu    0.28645   0.83333   0.75000   0.00000  Uiso   1.00
H1235  H     0.18883   0.79233   0.80708   0.00000  Uiso   1.00
H1236  H     0.14457   0.87429   0.69284   0.00000  Uiso   1.00
N1237  N     0.11736   0.83334   0.74999   0.00000  Uiso   1.00
N1238  N     0.21597   0.83332   0.75001   0.00000  Uiso   1.00
O1239  O     0.03958   0.77322   0.75000   0.00000  Uiso   1.00
O1240  O     0.29375   0.89345   0.75000   0.00000  Uiso   1.00
O1241  O     0.29372   0.77321   0.75001   0.00000  Uiso   1.00
O1242  O     0.03961   0.89346   0.75000   0.00000  Uiso   1.00
O1243  O     0.01852   0.83334   0.81492   0.00000  Uiso   1.00
O1244  O     0.31481   0.83332   0.68509   0.00000  Uiso   1.00
O1245  O     0.27267   0.83333   0.81492   0.00000  Uiso   1.00
O1246  O     0.06067   0.83333   0.68508   0.00000  Uiso   1.00
C1247  C     0.27295   0.78341   0.55291   0.00000  Uiso   1.00
O1248  O     0.26511   0.80525   0.58726   0.00000  Uiso   1.00
O1249  O     0.31266   0.75607   0.53947   0.00000  Uiso   1.00
H1250  H     0.33114   0.75564   0.56214   0.00000  Uiso   1.00
C1251  C     0.06939   0.79871   0.94067   0.00000  Uiso   1.00
O1252  O     0.07602   0.83140   0.91962   0.00000  Uiso   1.00
O1253  O     0.03807   0.76896   0.93285   0.00000  Uiso   1.00
H1254  H     0.03695   0.74256   0.95095   0.00000  Uiso   1.00
H1255  H     0.11066   0.79277   0.61674   0.00000  Uiso   1.00
H1256  H     0.22183   0.79277   0.88313   0.00000  Uiso   1.00
H1257  H     0.32952   0.86357   0.59606   0.00000  Uiso   1.00
H1258  H     0.00439   0.86076   0.90415   0.00000  Uiso   1.00
H1259  H     0.30821   0.84042   0.98608   0.00000  Uiso   1.00
H1260  H     0.03001   0.84917   0.51304   0.00000  Uiso   1.00
C1261  C     0.17580   0.74044   0.59044   0.00000  Uiso   1.00
O1262  O     0.19742   0.74206   0.61829   0.00000  Uiso   1.00
O1263  O     0.13614   0.71326   0.59844   0.00000  Uiso   1.00
H1264  H     0.12894   0.69704   0.62832   0.00000  Uiso   1.00
C1265  C     0.15554   0.74119   0.90976   0.00000  Uiso   1.00
O1266  O     0.13284   0.74312   0.88282   0.00000  Uiso   1.00
O1267  O     0.19429   0.71298   0.90114   0.00000  Uiso   1.00
H1268  H     0.20002   0.69647   0.87160   0.00000  Uiso   1.00
C1269  C     0.30635   0.70622   0.67711   0.00000  Uiso   1.00
O1270  O     0.32405   0.73956   0.66108   0.00000  Uiso   1.00
O1271  O     0.27610   0.68520   0.65744   0.00000  Uiso   1.00
H1272  H     0.27209   0.70060   0.63019   0.00000  Uiso   1.00
C1273  C     0.02944   0.96031   0.82124   0.00000  Uiso   1.00
O1274  O     0.01084   0.92762   0.83861   0.00000  Uiso   1.00
O1275  O     0.06276   0.98030   0.83806   0.00000  Uiso   1.00
H1276  H     0.06893   0.96436   0.86399   0.00000  Uiso   1.00
H1277  H     0.30542   0.95911   0.69522   0.00000  Uiso   1.00
H1278  H     0.02839   0.70751   0.80448   0.00000  Uiso   1.00
H1279  H     0.10314   0.79223   0.80708   0.00000  Uiso   1.00
H1280  H     0.23021   0.87440   0.69292   0.00000  Uiso   1.00
C1281  C     0.33384   0.75427   0.74862   0.00000  Uiso   1.00
C1282  C     0.66619   0.91240   0.75134   0.00000  Uiso   1.00
C1283  C     0.52377   0.76724   0.54815   0.00000  Uiso   1.00
C1284  C     0.47625   0.76835   0.95184   0.00000  Uiso   1.00
C1285  C     0.57155   0.78365   0.52739   0.00000  Uiso   1.00
C1286  C     0.43150   0.78980   0.97072   0.00000  Uiso   1.00
C1287  C     0.65188   0.68689   0.71586   0.00000  Uiso   1.00
C1288  C     0.34890   0.97978   0.78356   0.00000  Uiso   1.00
C1289  C     0.65015   0.97730   0.71951   0.00000  Uiso   1.00
C1290  C     0.35022   0.68939   0.78020   0.00000  Uiso   1.00
C1291  C     0.66562   0.95712   0.75239   0.00000  Uiso   1.00
C1292  C     0.33459   0.70957   0.74742   0.00000  Uiso   1.00
C1293  C     0.51316   0.81065   0.78163   0.00000  Uiso   1.00
C1294  C     0.48686   0.85598   0.71835   0.00000  Uiso   1.00
C1295  C     0.46390   0.81064   0.78161   0.00000  Uiso   1.00
C1296  C     0.53611   0.85600   0.71838   0.00000  Uiso   1.00
C1297  C     0.63750   0.83200   0.83678   0.00000  Uiso   1.00
C1298  C     0.36251   0.83252   0.66318   0.00000  Uiso   1.00
C1299  C     0.61787   0.82395   0.88726   0.00000  Uiso   1.00
C1300  C     0.38238   0.82562   0.61249   0.00000  Uiso   1.00
C1301  C     0.62470   0.82699   0.96354   0.00000  Uiso   1.00
C1302  C     0.37851   0.83312   0.53543   0.00000  Uiso   1.00
C1303  C     0.64087   0.83921   0.91699   0.00000  Uiso   1.00
C1304  C     0.36036   0.84262   0.58278   0.00000  Uiso   1.00
C1305  C     0.57501   0.80040   0.90596   0.00000  Uiso   1.00
C1306  C     0.42514   0.80193   0.59360   0.00000  Uiso   1.00
C1307  C     0.55759   0.78843   0.95327   0.00000  Uiso   1.00
C1308  C     0.44334   0.79116   0.54600   0.00000  Uiso   1.00
C1309  C     0.58566   0.79908   0.98132   0.00000  Uiso   1.00
C1310  C     0.41714   0.80466   0.51718   0.00000  Uiso   1.00
C1311  C     0.50967   0.77235   0.97544   0.00000  Uiso   1.00
C1312  C     0.49055   0.77322   0.52442   0.00000  Uiso   1.00
Cu1313 Cu    0.38022   0.83334   0.75000   0.00000  Uiso   1.00
Cu1314 Cu    0.61978   0.83333   0.75000   0.00000  Uiso   1.00
H1315  H     0.52217   0.79233   0.80708   0.00000  Uiso   1.00
H1316  H     0.47790   0.87429   0.69284   0.00000  Uiso   1.00
N1317  N     0.45069   0.83334   0.74999   0.00000  Uiso   1.00
N1318  N     0.54931   0.83332   0.75001   0.00000  Uiso   1.00
O1319  O     0.37291   0.77322   0.75000   0.00000  Uiso   1.00
O1320  O     0.62709   0.89345   0.75000   0.00000  Uiso   1.00
O1321  O     0.62706   0.77321   0.75001   0.00000  Uiso   1.00
O1322  O     0.37294   0.89346   0.75000   0.00000  Uiso   1.00
O1323  O     0.35186   0.83334   0.81492   0.00000  Uiso   1.00
O1324  O     0.64814   0.83332   0.68509   0.00000  Uiso   1.00
O1325  O     0.60600   0.83333   0.81492   0.00000  Uiso   1.00
O1326  O     0.39400   0.83333   0.68508   0.00000  Uiso   1.00
C1327  C     0.60629   0.78341   0.55291   0.00000  Uiso   1.00
O1328  O     0.59844   0.80525   0.58726   0.00000  Uiso   1.00
O1329  O     0.64599   0.75607   0.53947   0.00000  Uiso   1.00
H1330  H     0.66448   0.75564   0.56214   0.00000  Uiso   1.00
C1331  C     0.40273   0.79871   0.94067   0.00000  Uiso   1.00
O1332  O     0.40935   0.83140   0.91962   0.00000  Uiso   1.00
O1333  O     0.37140   0.76896   0.93285   0.00000  Uiso   1.00
H1334  H     0.37028   0.74256   0.95095   0.00000  Uiso   1.00
H1335  H     0.44400   0.79277   0.61674   0.00000  Uiso   1.00
H1336  H     0.55517   0.79277   0.88313   0.00000  Uiso   1.00
H1337  H     0.66286   0.86357   0.59606   0.00000  Uiso   1.00
H1338  H     0.33773   0.86076   0.90415   0.00000  Uiso   1.00
H1339  H     0.64155   0.84042   0.98608   0.00000  Uiso   1.00
H1340  H     0.36334   0.84917   0.51304   0.00000  Uiso   1.00
C1341  C     0.50913   0.74044   0.59044   0.00000  Uiso   1.00
O1342  O     0.53075   0.74206   0.61829   0.00000  Uiso   1.00
O1343  O     0.46947   0.71326   0.59844   0.00000  Uiso   1.00
H1344  H     0.46227   0.69704   0.62832   0.00000  Uiso   1.00
C1345  C     0.48888   0.74119   0.90976   0.00000  Uiso   1.00
O1346  O     0.46617   0.74312   0.88282   0.00000  Uiso   1.00
O1347  O     0.52762   0.71298   0.90114   0.00000  Uiso   1.00
H1348  H     0.53335   0.69647   0.87160   0.00000  Uiso   1.00
C1349  C     0.63968   0.70622   0.67711   0.00000  Uiso   1.00
O1350  O     0.65738   0.73956   0.66108   0.00000  Uiso   1.00
O1351  O     0.60943   0.68520   0.65744   0.00000  Uiso   1.00
H1352  H     0.60542   0.70060   0.63019   0.00000  Uiso   1.00
C1353  C     0.36277   0.96031   0.82124   0.00000  Uiso   1.00
O1354  O     0.34417   0.92762   0.83861   0.00000  Uiso   1.00
O1355  O     0.39609   0.98030   0.83806   0.00000  Uiso   1.00
H1356  H     0.40227   0.96436   0.86399   0.00000  Uiso   1.00
H1357  H     0.63875   0.95911   0.69522   0.00000  Uiso   1.00
H1358  H     0.36173   0.70751   0.80448   0.00000  Uiso   1.00
H1359  H     0.43647   0.79223   0.80708   0.00000  Uiso   1.00
H1360  H     0.56354   0.87440   0.69292   0.00000  Uiso   1.00
C1361  C     0.66718   0.75427   0.74862   0.00000  Uiso   1.00
C1362  C     0.99953   0.91240   0.75134   0.00000  Uiso   1.00
C1363  C     0.85710   0.76724   0.54815   0.00000  Uiso   1.00
C1364  C     0.80959   0.76835   0.95184   0.00000  Uiso   1.00
C1365  C     0.90488   0.78365   0.52739   0.00000  Uiso   1.00
C1366  C     0.76483   0.78980   0.97072   0.00000  Uiso   1.00
C1367  C     0.98522   0.68689   0.71586   0.00000  Uiso   1.00
C1368  C     0.68223   0.97978   0.78356   0.00000  Uiso   1.00
C1369  C     0.98348   0.97730   0.71951   0.00000  Uiso   1.00
C1370  C     0.68356   0.68939   0.78020   0.00000  Uiso   1.00
C1371  C     0.99895   0.95712   0.75239   0.00000  Uiso   1.00
C1372  C     0.66792   0.70957   0.74742   0.00000  Uiso   1.00
C1373  C     0.84649   0.81065   0.78163   0.00000  Uiso   1.00
C1374  C     0.82019   0.85598   0.71835   0.00000  Uiso   1.00
C1375  C     0.79724   0.81064   0.78161   0.00000  Uiso   1.00
C1376  C     0.86944   0.85600   0.71838   0.00000  Uiso   1.00
C1377  C     0.97084   0.83200   0.83678   0.00000  Uiso   1.00
C1378  C     0.69584   0.83252   0.66318   0.00000  Uiso   1.00
C1379  C     0.95121   0.82395   0.88726   0.00000  Uiso   1.00
C1380  C     0.71572   0.82562   0.61249   0.00000  Uiso   1.00
C1381  C     0.95803   0.82699   0.96354   0.00000  Uiso   1.00
C1382  C     0.71184   0.83312   0.53543   0.00000  Uiso   1.00
C1383  C     0.97420   0.83921   0.91699   0.00000  Uiso   1.00
C1384  C     0.69369   0.84262   0.58278   0.00000  Uiso   1.00
C1385  C     0.90834   0.80040   0.90596   0.00000  Uiso   1.00
C1386  C     0.75847   0.80193   0.59360   0.00000  Uiso   1.00
C1387  C     0.89093   0.78843   0.95327   0.00000  Uiso   1.00
C1388  C     0.77668   0.79116   0.54600   0.00000  Uiso   1.00
C1389  C     0.91899   0.79908   0.98132   0.00000  Uiso   1.00
C1390  C     0.75047   0.80466   0.51718   0.00000  Uiso   1.00
C1391  C     0.84300   0.77235   0.97544   0.00000  Uiso   1.00
C1392  C     0.82388   0.77322   0.52442   0.00000  Uiso   1.00
Cu1393 Cu    0.71355   0.83334   0.75000   0.00000  Uiso   1.00
Cu1394 Cu    0.95311   0.83333   0.75000   0.00000  Uiso   1.00
H1395  H     0.85550   0.79233   0.80708   0.00000  Uiso   1.00
H1396  H     0.81123   0.87429   0.69284   0.00000  Uiso   1.00
N1397  N     0.78403   0.83334   0.74999   0.00000  Uiso   1.00
N1398  N     0.88264   0.83332   0.75001   0.00000  Uiso   1.00
O1399  O     0.70625   0.77322   0.75000   0.00000  Uiso   1.00
O1400  O     0.96042   0.89345   0.75000   0.00000  Uiso   1.00
O1401  O     0.96039   0.77321   0.75001   0.00000  Uiso   1.00
O1402  O     0.70628   0.89346   0.75000   0.00000  Uiso   1.00
O1403  O     0.68519   0.83334   0.81492   0.00000  Uiso   1.00
O1404  O     0.98148   0.83332   0.68509   0.00000  Uiso   1.00
O1405  O     0.93933   0.83333   0.81492   0.00000  Uiso   1.00
O1406  O     0.72733   0.83333   0.68508   0.00000  Uiso   1.00
C1407  C     0.93962   0.78341   0.55291   0.00000  Uiso   1.00
O1408  O     0.93178   0.80525   0.58726   0.00000  Uiso   1.00
O1409  O     0.97932   0.75607   0.53947   0.00000  Uiso   1.00
H1410  H     0.99781   0.75564   0.56214   0.00000  Uiso   1.00
C1411  C     0.73606   0.79871   0.94067   0.00000  Uiso   1.00
O1412  O     0.74268   0.83140   0.91962   0.00000  Uiso   1.00
O1413  O     0.70474   0.76896   0.93285   0.00000  Uiso   1.00
H1414  H     0.70361   0.74256   0.95095   0.00000  Uiso   1.00
H1415  H     0.77733   0.79277   0.61674   0.00000  Uiso   1.00
H1416  H     0.88850   0.79277   0.88313   0.00000  Uiso   1.00
H1417  H     0.99619   0.86357   0.59606   0.00000  Uiso   1.00
H1418  H     0.67106   0.86076   0.90415   0.00000  Uiso   1.00
H1419  H     0.97488   0.84042   0.98608   0.00000  Uiso   1.00
H1420  H     0.69667   0.84917   0.51304   0.00000  Uiso   1.00
C1421  C     0.84246   0.74044   0.59044   0.00000  Uiso   1.00
O1422  O     0.86409   0.74206   0.61829   0.00000  Uiso   1.00
O1423  O     0.80281   0.71326   0.59844   0.00000  Uiso   1.00
H1424  H     0.79561   0.69704   0.62832   0.00000  Uiso   1.00
C1425  C     0.82221   0.74119   0.90976   0.00000  Uiso   1.00
O1426  O     0.79951   0.74312   0.88282   0.00000  Uiso   1.00
O1427  O     0.86096   0.71298   0.90114   0.00000  Uiso   1.00
H1428  H     0.86668   0.69647   0.87160   0.00000  Uiso   1.00
C1429  C     0.97302   0.70622   0.67711   0.00000  Uiso   1.00
O1430  O     0.99072   0.73956   0.66108   0.00000  Uiso   1.00
O1431  O     0.94276   0.68520   0.65744   0.00000  Uiso   1.00
H1432  H     0.93875   0.70060   0.63019   0.00000  Uiso   1.00
C1433  C     0.69610   0.96031   0.82124   0.00000  Uiso   1.00
O1434  O     0.67751   0.92762   0.83861   0.00000  Uiso   1.00
O1435  O     0.72943   0.98030   0.83806   0.00000  Uiso   1.00
H1436  H     0.73560   0.96436   0.86399   0.00000  Uiso   1.00
H1437  H     0.97208   0.95911   0.69522   0.00000  Uiso   1.00
H1438  H     0.69506   0.70751   0.80448   0.00000  Uiso   1.00
H1439  H     0.76981   0.79223   0.80708   0.00000  Uiso   1.00
H1440  H     0.89688   0.87440   0.69292   0.00000  Uiso   1.00
loop_
_geom_bond_atom_site_label_1
_geom_bond_atom_site_label_2
_geom_bond_distance
_geom_bond_site_symmetry_2
_ccdc_geom_bond_type
C1     C12     1.445   .     S
C1     O39     1.301   .     A
C1     O201    1.302   1_455 S
C2     C11     1.446   .     S
C2     O40     1.301   .     A
C2     O122    1.302   .     S
C3     C61     1.496   .     S
C3     C5      1.414   .     A
C3     C32     1.405   .     A
C4     C65     1.498   .     S
C4     C6      1.408   .     A
C4     C31     1.400   .     A
C5     C47     1.472   .     S
C5     C749    1.420   1_554 S
C6     C51     1.468   .     S
C6     C750    1.423   .     S
C7     C69     1.489   .     S
C7     C489    1.392   1_545 S
C7     C92     1.413   .     S
C8     C73     1.488   .     S
C8     C250    1.391   .     S
C8     C171    1.413   1_455 S
C9     H77     1.085   .     S
C9     C11     1.398   .     A
C9     C247    1.392   .     S
C10    H78     1.085   .     S
C10    C12     1.399   .     A
C10    C488    1.391   1_545 S
C11    C88     1.413   .     S
C12    C167    1.413   1_455 S
C13    H35     1.082   .     S
C13    N38     1.371   .     A
C13    C15     1.428   .     A
C14    C16     1.428   .     A
C14    N37     1.371   .     A
C14    H36     1.082   .     S
C15    N37     1.372   .     A
C15    H79     1.082   .     S
C16    H80     1.082   .     S
C16    N38     1.372   .     A
C17    O45     1.306   .     A
C17    C19     1.478   .     S
C17    O123    1.314   .     S
C18    C20     1.477   .     S
C18    O46     1.306   .     A
C18    O204    1.314   1_455 S
C19    C23     1.391   .     A
C19    C25     1.401   .     A
C20    C24     1.393   .     A
C20    C26     1.402   .     A
C21    C23     1.398   .     A
C21    C29     1.403   .     A
C21    H59     1.066   .     S
C22    H60     1.069   .     S
C22    C30     1.408   .     A
C22    C24     1.398   .     A
C23    H138    1.081   .     S
C24    H217    1.083   1_455 S
C25    H56     1.076   .     S
C25    C27     1.417   .     A
C26    H55     1.075   .     S
C26    C28     1.414   .     A
C27    C29     1.414   .     A
C27    C31     1.419   .     A
C28    C32     1.423   .     A
C28    C30     1.418   .     A
C29    C725    1.420   .     S
C30    C726    1.423   1_554 S
C31    C752    1.412   .     S
C32    C751    1.412   1_554 S
Cu33   O39     1.955   .     S
Cu33   O42     1.955   .     S
Cu33   O46     1.891   .     S
Cu33   O43     1.875   .     S
Cu33   N37     2.042   .     S
Cu33   Cu194   2.718   1_455 S
Cu34   O40     1.955   .     S
Cu34   O41     1.955   .     S
Cu34   O44     1.875   .     S
Cu34   O45     1.891   .     S
Cu34   N38     2.042   .     S
Cu34   Cu113   2.718   .     S
O41    C81     1.302   .     S
O42    C162    1.302   1_455 S
O43    C177    1.314   1_455 S
O44    C98     1.314   .     S
C47    O49     1.396   .     S
C47    O48     1.222   .     D
O49    H50     1.013   .     S
C51    O52     1.219   .     D
C51    O53     1.398   .     S
O53    H54     1.013   .     S
H57    C104    1.083   .     S
H58    C183    1.081   1_455 S
C61    O63     1.400   .     S
C61    O62     1.222   .     D
O63    H64     1.014   .     S
C65    O67     1.400   .     S
C65    O66     1.222   .     D
O67    H68     1.014   .     S
C69    O70     1.222   .     D
C69    O71     1.399   .     S
O71    H72     1.013   .     S
C73    O74     1.222   .     D
C73    O75     1.399   .     S
O75    H76     1.014   .     S
C81    C92     1.445   .     S
C81    O119    1.301   .     A
C82    C91     1.446   .     S
C82    O120    1.301   .     A
C82    O202    1.302   .     S
C83    C141    1.496   .     S
C83    C85     1.414   .     A
C83    C112    1.405   .     A
C84    C145    1.498   .     S
C84    C86     1.408   .     A
C84    C111    1.400   .     A
C85    C127    1.472   .     S
C85    C829    1.420   1_554 S
C86    C131    1.468   .     S
C86    C830    1.423   .     S
C87    C149    1.489   .     S
C87    C569    1.392   1_545 S
C87    C172    1.413   .     S
C88    C153    1.488   .     S
C88    C330    1.391   .     S
C89    H157    1.085   .     S
C89    C91     1.398   .     A
C89    C327    1.392   .     S
C90    H158    1.085   .     S
C90    C92     1.399   .     A
C90    C568    1.391   1_545 S
C91    C168    1.413   .     S
C93    H115    1.082   .     S
C93    N118    1.371   .     A
C93    C95     1.428   .     A
C94    C96     1.428   .     A
C94    N117    1.371   .     A
C94    H116    1.082   .     S
C95    N117    1.372   .     A
C95    H159    1.082   .     S
C96    H160    1.082   .     S
C96    N118    1.372   .     A
C97    O125    1.306   .     A
C97    C99     1.478   .     S
C97    O203    1.314   .     S
C98    C100    1.477   .     S
C98    O126    1.306   .     A
C99    C103    1.391   .     A
C99    C105    1.401   .     A
C100   C104    1.393   .     A
C100   C106    1.402   .     A
C101   C103    1.398   .     A
C101   C109    1.403   .     A
C101   H139    1.066   .     S
C102   H140    1.069   .     S
C102   C110    1.408   .     A
C102   C104    1.398   .     A
C103   H218    1.081   .     S
C105   H136    1.076   .     S
C105   C107    1.417   .     A
C106   H135    1.075   .     S
C106   C108    1.414   .     A
C107   C109    1.414   .     A
C107   C111    1.419   .     A
C108   C112    1.423   .     A
C108   C110    1.418   .     A
C109   C805    1.420   .     S
C110   C806    1.423   1_554 S
C111   C832    1.412   .     S
C112   C831    1.412   1_554 S
Cu113  O119    1.955   .     S
Cu113  O122    1.955   .     S
Cu113  O126    1.891   .     S
Cu113  O123    1.875   .     S
Cu113  N117    2.042   .     S
Cu114  O120    1.955   .     S
Cu114  O121    1.955   .     S
Cu114  O124    1.875   .     S
Cu114  O125    1.891   .     S
Cu114  N118    2.042   .     S
Cu114  Cu193   2.718   .     S
O121   C161    1.302   .     S
O124   C178    1.314   .     S
C127   O129    1.396   .     S
C127   O128    1.222   .     D
O129   H130    1.013   .     S
C131   O132    1.219   .     D
C131   O133    1.398   .     S
O133   H134    1.013   .     S
H137   C184    1.083   .     S
C141   O143    1.400   .     S
C141   O142    1.222   .     D
O143   H144    1.014   .     S
C145   O147    1.400   .     S
C145   O146    1.222   .     D
O147   H148    1.014   .     S
C149   O150    1.222   .     D
C149   O151    1.399   .     S
O151   H152    1.013   .     S
C153   O154    1.222   .     D
C153   O155    1.399   .     S
O155   H156    1.014   .     S
C161   C172    1.445   .     S
C161   O199    1.301   .     A
C162   C171    1.446   .     S
C162   O200    1.301   .     A
C162   O42     1.302   1_655 S
C163   C221    1.496   .     S
C163   C165    1.414   .     A
C163   C192    1.405   .     A
C164   C225    1.498   .     S
C164   C166    1.408   .     A
C164   C191    1.400   .     A
C165   C207    1.472   .     S
C165   C909    1.420   1_554 S
C166   C211    1.468   .     S
C166   C910    1.423   .     S
C167   C229    1.489   .     S
C167   C649    1.392   1_545 S
C167   C12     1.413   1_655 S
C168   C233    1.488   .     S
C168   C410    1.391   .     S
C169   H237    1.085   .     S
C169   C171    1.398   .     A
C169   C407    1.392   .     S
C170   H238    1.085   .     S
C170   C172    1.399   .     A
C170   C648    1.391   1_545 S
C171   C8      1.413   1_655 S
C173   H195    1.082   .     S
C173   N198    1.371   .     A
C173   C175    1.428   .     A
C174   C176    1.428   .     A
C174   N197    1.371   .     A
C174   H196    1.082   .     S
C175   N197    1.372   .     A
C175   H239    1.082   .     S
C176   H240    1.082   .     S
C176   N198    1.372   .     A
C177   O205    1.306   .     A
C177   C179    1.478   .     S
C177   O43     1.314   1_655 S
C178   C180    1.477   .     S
C178   O206    1.306   .     A
C179   C183    1.391   .     A
C179   C185    1.401   .     A
C180   C184    1.393   .     A
C180   C186    1.402   .     A
C181   C183    1.398   .     A
C181   C189    1.403   .     A
C181   H219    1.066   .     S
C182   H220    1.069   .     S
C182   C190    1.408   .     A
C182   C184    1.398   .     A
C183   H58     1.081   1_655 S
C185   H216    1.076   .     S
C185   C187    1.417   .     A
C186   H215    1.075   .     S
C186   C188    1.414   .     A
C187   C189    1.414   .     A
C187   C191    1.419   .     A
C188   C192    1.423   .     A
C188   C190    1.418   .     A
C189   C885    1.420   .     S
C190   C886    1.423   1_554 S
C191   C912    1.412   .     S
C192   C911    1.412   1_554 S
Cu193  O199    1.955   .     S
Cu193  O202    1.955   .     S
Cu193  O206    1.891   .     S
Cu193  O203    1.875   .     S
Cu193  N197    2.042   .     S
Cu194  O200    1.955   .     S
Cu194  O201    1.955   .     S
Cu194  O204    1.875   .     S
Cu194  O205    1.891   .     S
Cu194  N198    2.042   .     S
Cu194  Cu33    2.718   1_655 S
O201   C1      1.302   1_655 S
O204   C18     1.314   1_655 S
C207   O209    1.396   .     S
C207   O208    1.222   .     D
O209   H210    1.013   .     S
C211   O212    1.219   .     D
C211   O213    1.398   .     S
O213   H214    1.013   .     S
H217   C24     1.083   1_655 S
C221   O223    1.400   .     S
C221   O222    1.222   .     D
O223   H224    1.014   .     S
C225   O227    1.400   .     S
C225   O226    1.222   .     D
O227   H228    1.014   .     S
C229   O230    1.222   .     D
C229   O231    1.399   .     S
O231   H232    1.013   .     S
C233   O234    1.222   .     D
C233   O235    1.399   .     S
O235   H236    1.014   .     S
C241   C252    1.445   .     S
C241   O279    1.301   .     A
C241   O441    1.302   1_455 S
C242   C251    1.446   .     S
C242   O280    1.301   .     A
C242   O362    1.302   .     S
C243   C301    1.496   .     S
C243   C245    1.414   .     A
C243   C272    1.405   .     A
C244   C305    1.498   .     S
C244   C246    1.408   .     A
C244   C271    1.400   .     A
C245   C287    1.472   .     S
C245   C989    1.420   1_554 S
C246   C291    1.468   .     S
C246   C990    1.423   .     S
C247   C309    1.489   .     S
C247   C332    1.413   .     S
C248   C313    1.488   .     S
C248   C490    1.391   .     S
C248   C411    1.413   1_455 S
C249   H317    1.085   .     S
C249   C251    1.398   .     A
C249   C487    1.392   .     S
C250   H318    1.085   .     S
C250   C252    1.399   .     A
C251   C328    1.413   .     S
C252   C407    1.413   1_455 S
C253   H275    1.082   .     S
C253   N278    1.371   .     A
C253   C255    1.428   .     A
C254   C256    1.428   .     A
C254   N277    1.371   .     A
C254   H276    1.082   .     S
C255   N277    1.372   .     A
C255   H319    1.082   .     S
C256   H320    1.082   .     S
C256   N278    1.372   .     A
C257   O285    1.306   .     A
C257   C259    1.478   .     S
C257   O363    1.314   .     S
C258   C260    1.477   .     S
C258   O286    1.306   .     A
C258   O444    1.314   1_455 S
C259   C263    1.391   .     A
C259   C265    1.401   .     A
C260   C264    1.393   .     A
C260   C266    1.402   .     A
C261   C263    1.398   .     A
C261   C269    1.403   .     A
C261   H299    1.066   .     S
C262   H300    1.069   .     S
C262   C270    1.408   .     A
C262   C264    1.398   .     A
C263   H378    1.081   .     S
C264   H457    1.083   1_455 S
C265   H296    1.076   .     S
C265   C267    1.417   .     A
C266   H295    1.075   .     S
C266   C268    1.414   .     A
C267   C269    1.414   .     A
C267   C271    1.419   .     A
C268   C272    1.423   .     A
C268   C270    1.418   .     A
C269   C965    1.420   .     S
C270   C966    1.423   1_554 S
C271   C992    1.412   .     S
C272   C991    1.412   1_554 S
Cu273  O279    1.955   .     S
Cu273  O282    1.955   .     S
Cu273  O286    1.891   .     S
Cu273  O283    1.875   .     S
Cu273  N277    2.042   .     S
Cu273  Cu434   2.718   1_455 S
Cu274  O280    1.955   .     S
Cu274  O281    1.955   .     S
Cu274  O284    1.875   .     S
Cu274  O285    1.891   .     S
Cu274  N278    2.042   .     S
Cu274  Cu353   2.718   .     S
O281   C321    1.302   .     S
O282   C402    1.302   1_455 S
O283   C417    1.314   1_455 S
O284   C338    1.314   .     S
C287   O289    1.396   .     S
C287   O288    1.222   .     D
O289   H290    1.013   .     S
C291   O292    1.219   .     D
C291   O293    1.398   .     S
O293   H294    1.013   .     S
H297   C344    1.083   .     S
H298   C423    1.081   1_455 S
C301   O303    1.400   .     S
C301   O302    1.222   .     D
O303   H304    1.014   .     S
C305   O307    1.400   .     S
C305   O306    1.222   .     D
O307   H308    1.014   .     S
C309   O310    1.222   .     D
C309   O311    1.399   .     S
O311   H312    1.013   .     S
C313   O314    1.222   .     D
C313   O315    1.399   .     S
O315   H316    1.014   .     S
C321   C332    1.445   .     S
C321   O359    1.301   .     A
C322   C331    1.446   .     S
C322   O360    1.301   .     A
C322   O442    1.302   .     S
C323   C381    1.496   .     S
C323   C325    1.414   .     A
C323   C352    1.405   .     A
C324   C385    1.498   .     S
C324   C326    1.408   .     A
C324   C351    1.400   .     A
C325   C367    1.472   .     S
C325   C1069   1.420   1_554 S
C326   C371    1.468   .     S
C326   C1070   1.423   .     S
C327   C389    1.489   .     S
C327   C412    1.413   .     S
C328   C393    1.488   .     S
C328   C570    1.391   .     S
C329   H397    1.085   .     S
C329   C331    1.398   .     A
C329   C567    1.392   .     S
C330   H398    1.085   .     S
C330   C332    1.399   .     A
C331   C408    1.413   .     S
C333   H355    1.082   .     S
C333   N358    1.371   .     A
C333   C335    1.428   .     A
C334   C336    1.428   .     A
C334   N357    1.371   .     A
C334   H356    1.082   .     S
C335   N357    1.372   .     A
C335   H399    1.082   .     S
C336   H400    1.082   .     S
C336   N358    1.372   .     A
C337   O365    1.306   .     A
C337   C339    1.478   .     S
C337   O443    1.314   .     S
C338   C340    1.477   .     S
C338   O366    1.306   .     A
C339   C343    1.391   .     A
C339   C345    1.401   .     A
C340   C344    1.393   .     A
C340   C346    1.402   .     A
C341   C343    1.398   .     A
C341   C349    1.403   .     A
C341   H379    1.066   .     S
C342   H380    1.069   .     S
C342   C350    1.408   .     A
C342   C344    1.398   .     A
C343   H458    1.081   .     S
C345   H376    1.076   .     S
C345   C347    1.417   .     A
C346   H375    1.075   .     S
C346   C348    1.414   .     A
C347   C349    1.414   .     A
C347   C351    1.419   .     A
C348   C352    1.423   .     A
C348   C350    1.418   .     A
C349   C1045   1.420   .     S
C350   C1046   1.423   1_554 S
C351   C1072   1.412   .     S
C352   C1071   1.412   1_554 S
Cu353  O359    1.955   .     S
Cu353  O362    1.955   .     S
Cu353  O366    1.891   .     S
Cu353  O363    1.875   .     S
Cu353  N357    2.042   .     S
Cu354  O360    1.955   .     S
Cu354  O361    1.955   .     S
Cu354  O364    1.875   .     S
Cu354  O365    1.891   .     S
Cu354  N358    2.042   .     S
Cu354  Cu433   2.718   .     S
O361   C401    1.302   .     S
O364   C418    1.314   .     S
C367   O369    1.396   .     S
C367   O368    1.222   .     D
O369   H370    1.013   .     S
C371   O372    1.219   .     D
C371   O373    1.398   .     S
O373   H374    1.013   .     S
H377   C424    1.083   .     S
C381   O383    1.400   .     S
C381   O382    1.222   .     D
O383   H384    1.014   .     S
C385   O387    1.400   .     S
C385   O386    1.222   .     D
O387   H388    1.014   .     S
C389   O390    1.222   .     D
C389   O391    1.399   .     S
O391   H392    1.013   .     S
C393   O394    1.222   .     D
C393   O395    1.399   .     S
O395   H396    1.014   .     S
C401   C412    1.445   .     S
C401   O439    1.301   .     A
C402   C411    1.446   .     S
C402   O440    1.301   .     A
C402   O282    1.302   1_655 S
C403   C461    1.496   .     S
C403   C405    1.414   .     A
C403   C432    1.405   .     A
C404   C465    1.498   .     S
C404   C406    1.408   .     A
C404   C431    1.400   .     A
C405   C447    1.472   .     S
C405   C1149   1.420   1_554 S
C406   C451    1.468   .     S
C406   C1150   1.423   .     S
C407   C469    1.489   .     S
C407   C252    1.413   1_655 S
C408   C473    1.488   .     S
C408   C650    1.391   .     S
C409   H477    1.085   .     S
C409   C411    1.398   .     A
C409   C647    1.392   .     S
C410   H478    1.085   .     S
C410   C412    1.399   .     A
C411   C248    1.413   1_655 S
C413   H435    1.082   .     S
C413   N438    1.371   .     A
C413   C415    1.428   .     A
C414   C416    1.428   .     A
C414   N437    1.371   .     A
C414   H436    1.082   .     S
C415   N437    1.372   .     A
C415   H479    1.082   .     S
C416   H480    1.082   .     S
C416   N438    1.372   .     A
C417   O445    1.306   .     A
C417   C419    1.478   .     S
C417   O283    1.314   1_655 S
C418   C420    1.477   .     S
C418   O446    1.306   .     A
C419   C423    1.391   .     A
C419   C425    1.401   .     A
C420   C424    1.393   .     A
C420   C426    1.402   .     A
C421   C423    1.398   .     A
C421   C429    1.403   .     A
C421   H459    1.066   .     S
C422   H460    1.069   .     S
C422   C430    1.408   .     A
C422   C424    1.398   .     A
C423   H298    1.081   1_655 S
C425   H456    1.076   .     S
C425   C427    1.417   .     A
C426   H455    1.075   .     S
C426   C428    1.414   .     A
C427   C429    1.414   .     A
C427   C431    1.419   .     A
C428   C432    1.423   .     A
C428   C430    1.418   .     A
C429   C1125   1.420   .     S
C430   C1126   1.423   1_554 S
C431   C1152   1.412   .     S
C432   C1151   1.412   1_554 S
Cu433  O439    1.955   .     S
Cu433  O442    1.955   .     S
Cu433  O446    1.891   .     S
Cu433  O443    1.875   .     S
Cu433  N437    2.042   .     S
Cu434  O440    1.955   .     S
Cu434  O441    1.955   .     S
Cu434  O444    1.875   .     S
Cu434  O445    1.891   .     S
Cu434  N438    2.042   .     S
Cu434  Cu273   2.718   1_655 S
O441   C241    1.302   1_655 S
O444   C258    1.314   1_655 S
C447   O449    1.396   .     S
C447   O448    1.222   .     D
O449   H450    1.013   .     S
C451   O452    1.219   .     D
C451   O453    1.398   .     S
O453   H454    1.013   .     S
H457   C264    1.083   1_655 S
C461   O463    1.400   .     S
C461   O462    1.222   .     D
O463   H464    1.014   .     S
C465   O467    1.400   .     S
C465   O466    1.222   .     D
O467   H468    1.014   .     S
C469   O470    1.222   .     D
C469   O471    1.399   .     S
O471   H472    1.013   .     S
C473   O474    1.222   .     D
C473   O475    1.399   .     S
O475   H476    1.014   .     S
C481   C492    1.445   .     S
C481   O519    1.301   .     A
C481   O681    1.302   1_455 S
C482   C491    1.446   .     S
C482   O520    1.301   .     A
C482   O602    1.302   .     S
C483   C541    1.496   .     S
C483   C485    1.414   .     A
C483   C512    1.405   .     A
C484   C545    1.498   .     S
C484   C486    1.408   .     A
C484   C511    1.400   .     A
C485   C527    1.472   .     S
C485   C1229   1.420   1_554 S
C486   C531    1.468   .     S
C486   C1230   1.423   .     S
C487   C549    1.489   .     S
C487   C572    1.413   .     S
C488   C553    1.488   .     S
C488   C10     1.391   1_565 S
C488   C651    1.413   1_455 S
C489   H557    1.085   .     S
C489   C491    1.398   .     A
C489   C7      1.392   1_565 S
C490   H558    1.085   .     S
C490   C492    1.399   .     A
C491   C568    1.413   .     S
C492   C647    1.413   1_455 S
C493   H515    1.082   .     S
C493   N518    1.371   .     A
C493   C495    1.428   .     A
C494   C496    1.428   .     A
C494   N517    1.371   .     A
C494   H516    1.082   .     S
C495   N517    1.372   .     A
C495   H559    1.082   .     S
C496   H560    1.082   .     S
C496   N518    1.372   .     A
C497   O525    1.306   .     A
C497   C499    1.478   .     S
C497   O603    1.314   .     S
C498   C500    1.477   .     S
C498   O526    1.306   .     A
C498   O684    1.314   1_455 S
C499   C503    1.391   .     A
C499   C505    1.401   .     A
C500   C504    1.393   .     A
C500   C506    1.402   .     A
C501   C503    1.398   .     A
C501   C509    1.403   .     A
C501   H539    1.066   .     S
C502   H540    1.069   .     S
C502   C510    1.408   .     A
C502   C504    1.398   .     A
C503   H618    1.081   .     S
C504   H697    1.083   1_455 S
C505   H536    1.076   .     S
C505   C507    1.417   .     A
C506   H535    1.075   .     S
C506   C508    1.414   .     A
C507   C509    1.414   .     A
C507   C511    1.419   .     A
C508   C512    1.423   .     A
C508   C510    1.418   .     A
C509   C1205   1.420   .     S
C510   C1206   1.423   1_554 S
C511   C1232   1.412   .     S
C512   C1231   1.412   1_554 S
Cu513  O519    1.955   .     S
Cu513  O522    1.955   .     S
Cu513  O526    1.891   .     S
Cu513  O523    1.875   .     S
Cu513  N517    2.042   .     S
Cu513  Cu674   2.718   1_455 S
Cu514  O520    1.955   .     S
Cu514  O521    1.955   .     S
Cu514  O524    1.875   .     S
Cu514  O525    1.891   .     S
Cu514  N518    2.042   .     S
Cu514  Cu593   2.718   .     S
O521   C561    1.302   .     S
O522   C642    1.302   1_455 S
O523   C657    1.314   1_455 S
O524   C578    1.314   .     S
C527   O529    1.396   .     S
C527   O528    1.222   .     D
O529   H530    1.013   .     S
C531   O532    1.219   .     D
C531   O533    1.398   .     S
O533   H534    1.013   .     S
H537   C584    1.083   .     S
H538   C663    1.081   1_455 S
C541   O543    1.400   .     S
C541   O542    1.222   .     D
O543   H544    1.014   .     S
C545   O547    1.400   .     S
C545   O546    1.222   .     D
O547   H548    1.014   .     S
C549   O550    1.222   .     D
C549   O551    1.399   .     S
O551   H552    1.013   .     S
C553   O554    1.222   .     D
C553   O555    1.399   .     S
O555   H556    1.014   .     S
C561   C572    1.445   .     S
C561   O599    1.301   .     A
C562   C571    1.446   .     S
C562   O600    1.301   .     A
C562   O682    1.302   .     S
C563   C621    1.496   .     S
C563   C565    1.414   .     A
C563   C592    1.405   .     A
C564   C625    1.498   .     S
C564   C566    1.408   .     A
C564   C591    1.400   .     A
C565   C607    1.472   .     S
C565   C1309   1.420   1_554 S
C566   C611    1.468   .     S
C566   C1310   1.423   .     S
C567   C629    1.489   .     S
C567   C652    1.413   .     S
C568   C633    1.488   .     S
C568   C90     1.391   1_565 S
C569   H637    1.085   .     S
C569   C571    1.398   .     A
C569   C87     1.392   1_565 S
C570   H638    1.085   .     S
C570   C572    1.399   .     A
C571   C648    1.413   .     S
C573   H595    1.082   .     S
C573   N598    1.371   .     A
C573   C575    1.428   .     A
C574   C576    1.428   .     A
C574   N597    1.371   .     A
C574   H596    1.082   .     S
C575   N597    1.372   .     A
C575   H639    1.082   .     S
C576   H640    1.082   .     S
C576   N598    1.372   .     A
C577   O605    1.306   .     A
C577   C579    1.478   .     S
C577   O683    1.314   .     S
C578   C580    1.477   .     S
C578   O606    1.306   .     A
C579   C583    1.391   .     A
C579   C585    1.401   .     A
C580   C584    1.393   .     A
C580   C586    1.402   .     A
C581   C583    1.398   .     A
C581   C589    1.403   .     A
C581   H619    1.066   .     S
C582   H620    1.069   .     S
C582   C590    1.408   .     A
C582   C584    1.398   .     A
C583   H698    1.081   .     S
C585   H616    1.076   .     S
C585   C587    1.417   .     A
C586   H615    1.075   .     S
C586   C588    1.414   .     A
C587   C589    1.414   .     A
C587   C591    1.419   .     A
C588   C592    1.423   .     A
C588   C590    1.418   .     A
C589   C1285   1.420   .     S
C590   C1286   1.423   1_554 S
C591   C1312   1.412   .     S
C592   C1311   1.412   1_554 S
Cu593  O599    1.955   .     S
Cu593  O602    1.955   .     S
Cu593  O606    1.891   .     S
Cu593  O603    1.875   .     S
Cu593  N597    2.042   .     S
Cu594  O600    1.955   .     S
Cu594  O601    1.955   .     S
Cu594  O604    1.875   .     S
Cu594  O605    1.891   .     S
Cu594  N598    2.042   .     S
Cu594  Cu673   2.718   .     S
O601   C641    1.302   .     S
O604   C658    1.314   .     S
C607   O609    1.396   .     S
C607   O608    1.222   .     D
O609   H610    1.013   .     S
C611   O612    1.219   .     D
C611   O613    1.398   .     S
O613   H614    1.013   .     S
H617   C664    1.083   .     S
C621   O623    1.400   .     S
C621   O622    1.222   .     D
O623   H624    1.014   .     S
C625   O627    1.400   .     S
C625   O626    1.222   .     D
O627   H628    1.014   .     S
C629   O630    1.222   .     D
C629   O631    1.399   .     S
O631   H632    1.013   .     S
C633   O634    1.222   .     D
C633   O635    1.399   .     S
O635   H636    1.014   .     S
C641   C652    1.445   .     S
C641   O679    1.301   .     A
C642   C651    1.446   .     S
C642   O680    1.301   .     A
C642   O522    1.302   1_655 S
C643   C701    1.496   .     S
C643   C645    1.414   .     A
C643   C672    1.405   .     A
C644   C705    1.498   .     S
C644   C646    1.408   .     A
C644   C671    1.400   .     A
C645   C687    1.472   .     S
C645   C1389   1.420   1_554 S
C646   C691    1.468   .     S
C646   C1390   1.423   .     S
C647   C709    1.489   .     S
C647   C492    1.413   1_655 S
C648   C713    1.488   .     S
C648   C170    1.391   1_565 S
C649   H717    1.085   .     S
C649   C651    1.398   .     A
C649   C167    1.392   1_565 S
C650   H718    1.085   .     S
C650   C652    1.399   .     A
C651   C488    1.413   1_655 S
C653   H675    1.082   .     S
C653   N678    1.371   .     A
C653   C655    1.428   .     A
C654   C656    1.428   .     A
C654   N677    1.371   .     A
C654   H676    1.082   .     S
C655   N677    1.372   .     A
C655   H719    1.082   .     S
C656   H720    1.082   .     S
C656   N678    1.372   .     A
C657   O685    1.306   .     A
C657   C659    1.478   .     S
C657   O523    1.314   1_655 S
C658   C660    1.477   .     S
C658   O686    1.306   .     A
C659   C663    1.391   .     A
C659   C665    1.401   .     A
C660   C664    1.393   .     A
C660   C666    1.402   .     A
C661   C663    1.398   .     A
C661   C669    1.403   .     A
C661   H699    1.066   .     S
C662   H700    1.069   .     S
C662   C670    1.408   .     A
C662   C664    1.398   .     A
C663   H538    1.081   1_655 S
C665   H696    1.076   .     S
C665   C667    1.417   .     A
C666   H695    1.075   .     S
C666   C668    1.414   .     A
C667   C669    1.414   .     A
C667   C671    1.419   .     A
C668   C672    1.423   .     A
C668   C670    1.418   .     A
C669   C1365   1.420   .     S
C670   C1366   1.423   1_554 S
C671   C1392   1.412   .     S
C672   C1391   1.412   1_554 S
Cu673  O679    1.955   .     S
Cu673  O682    1.955   .     S
Cu673  O686    1.891   .     S
Cu673  O683    1.875   .     S
Cu673  N677    2.042   .     S
Cu674  O680    1.955   .     S
Cu674  O681    1.955   .     S
Cu674  O684    1.875   .     S
Cu674  O685    1.891   .     S
Cu674  N678    2.042   .     S
Cu674  Cu513   2.718   1_655 S
O681   C481    1.302   1_655 S
O684   C498    1.314   1_655 S
C687   O689    1.396   .     S
C687   O688    1.222   .     D
O689   H690    1.013   .     S
C691   O692    1.219   .     D
C691   O693    1.398   .     S
O693   H694    1.013   .     S
H697   C504    1.083   1_655 S
C701   O703    1.400   .     S
C701   O702    1.222   .     D
O703   H704    1.014   .     S
C705   O707    1.400   .     S
C705   O706    1.222   .     D
O707   H708    1.014   .     S
C709   O710    1.222   .     D
C709   O711    1.399   .     S
O711   H712    1.013   .     S
C713   O714    1.222   .     D
C713   O715    1.399   .     S
O715   H716    1.014   .     S
C721   C732    1.445   .     S
C721   O759    1.301   .     A
C721   O921    1.302   1_455 S
C722   C731    1.446   .     S
C722   O760    1.301   .     A
C722   O842    1.302   .     S
C723   C781    1.496   .     S
C723   C725    1.414   .     A
C723   C752    1.405   .     A
C724   C785    1.498   .     S
C724   C726    1.408   .     A
C724   C751    1.400   .     A
C725   C767    1.472   .     S
C726   C771    1.468   .     S
C726   C30     1.423   1_556 S
C727   C789    1.489   .     S
C727   C1209   1.392   1_545 S
C727   C812    1.413   .     S
C728   C793    1.488   .     S
C728   C970    1.391   .     S
C728   C891    1.413   1_455 S
C729   H797    1.085   .     S
C729   C731    1.398   .     A
C729   C967    1.392   .     S
C730   H798    1.085   .     S
C730   C732    1.399   .     A
C730   C1208   1.391   1_545 S
C731   C808    1.413   .     S
C732   C887    1.413   1_455 S
C733   H755    1.082   .     S
C733   N758    1.371   .     A
C733   C735    1.428   .     A
C734   C736    1.428   .     A
C734   N757    1.371   .     A
C734   H756    1.082   .     S
C735   N757    1.372   .     A
C735   H799    1.082   .     S
C736   H800    1.082   .     S
C736   N758    1.372   .     A
C737   O765    1.306   .     A
C737   C739    1.478   .     S
C737   O843    1.314   .     S
C738   C740    1.477   .     S
C738   O766    1.306   .     A
C738   O924    1.314   1_455 S
C739   C743    1.391   .     A
C739   C745    1.401   .     A
C740   C744    1.393   .     A
C740   C746    1.402   .     A
C741   C743    1.398   .     A
C741   C749    1.403   .     A
C741   H779    1.066   .     S
C742   H780    1.069   .     S
C742   C750    1.408   .     A
C742   C744    1.398   .     A
C743   H858    1.081   .     S
C744   H937    1.083   1_455 S
C745   H776    1.076   .     S
C745   C747    1.417   .     A
C746   H775    1.075   .     S
C746   C748    1.414   .     A
C747   C749    1.414   .     A
C747   C751    1.419   .     A
C748   C752    1.423   .     A
C748   C750    1.418   .     A
C749   C5      1.420   1_556 S
C751   C32     1.412   1_556 S
Cu753  O759    1.955   .     S
Cu753  O762    1.955   .     S
Cu753  O766    1.891   .     S
Cu753  O763    1.875   .     S
Cu753  N757    2.042   .     S
Cu753  Cu914   2.718   1_455 S
Cu754  O760    1.955   .     S
Cu754  O761    1.955   .     S
Cu754  O764    1.875   .     S
Cu754  O765    1.891   .     S
Cu754  N758    2.042   .     S
Cu754  Cu833   2.718   .     S
O761   C801    1.302   .     S
O762   C882    1.302   1_455 S
O763   C897    1.314   1_455 S
O764   C818    1.314   .     S
C767   O769    1.396   .     S
C767   O768    1.222   .     D
O769   H770    1.013   .     S
C771   O772    1.219   .     D
C771   O773    1.398   .     S
O773   H774    1.013   .     S
H777   C824    1.083   .     S
H778   C903    1.081   1_455 S
C781   O783    1.400   .     S
C781   O782    1.222   .     D
O783   H784    1.014   .     S
C785   O787    1.400   .     S
C785   O786    1.222   .     D
O787   H788    1.014   .     S
C789   O790    1.222   .     D
C789   O791    1.399   .     S
O791   H792    1.013   .     S
C793   O794    1.222   .     D
C793   O795    1.399   .     S
O795   H796    1.014   .     S
C801   C812    1.445   .     S
C801   O839    1.301   .     A
C802   C811    1.446   .     S
C802   O840    1.301   .     A
C802   O922    1.302   .     S
C803   C861    1.496   .     S
C803   C805    1.414   .     A
C803   C832    1.405   .     A
C804   C865    1.498   .     S
C804   C806    1.408   .     A
C804   C831    1.400   .     A
C805   C847    1.472   .     S
C806   C851    1.468   .     S
C806   C110    1.423   1_556 S
C807   C869    1.489   .     S
C807   C1289   1.392   1_545 S
C807   C892    1.413   .     S
C808   C873    1.488   .     S
C808   C1050   1.391   .     S
C809   H877    1.085   .     S
C809   C811    1.398   .     A
C809   C1047   1.392   .     S
C810   H878    1.085   .     S
C810   C812    1.399   .     A
C810   C1288   1.391   1_545 S
C811   C888    1.413   .     S
C813   H835    1.082   .     S
C813   N838    1.371   .     A
C813   C815    1.428   .     A
C814   C816    1.428   .     A
C814   N837    1.371   .     A
C814   H836    1.082   .     S
C815   N837    1.372   .     A
C815   H879    1.082   .     S
C816   H880    1.082   .     S
C816   N838    1.372   .     A
C817   O845    1.306   .     A
C817   C819    1.478   .     S
C817   O923    1.314   .     S
C818   C820    1.477   .     S
C818   O846    1.306   .     A
C819   C823    1.391   .     A
C819   C825    1.401   .     A
C820   C824    1.393   .     A
C820   C826    1.402   .     A
C821   C823    1.398   .     A
C821   C829    1.403   .     A
C821   H859    1.066   .     S
C822   H860    1.069   .     S
C822   C830    1.408   .     A
C822   C824    1.398   .     A
C823   H938    1.081   .     S
C825   H856    1.076   .     S
C825   C827    1.417   .     A
C826   H855    1.075   .     S
C826   C828    1.414   .     A
C827   C829    1.414   .     A
C827   C831    1.419   .     A
C828   C832    1.423   .     A
C828   C830    1.418   .     A
C829   C85     1.420   1_556 S
C831   C112    1.412   1_556 S
Cu833  O839    1.955   .     S
Cu833  O842    1.955   .     S
Cu833  O846    1.891   .     S
Cu833  O843    1.875   .     S
Cu833  N837    2.042   .     S
Cu834  O840    1.955   .     S
Cu834  O841    1.955   .     S
Cu834  O844    1.875   .     S
Cu834  O845    1.891   .     S
Cu834  N838    2.042   .     S
Cu834  Cu913   2.718   .     S
O841   C881    1.302   .     S
O844   C898    1.314   .     S
C847   O849    1.396   .     S
C847   O848    1.222   .     D
O849   H850    1.013   .     S
C851   O852    1.219   .     D
C851   O853    1.398   .     S
O853   H854    1.013   .     S
H857   C904    1.083   .     S
C861   O863    1.400   .     S
C861   O862    1.222   .     D
O863   H864    1.014   .     S
C865   O867    1.400   .     S
C865   O866    1.222   .     D
O867   H868    1.014   .     S
C869   O870    1.222   .     D
C869   O871    1.399   .     S
O871   H872    1.013   .     S
C873   O874    1.222   .     D
C873   O875    1.399   .     S
O875   H876    1.014   .     S
C881   C892    1.445   .     S
C881   O919    1.301   .     A
C882   C891    1.446   .     S
C882   O920    1.301   .     A
C882   O762    1.302   1_655 S
C883   C941    1.496   .     S
C883   C885    1.414   .     A
C883   C912    1.405   .     A
C884   C945    1.498   .     S
C884   C886    1.408   .     A
C884   C911    1.400   .     A
C885   C927    1.472   .     S
C886   C931    1.468   .     S
C886   C190    1.423   1_556 S
C887   C949    1.489   .     S
C887   C1369   1.392   1_545 S
C887   C732    1.413   1_655 S
C888   C953    1.488   .     S
C888   C1130   1.391   .     S
C889   H957    1.085   .     S
C889   C891    1.398   .     A
C889   C1127   1.392   .     S
C890   H958    1.085   .     S
C890   C892    1.399   .     A
C890   C1368   1.391   1_545 S
C891   C728    1.413   1_655 S
C893   H915    1.082   .     S
C893   N918    1.371   .     A
C893   C895    1.428   .     A
C894   C896    1.428   .     A
C894   N917    1.371   .     A
C894   H916    1.082   .     S
C895   N917    1.372   .     A
C895   H959    1.082   .     S
C896   H960    1.082   .     S
C896   N918    1.372   .     A
C897   O925    1.306   .     A
C897   C899    1.478   .     S
C897   O763    1.314   1_655 S
C898   C900    1.477   .     S
C898   O926    1.306   .     A
C899   C903    1.391   .     A
C899   C905    1.401   .     A
C900   C904    1.393   .     A
C900   C906    1.402   .     A
C901   C903    1.398   .     A
C901   C909    1.403   .     A
C901   H939    1.066   .     S
C902   H940    1.069   .     S
C902   C910    1.408   .     A
C902   C904    1.398   .     A
C903   H778    1.081   1_655 S
C905   H936    1.076   .     S
C905   C907    1.417   .     A
C906   H935    1.075   .     S
C906   C908    1.414   .     A
C907   C909    1.414   .     A
C907   C911    1.419   .     A
C908   C912    1.423   .     A
C908   C910    1.418   .     A
C909   C165    1.420   1_556 S
C911   C192    1.412   1_556 S
Cu913  O919    1.955   .     S
Cu913  O922    1.955   .     S
Cu913  O926    1.891   .     S
Cu913  O923    1.875   .     S
Cu913  N917    2.042   .     S
Cu914  O920    1.955   .     S
Cu914  O921    1.955   .     S
Cu914  O924    1.875   .     S
Cu914  O925    1.891   .     S
Cu914  N918    2.042   .     S
Cu914  Cu753   2.718   1_655 S
O921   C721    1.302   1_655 S
O924   C738    1.314   1_655 S
C927   O929    1.396   .     S
C927   O928    1.222   .     D
O929   H930    1.013   .     S
C931   O932    1.219   .     D
C931   O933    1.398   .     S
O933   H934    1.013   .     S
H937   C744    1.083   1_655 S
C941   O943    1.400   .     S
C941   O942    1.222   .     D
O943   H944    1.014   .     S
C945   O947    1.400   .     S
C945   O946    1.222   .     D
O947   H948    1.014   .     S
C949   O950    1.222   .     D
C949   O951    1.399   .     S
O951   H952    1.013   .     S
C953   O954    1.222   .     D
C953   O955    1.399   .     S
O955   H956    1.014   .     S
C961   C972    1.445   .     S
C961   O999    1.301   .     A
C961   O1161   1.302   1_455 S
C962   C971    1.446   .     S
C962   O1000   1.301   .     A
C962   O1082   1.302   .     S
C963   C1021   1.496   .     S
C963   C965    1.414   .     A
C963   C992    1.405   .     A
C964   C1025   1.498   .     S
C964   C966    1.408   .     A
C964   C991    1.400   .     A
C965   C1007   1.472   .     S
C966   C1011   1.468   .     S
C966   C270    1.423   1_556 S
C967   C1029   1.489   .     S
C967   C1052   1.413   .     S
C968   C1033   1.488   .     S
C968   C1210   1.391   .     S
C968   C1131   1.413   1_455 S
C969   H1037   1.085   .     S
C969   C971    1.398   .     A
C969   C1207   1.392   .     S
C970   H1038   1.085   .     S
C970   C972    1.399   .     A
C971   C1048   1.413   .     S
C972   C1127   1.413   1_455 S
C973   H995    1.082   .     S
C973   N998    1.371   .     A
C973   C975    1.428   .     A
C974   C976    1.428   .     A
C974   N997    1.371   .     A
C974   H996    1.082   .     S
C975   N997    1.372   .     A
C975   H1039   1.082   .     S
C976   H1040   1.082   .     S
C976   N998    1.372   .     A
C977   O1005   1.306   .     A
C977   C979    1.478   .     S
C977   O1083   1.314   .     S
C978   C980    1.477   .     S
C978   O1006   1.306   .     A
C978   O1164   1.314   1_455 S
C979   C983    1.391   .     A
C979   C985    1.401   .     A
C980   C984    1.393   .     A
C980   C986    1.402   .     A
C981   C983    1.398   .     A
C981   C989    1.403   .     A
C981   H1019   1.066   .     S
C982   H1020   1.069   .     S
C982   C990    1.408   .     A
C982   C984    1.398   .     A
C983   H1098   1.081   .     S
C984   H1177   1.083   1_455 S
C985   H1016   1.076   .     S
C985   C987    1.417   .     A
C986   H1015   1.075   .     S
C986   C988    1.414   .     A
C987   C989    1.414   .     A
C987   C991    1.419   .     A
C988   C992    1.423   .     A
C988   C990    1.418   .     A
C989   C245    1.420   1_556 S
C991   C272    1.412   1_556 S
Cu993  O999    1.955   .     S
Cu993  O1002   1.955   .     S
Cu993  O1006   1.891   .     S
Cu993  O1003   1.875   .     S
Cu993  N997    2.042   .     S
Cu993  Cu1154  2.718   1_455 S
Cu994  O1000   1.955   .     S
Cu994  O1001   1.955   .     S
Cu994  O1004   1.875   .     S
Cu994  O1005   1.891   .     S
Cu994  N998    2.042   .     S
Cu994  Cu1073  2.718   .     S
O1001  C1041   1.302   .     S
O1002  C1122   1.302   1_455 S
O1003  C1137   1.314   1_455 S
O1004  C1058   1.314   .     S
C1007  O1009   1.396   .     S
C1007  O1008   1.222   .     D
O1009  H1010   1.013   .     S
C1011  O1012   1.219   .     D
C1011  O1013   1.398   .     S
O1013  H1014   1.013   .     S
H1017  C1064   1.083   .     S
H1018  C1143   1.081   1_455 S
C1021  O1023   1.400   .     S
C1021  O1022   1.222   .     D
O1023  H1024   1.014   .     S
C1025  O1027   1.400   .     S
C1025  O1026   1.222   .     D
O1027  H1028   1.014   .     S
C1029  O1030   1.222   .     D
C1029  O1031   1.399   .     S
O1031  H1032   1.013   .     S
C1033  O1034   1.222   .     D
C1033  O1035   1.399   .     S
O1035  H1036   1.014   .     S
C1041  C1052   1.445   .     S
C1041  O1079   1.301   .     A
C1042  C1051   1.446   .     S
C1042  O1080   1.301   .     A
C1042  O1162   1.302   .     S
C1043  C1101   1.496   .     S
C1043  C1045   1.414   .     A
C1043  C1072   1.405   .     A
C1044  C1105   1.498   .     S
C1044  C1046   1.408   .     A
C1044  C1071   1.400   .     A
C1045  C1087   1.472   .     S
C1046  C1091   1.468   .     S
C1046  C350    1.423   1_556 S
C1047  C1109   1.489   .     S
C1047  C1132   1.413   .     S
C1048  C1113   1.488   .     S
C1048  C1290   1.391   .     S
C1049  H1117   1.085   .     S
C1049  C1051   1.398   .     A
C1049  C1287   1.392   .     S
C1050  H1118   1.085   .     S
C1050  C1052   1.399   .     A
C1051  C1128   1.413   .     S
C1053  H1075   1.082   .     S
C1053  N1078   1.371   .     A
C1053  C1055   1.428   .     A
C1054  C1056   1.428   .     A
C1054  N1077   1.371   .     A
C1054  H1076   1.082   .     S
C1055  N1077   1.372   .     A
C1055  H1119   1.082   .     S
C1056  H1120   1.082   .     S
C1056  N1078   1.372   .     A
C1057  O1085   1.306   .     A
C1057  C1059   1.478   .     S
C1057  O1163   1.314   .     S
C1058  C1060   1.477   .     S
C1058  O1086   1.306   .     A
C1059  C1063   1.391   .     A
C1059  C1065   1.401   .     A
C1060  C1064   1.393   .     A
C1060  C1066   1.402   .     A
C1061  C1063   1.398   .     A
C1061  C1069   1.403   .     A
C1061  H1099   1.066   .     S
C1062  H1100   1.069   .     S
C1062  C1070   1.408   .     A
C1062  C1064   1.398   .     A
C1063  H1178   1.081   .     S
C1065  H1096   1.076   .     S
C1065  C1067   1.417   .     A
C1066  H1095   1.075   .     S
C1066  C1068   1.414   .     A
C1067  C1069   1.414   .     A
C1067  C1071   1.419   .     A
C1068  C1072   1.423   .     A
C1068  C1070   1.418   .     A
C1069  C325    1.420   1_556 S
C1071  C352    1.412   1_556 S
Cu1073 O1079   1.955   .     S
Cu1073 O1082   1.955   .     S
Cu1073 O1086   1.891   .     S
Cu1073 O1083   1.875   .     S
Cu1073 N1077   2.042   .     S
Cu1074 O1080   1.955   .     S
Cu1074 O1081   1.955   .     S
Cu1074 O1084   1.875   .     S
Cu1074 O1085   1.891   .     S
Cu1074 N1078   2.042   .     S
Cu1074 Cu1153  2.718   .     S
O1081  C1121   1.302   .     S
O1084  C1138   1.314   .     S
C1087  O1089   1.396   .     S
C1087  O1088   1.222   .     D
O1089  H1090   1.013   .     S
C1091  O1092   1.219   .     D
C1091  O1093   1.398   .     S
O1093  H1094   1.013   .     S
H1097  C1144   1.083   .     S
C1101  O1103   1.400   .     S
C1101  O1102   1.222   .     D
O1103  H1104   1.014   .     S
C1105  O1107   1.400   .     S
C1105  O1106   1.222   .     D
O1107  H1108   1.014   .     S
C1109  O1110   1.222   .     D
C1109  O1111   1.399   .     S
O1111  H1112   1.013   .     S
C1113  O1114   1.222   .     D
C1113  O1115   1.399   .     S
O1115  H1116   1.014   .     S
C1121  C1132   1.445   .     S
C1121  O1159   1.301   .     A
C1122  C1131   1.446   .     S
C1122  O1160   1.301   .     A
C1122  O1002   1.302   1_655 S
C1123  C1181   1.496   .     S
C1123  C1125   1.414   .     A
C1123  C1152   1.405   .     A
C1124  C1185   1.498   .     S
C1124  C1126   1.408   .     A
C1124  C1151   1.400   .     A
C1125  C1167   1.472   .     S
C1126  C1171   1.468   .     S
C1126  C430    1.423   1_556 S
C1127  C1189   1.489   .     S
C1127  C972    1.413   1_655 S
C1128  C1193   1.488   .     S
C1128  C1370   1.391   .     S
C1129  H1197   1.085   .     S
C1129  C1131   1.398   .     A
C1129  C1367   1.392   .     S
C1130  H1198   1.085   .     S
C1130  C1132   1.399   .     A
C1131  C968    1.413   1_655 S
C1133  H1155   1.082   .     S
C1133  N1158   1.371   .     A
C1133  C1135   1.428   .     A
C1134  C1136   1.428   .     A
C1134  N1157   1.371   .     A
C1134  H1156   1.082   .     S
C1135  N1157   1.372   .     A
C1135  H1199   1.082   .     S
C1136  H1200   1.082   .     S
C1136  N1158   1.372   .     A
C1137  O1165   1.306   .     A
C1137  C1139   1.478   .     S
C1137  O1003   1.314   1_655 S
C1138  C1140   1.477   .     S
C1138  O1166   1.306   .     A
C1139  C1143   1.391   .     A
C1139  C1145   1.401   .     A
C1140  C1144   1.393   .     A
C1140  C1146   1.402   .     A
C1141  C1143   1.398   .     A
C1141  C1149   1.403   .     A
C1141  H1179   1.066   .     S
C1142  H1180   1.069   .     S
C1142  C1150   1.408   .     A
C1142  C1144   1.398   .     A
C1143  H1018   1.081   1_655 S
C1145  H1176   1.076   .     S
C1145  C1147   1.417   .     A
C1146  H1175   1.075   .     S
C1146  C1148   1.414   .     A
C1147  C1149   1.414   .     A
C1147  C1151   1.419   .     A
C1148  C1152   1.423   .     A
C1148  C1150   1.418   .     A
C1149  C405    1.420   1_556 S
C1151  C432    1.412   1_556 S
Cu1153 O1159   1.955   .     S
Cu1153 O1162   1.955   .     S
Cu1153 O1166   1.891   .     S
Cu1153 O1163   1.875   .     S
Cu1153 N1157   2.042   .     S
Cu1154 O1160   1.955   .     S
Cu1154 O1161   1.955   .     S
Cu1154 O1164   1.875   .     S
Cu1154 O1165   1.891   .     S
Cu1154 N1158   2.042   .     S
Cu1154 Cu993   2.718   1_655 S
O1161  C961    1.302   1_655 S
O1164  C978    1.314   1_655 S
C1167  O1169   1.396   .     S
C1167  O1168   1.222   .     D
O1169  H1170   1.013   .     S
C1171  O1172   1.219   .     D
C1171  O1173   1.398   .     S
O1173  H1174   1.013   .     S
H1177  C984    1.083   1_655 S
C1181  O1183   1.400   .     S
C1181  O1182   1.222   .     D
O1183  H1184   1.014   .     S
C1185  O1187   1.400   .     S
C1185  O1186   1.222   .     D
O1187  H1188   1.014   .     S
C1189  O1190   1.222   .     D
C1189  O1191   1.399   .     S
O1191  H1192   1.013   .     S
C1193  O1194   1.222   .     D
C1193  O1195   1.399   .     S
O1195  H1196   1.014   .     S
C1201  C1212   1.445   .     S
C1201  O1239   1.301   .     A
C1201  O1401   1.302   1_455 S
C1202  C1211   1.446   .     S
C1202  O1240   1.301   .     A
C1202  O1322   1.302   .     S
C1203  C1261   1.496   .     S
C1203  C1205   1.414   .     A
C1203  C1232   1.405   .     A
C1204  C1265   1.498   .     S
C1204  C1206   1.408   .     A
C1204  C1231   1.400   .     A
C1205  C1247   1.472   .     S
C1206  C1251   1.468   .     S
C1206  C510    1.423   1_556 S
C1207  C1269   1.489   .     S
C1207  C1292   1.413   .     S
C1208  C1273   1.488   .     S
C1208  C730    1.391   1_565 S
C1208  C1371   1.413   1_455 S
C1209  H1277   1.085   .     S
C1209  C1211   1.398   .     A
C1209  C727    1.392   1_565 S
C1210  H1278   1.085   .     S
C1210  C1212   1.399   .     A
C1211  C1288   1.413   .     S
C1212  C1367   1.413   1_455 S
C1213  H1235   1.082   .     S
C1213  N1238   1.371   .     A
C1213  C1215   1.428   .     A
C1214  C1216   1.428   .     A
C1214  N1237   1.371   .     A
C1214  H1236   1.082   .     S
C1215  N1237   1.372   .     A
C1215  H1279   1.082   .     S
C1216  H1280   1.082   .     S
C1216  N1238   1.372   .     A
C1217  O1245   1.306   .     A
C1217  C1219   1.478   .     S
C1217  O1323   1.314   .     S
C1218  C1220   1.477   .     S
C1218  O1246   1.306   .     A
C1218  O1404   1.314   1_455 S
C1219  C1223   1.391   .     A
C1219  C1225   1.401   .     A
C1220  C1224   1.393   .     A
C1220  C1226   1.402   .     A
C1221  C1223   1.398   .     A
C1221  C1229   1.403   .     A
C1221  H1259   1.066   .     S
C1222  H1260   1.069   .     S
C1222  C1230   1.408   .     A
C1222  C1224   1.398   .     A
C1223  H1338   1.081   .     S
C1224  H1417   1.083   1_455 S
C1225  H1256   1.076   .     S
C1225  C1227   1.417   .     A
C1226  H1255   1.075   .     S
C1226  C1228   1.414   .     A
C1227  C1229   1.414   .     A
C1227  C1231   1.419   .     A
C1228  C1232   1.423   .     A
C1228  C1230   1.418   .     A
C1229  C485    1.420   1_556 S
C1231  C512    1.412   1_556 S
Cu1233 O1239   1.955   .     S
Cu1233 O1242   1.955   .     S
Cu1233 O1246   1.891   .     S
Cu1233 O1243   1.875   .     S
Cu1233 N1237   2.042   .     S
Cu1233 Cu1394  2.718   1_455 S
Cu1234 O1240   1.955   .     S
Cu1234 O1241   1.955   .     S
Cu1234 O1244   1.875   .     S
Cu1234 O1245   1.891   .     S
Cu1234 N1238   2.042   .     S
Cu1234 Cu1313  2.718   .     S
O1241  C1281   1.302   .     S
O1242  C1362   1.302   1_455 S
O1243  C1377   1.314   1_455 S
O1244  C1298   1.314   .     S
C1247  O1249   1.396   .     S
C1247  O1248   1.222   .     D
O1249  H1250   1.013   .     S
C1251  O1252   1.219   .     D
C1251  O1253   1.398   .     S
O1253  H1254   1.013   .     S
H1257  C1304   1.083   .     S
H1258  C1383   1.081   1_455 S
C1261  O1263   1.400   .     S
C1261  O1262   1.222   .     D
O1263  H1264   1.014   .     S
C1265  O1267   1.400   .     S
C1265  O1266   1.222   .     D
O1267  H1268   1.014   .     S
C1269  O1270   1.222   .     D
C1269  O1271   1.399   .     S
O1271  H1272   1.013   .     S
C1273  O1274   1.222   .     D
C1273  O1275   1.399   .     S
O1275  H1276   1.014   .     S
C1281  C1292   1.445   .     S
C1281  O1319   1.301   .     A
C1282  C1291   1.446   .     S
C1282  O1320   1.301   .     A
C1282  O1402   1.302   .     S
C1283  C1341   1.496   .     S
C1283  C1285   1.414   .     A
C1283  C1312   1.405   .     A
C1284  C1345   1.498   .     S
C1284  C1286   1.408   .     A
C1284  C1311   1.400   .     A
C1285  C1327   1.472   .     S
C1286  C1331   1.468   .     S
C1286  C590    1.423   1_556 S
C1287  C1349   1.489   .     S
C1287  C1372   1.413   .     S
C1288  C1353   1.488   .     S
C1288  C810    1.391   1_565 S
C1289  H1357   1.085   .     S
C1289  C1291   1.398   .     A
C1289  C807    1.392   1_565 S
C1290  H1358   1.085   .     S
C1290  C1292   1.399   .     A
C1291  C1368   1.413   .     S
C1293  H1315   1.082   .     S
C1293  N1318   1.371   .     A
C1293  C1295   1.428   .     A
C1294  C1296   1.428   .     A
C1294  N1317   1.371   .     A
C1294  H1316   1.082   .     S
C1295  N1317   1.372   .     A
C1295  H1359   1.082   .     S
C1296  H1360   1.082   .     S
C1296  N1318   1.372   .     A
C1297  O1325   1.306   .     A
C1297  C1299   1.478   .     S
C1297  O1403   1.314   .     S
C1298  C1300   1.477   .     S
C1298  O1326   1.306   .     A
C1299  C1303   1.391   .     A
C1299  C1305   1.401   .     A
C1300  C1304   1.393   .     A
C1300  C1306   1.402   .     A
C1301  C1303   1.398   .     A
C1301  C1309   1.403   .     A
C1301  H1339   1.066   .     S
C1302  H1340   1.069   .     S
C1302  C1310   1.408   .     A
C1302  C1304   1.398   .     A
C1303  H1418   1.081   .     S
C1305  H1336   1.076   .     S
C1305  C1307   1.417   .     A
C1306  H1335   1.075   .     S
C1306  C1308   1.414   .     A
C1307  C1309   1.414   .     A
C1307  C1311   1.419   .     A
C1308  C1312   1.423   .     A
C1308  C1310   1.418   .     A
C1309  C565    1.420   1_556 S
C1311  C592    1.412   1_556 S
Cu1313 O1319   1.955   .     S
Cu1313 O1322   1.955   .     S
Cu1313 O1326   1.891   .     S
Cu1313 O1323   1.875   .     S
Cu1313 N1317   2.042   .     S
Cu1314 O1320   1.955   .     S
Cu1314 O1321   1.955   .     S
Cu1314 O1324   1.875   .     S
Cu1314 O1325   1.891   .     S
Cu1314 N1318   2.042   .     S
Cu1314 Cu1393  2.718   .     S
O1321  C1361   1.302   .     S
O1324  C1378   1.314   .     S
C1327  O1329   1.396   .     S
C1327  O1328   1.222   .     D
O1329  H1330   1.013   .     S
C1331  O1332   1.219   .     D
C1331  O1333   1.398   .     S
O1333  H1334   1.013   .     S
H1337  C1384   1.083   .     S
C1341  O1343   1.400   .     S
C1341  O1342   1.222   .     D
O1343  H1344   1.014   .     S
C1345  O1347   1.400   .     S
C1345  O1346   1.222   .     D
O1347  H1348   1.014   .     S
C1349  O1350   1.222   .     D
C1349  O1351   1.399   .     S
O1351  H1352   1.013   .     S
C1353  O1354   1.222   .     D
C1353  O1355   1.399   .     S
O1355  H1356   1.014   .     S
C1361  C1372   1.445   .     S
C1361  O1399   1.301   .     A
C1362  C1371   1.446   .     S
C1362  O1400   1.301   .     A
C1362  O1242   1.302   1_655 S
C1363  C1421   1.496   .     S
C1363  C1365   1.414   .     A
C1363  C1392   1.405   .     A
C1364  C1425   1.498   .     S
C1364  C1366   1.408   .     A
C1364  C1391   1.400   .     A
C1365  C1407   1.472   .     S
C1366  C1411   1.468   .     S
C1366  C670    1.423   1_556 S
C1367  C1429   1.489   .     S
C1367  C1212   1.413   1_655 S
C1368  C1433   1.488   .     S
C1368  C890    1.391   1_565 S
C1369  H1437   1.085   .     S
C1369  C1371   1.398   .     A
C1369  C887    1.392   1_565 S
C1370  H1438   1.085   .     S
C1370  C1372   1.399   .     A
C1371  C1208   1.413   1_655 S
C1373  H1395   1.082   .     S
C1373  N1398   1.371   .     A
C1373  C1375   1.428   .     A
C1374  C1376   1.428   .     A
C1374  N1397   1.371   .     A
C1374  H1396   1.082   .     S
C1375  N1397   1.372   .     A
C1375  H1439   1.082   .     S
C1376  H1440   1.082   .     S
C1376  N1398   1.372   .     A
C1377  O1405   1.306   .     A
C1377  C1379   1.478   .     S
C1377  O1243   1.314   1_655 S
C1378  C1380   1.477   .     S
C1378  O1406   1.306   .     A
C1379  C1383   1.391   .     A
C1379  C1385   1.401   .     A
C1380  C1384   1.393   .     A
C1380  C1386   1.402   .     A
C1381  C1383   1.398   .     A
C1381  C1389   1.403   .     A
C1381  H1419   1.066   .     S
C1382  H1420   1.069   .     S
C1382  C1390   1.408   .     A
C1382  C1384   1.398   .     A
C1383  H1258   1.081   1_655 S
C1385  H1416   1.076   .     S
C1385  C1387   1.417   .     A
C1386  H1415   1.075   .     S
C1386  C1388   1.414   .     A
C1387  C1389   1.414   .     A
C1387  C1391   1.419   .     A
C1388  C1392   1.423   .     A
C1388  C1390   1.418   .     A
C1389  C645    1.420   1_556 S
C1391  C672    1.412   1_556 S
Cu1393 O1399   1.955   .     S
Cu1393 O1402   1.955   .     S
Cu1393 O1406   1.891   .     S
Cu1393 O1403   1.875   .     S
Cu1393 N1397   2.042   .     S
Cu1394 O1400   1.955   .     S
Cu1394 O1401   1.955   .     S
Cu1394 O1404   1.875   .     S
Cu1394 O1405   1.891   .     S
Cu1394 N1398   2.042   .     S
Cu1394 Cu1233  2.718   1_655 S
O1401  C1201   1.302   1_655 S
O1404  C1218   1.314   1_655 S
C1407  O1409   1.396   .     S
C1407  O1408   1.222   .     D
O1409  H1410   1.013   .     S
C1411  O1412   1.219   .     D
C1411  O1413   1.398   .     S
O1413  H1414   1.013   .     S
H1417  C1224   1.083   1_655 S
C1421  O1423   1.400   .     S
C1421  O1422   1.222   .     D
O1423  H1424   1.014   .     S
C1425  O1427   1.400   .     S
C1425  O1426   1.222   .     D
O1427  H1428   1.014   .     S
C1429  O1430   1.222   .     D
C1429  O1431   1.399   .     S
O1431  H1432   1.013   .     S
C1433  O1434   1.222   .     D
C1433  O1435   1.399   .     S
O1435  H1436   1.014   .     S
