data_str_m1_o1_o17_pcu_sym.154
_audit_creation_date              2020-01-03
_audit_creation_method            'Materials Studio'
_symmetry_space_group_name_H-M    'P1'
_symmetry_Int_Tables_number       1
_symmetry_cell_setting            triclinic
loop_
_symmetry_equiv_pos_as_xyz
  x,y,z
_cell_length_a                    36.6703
_cell_length_b                    36.6219
_cell_length_c                    34.4152
_cell_angle_alpha                 89.9241
_cell_angle_beta                  89.9442
_cell_angle_gamma                 90.0723
loop_
_atom_site_label
_atom_site_type_symbol
_atom_site_fract_x
_atom_site_fract_y
_atom_site_fract_z
_atom_site_U_iso_or_equiv
_atom_site_adp_type
_atom_site_occupancy
C1     C     0.49055   0.28205   0.41812   0.00000  Uiso   1.00
C2     C     0.00446   0.21705   0.58224   0.00000  Uiso   1.00
C3     C     0.21899   0.01206   0.41821   0.00000  Uiso   1.00
C4     C     0.28297   0.49600   0.58229   0.00000  Uiso   1.00
C5     C     0.01252   0.21919   0.41827   0.00000  Uiso   1.00
C6     C     0.49600   0.28314   0.58231   0.00000  Uiso   1.00
C7     C     0.28193   0.49049   0.41814   0.00000  Uiso   1.00
C8     C     0.21695   0.00433   0.58224   0.00000  Uiso   1.00
C9     C     0.24555   0.03295   0.91776   0.00000  Uiso   1.00
C10    C     0.25944   0.46795   0.08188   0.00000  Uiso   1.00
C11    C     0.46704   0.25402   0.91770   0.00000  Uiso   1.00
C12    C     0.03100   0.23791   0.08178   0.00000  Uiso   1.00
C13    C     0.25399   0.46687   0.91769   0.00000  Uiso   1.00
C14    C     0.23748   0.03081   0.08173   0.00000  Uiso   1.00
C15    C     0.03305   0.24565   0.91776   0.00000  Uiso   1.00
C16    C     0.46809   0.25954   0.08186   0.00000  Uiso   1.00
C17    C     0.00056   0.25023   0.39821   0.00000  Uiso   1.00
C18    C     0.00008   0.25004   0.60210   0.00000  Uiso   1.00
C19    C     0.25015   0.00045   0.39820   0.00000  Uiso   1.00
C20    C     0.24993   0.00008   0.60208   0.00000  Uiso   1.00
C21    C     0.24992   0.49996   0.89790   0.00000  Uiso   1.00
C22    C     0.24943   0.49976   0.10179   0.00000  Uiso   1.00
C23    C     0.00007   0.24992   0.89791   0.00000  Uiso   1.00
C24    C     0.49986   0.24955   0.10180   0.00000  Uiso   1.00
C25    C     0.01379   0.18489   0.48010   0.00000  Uiso   1.00
C26    C     0.48346   0.31477   0.52026   0.00000  Uiso   1.00
C27    C     0.31590   0.48913   0.48034   0.00000  Uiso   1.00
C28    C     0.18567   0.01787   0.52018   0.00000  Uiso   1.00
C29    C     0.48928   0.31613   0.48028   0.00000  Uiso   1.00
C30    C     0.01844   0.18587   0.52027   0.00000  Uiso   1.00
C31    C     0.18472   0.01307   0.48003   0.00000  Uiso   1.00
C32    C     0.31452   0.48330   0.52031   0.00000  Uiso   1.00
C33    C     0.26653   0.43523   0.97974   0.00000  Uiso   1.00
C34    C     0.23622   0.06511   0.01990   0.00000  Uiso   1.00
C35    C     0.06431   0.23208   0.97982   0.00000  Uiso   1.00
C36    C     0.43411   0.26092   0.01966   0.00000  Uiso   1.00
C37    C     0.23157   0.06413   0.97973   0.00000  Uiso   1.00
C38    C     0.26071   0.43387   0.01972   0.00000  Uiso   1.00
C39    C     0.43550   0.26674   0.97969   0.00000  Uiso   1.00
C40    C     0.06527   0.23687   0.01997   0.00000  Uiso   1.00
C41    C     0.24990   0.00006   0.35582   0.00000  Uiso   1.00
C42    C     0.24991   0.00002   0.64429   0.00000  Uiso   1.00
C43    C     0.00008   0.24992   0.35582   0.00000  Uiso   1.00
C44    C     0.00002   0.24995   0.64430   0.00000  Uiso   1.00
C45    C     0.00009   0.24998   0.85571   0.00000  Uiso   1.00
C46    C     0.00010   0.24994   0.14418   0.00000  Uiso   1.00
C47    C     0.24998   0.00005   0.85570   0.00000  Uiso   1.00
C48    C     0.24992   0.00008   0.14418   0.00000  Uiso   1.00
C49    C     0.18007   0.07009   0.24986   0.00000  Uiso   1.00
C50    C     0.32001   0.42998   0.74999   0.00000  Uiso   1.00
C51    C     0.43003   0.17994   0.25005   0.00000  Uiso   1.00
C52    C     0.07002   0.32001   0.75000   0.00000  Uiso   1.00
C53    C     0.32004   0.42995   0.25001   0.00000  Uiso   1.00
C54    C     0.17998   0.07003   0.74998   0.00000  Uiso   1.00
C55    C     0.06999   0.32003   0.24999   0.00000  Uiso   1.00
C56    C     0.43001   0.17996   0.75001   0.00000  Uiso   1.00
C57    C     0.17998   0.42999   0.75000   0.00000  Uiso   1.00
C58    C     0.31997   0.07006   0.24996   0.00000  Uiso   1.00
C59    C     0.42999   0.32002   0.75001   0.00000  Uiso   1.00
C60    C     0.06993   0.17991   0.25014   0.00000  Uiso   1.00
C61    C     0.31999   0.07004   0.74999   0.00000  Uiso   1.00
C62    C     0.18001   0.42997   0.25001   0.00000  Uiso   1.00
C63    C     0.07002   0.17997   0.75002   0.00000  Uiso   1.00
C64    C     0.42997   0.32005   0.24999   0.00000  Uiso   1.00
C65    C     0.14477   0.38231   0.21569   0.00000  Uiso   1.00
C66    C     0.35887   0.11409   0.78534   0.00000  Uiso   1.00
C67    C     0.09397   0.12076   0.27370   0.00000  Uiso   1.00
C68    C     0.41124   0.38430   0.74044   0.00000  Uiso   1.00
C69    C     0.38471   0.08810   0.25551   0.00000  Uiso   1.00
C70    C     0.14102   0.38588   0.78535   0.00000  Uiso   1.00
C71    C     0.39573   0.36895   0.21602   0.00000  Uiso   1.00
C72    C     0.08875   0.11570   0.74057   0.00000  Uiso   1.00
C73    C     0.11577   0.08870   0.74053   0.00000  Uiso   1.00
C74    C     0.36890   0.39575   0.21602   0.00000  Uiso   1.00
C75    C     0.11404   0.35890   0.78535   0.00000  Uiso   1.00
C76    C     0.41175   0.11504   0.25534   0.00000  Uiso   1.00
C77    C     0.38423   0.41130   0.74041   0.00000  Uiso   1.00
C78    C     0.12088   0.09362   0.27334   0.00000  Uiso   1.00
C79    C     0.38590   0.14101   0.78536   0.00000  Uiso   1.00
C80    C     0.11771   0.35532   0.21567   0.00000  Uiso   1.00
C81    C     0.39113   0.13592   0.71466   0.00000  Uiso   1.00
C82    C     0.10523   0.36769   0.28431   0.00000  Uiso   1.00
C83    C     0.33876   0.36570   0.75956   0.00000  Uiso   1.00
C84    C     0.15603   0.12924   0.22630   0.00000  Uiso   1.00
C85    C     0.10898   0.36412   0.71465   0.00000  Uiso   1.00
C86    C     0.36530   0.16190   0.24449   0.00000  Uiso   1.00
C87    C     0.16125   0.13430   0.75943   0.00000  Uiso   1.00
C88    C     0.35428   0.38107   0.28399   0.00000  Uiso   1.00
C89    C     0.38110   0.35425   0.28398   0.00000  Uiso   1.00
C90    C     0.13423   0.16130   0.75947   0.00000  Uiso   1.00
C91    C     0.33825   0.13496   0.24466   0.00000  Uiso   1.00
C92    C     0.13596   0.39109   0.71465   0.00000  Uiso   1.00
C93    C     0.12912   0.15638   0.22666   0.00000  Uiso   1.00
C94    C     0.36577   0.33870   0.75959   0.00000  Uiso   1.00
C95    C     0.13229   0.39468   0.28433   0.00000  Uiso   1.00
C96    C     0.36410   0.10900   0.71464   0.00000  Uiso   1.00
C97    C     0.00872   0.21765   0.45906   0.00000  Uiso   1.00
C98    C     0.49270   0.28302   0.54143   0.00000  Uiso   1.00
C99    C     0.28328   0.49397   0.45904   0.00000  Uiso   1.00
C100   C     0.21724   0.00819   0.54138   0.00000  Uiso   1.00
C101   C     0.49413   0.28346   0.45902   0.00000  Uiso   1.00
C102   C     0.00850   0.21741   0.54141   0.00000  Uiso   1.00
C103   C     0.21746   0.00823   0.45900   0.00000  Uiso   1.00
C104   C     0.28282   0.49257   0.54143   0.00000  Uiso   1.00
C105   C     0.25729   0.46698   0.95857   0.00000  Uiso   1.00
C106   C     0.24128   0.03235   0.04094   0.00000  Uiso   1.00
C107   C     0.03275   0.24178   0.95862   0.00000  Uiso   1.00
C108   C     0.46673   0.25605   0.04095   0.00000  Uiso   1.00
C109   C     0.24151   0.03259   0.95859   0.00000  Uiso   1.00
C110   C     0.25586   0.46654   0.04098   0.00000  Uiso   1.00
C111   C     0.46719   0.25745   0.95857   0.00000  Uiso   1.00
C112   C     0.03253   0.24174   0.04099   0.00000  Uiso   1.00
C113   C     0.09804   0.34813   0.24997   0.00000  Uiso   1.00
C114   C     0.40197   0.15186   0.75002   0.00000  Uiso   1.00
C115   C     0.15192   0.09809   0.24984   0.00000  Uiso   1.00
C116   C     0.34808   0.40190   0.74997   0.00000  Uiso   1.00
C117   C     0.40196   0.15188   0.24996   0.00000  Uiso   1.00
C118   C     0.09809   0.34808   0.75000   0.00000  Uiso   1.00
C119   C     0.34808   0.40190   0.25001   0.00000  Uiso   1.00
C120   C     0.15192   0.09811   0.74996   0.00000  Uiso   1.00
C121   C     0.09808   0.15190   0.75004   0.00000  Uiso   1.00
C122   C     0.40192   0.34810   0.25000   0.00000  Uiso   1.00
C123   C     0.15192   0.40192   0.75000   0.00000  Uiso   1.00
C124   C     0.34804   0.09812   0.25004   0.00000  Uiso   1.00
C125   C     0.40192   0.34810   0.75003   0.00000  Uiso   1.00
C126   C     0.09808   0.15191   0.25016   0.00000  Uiso   1.00
C127   C     0.34803   0.09814   0.74998   0.00000  Uiso   1.00
C128   C     0.15196   0.40187   0.25002   0.00000  Uiso   1.00
C129   C     0.00109   0.25044   0.47962   0.00000  Uiso   1.00
C130   C     0.00076   0.25029   0.52084   0.00000  Uiso   1.00
C131   C     0.25026   0.00080   0.47960   0.00000  Uiso   1.00
C132   C     0.25010   0.00051   0.52082   0.00000  Uiso   1.00
C133   C     0.24924   0.49971   0.97916   0.00000  Uiso   1.00
C134   C     0.24891   0.49956   0.02038   0.00000  Uiso   1.00
C135   C     0.49990   0.24948   0.97917   0.00000  Uiso   1.00
C136   C     0.49974   0.24920   0.02039   0.00000  Uiso   1.00
O137   O     0.25000   0.00000   0.25000   0.00000  Uiso   1.00
O138   O     0.25000   0.00000   0.75000   0.00000  Uiso   1.00
O139   O     0.00000   0.25000   0.25000   0.00000  Uiso   1.00
O140   O     0.00000   0.25000   0.75000   0.00000  Uiso   1.00
O141   O     0.25000   0.46964   0.33755   0.00000  Uiso   1.00
O142   O     0.25000   0.03037   0.66245   0.00000  Uiso   1.00
O143   O     0.03037   0.25000   0.33755   0.00000  Uiso   1.00
O144   O     0.46964   0.25000   0.66245   0.00000  Uiso   1.00
O145   O     0.25000   0.03037   0.33755   0.00000  Uiso   1.00
O146   O     0.25000   0.46964   0.66245   0.00000  Uiso   1.00
O147   O     0.46964   0.25000   0.33755   0.00000  Uiso   1.00
O148   O     0.03037   0.25000   0.66245   0.00000  Uiso   1.00
O149   O     0.00000   0.21964   0.83755   0.00000  Uiso   1.00
O150   O     0.00000   0.28037   0.16245   0.00000  Uiso   1.00
O151   O     0.28037   0.00000   0.83755   0.00000  Uiso   1.00
O152   O     0.21964   0.00000   0.16245   0.00000  Uiso   1.00
O153   O     0.00000   0.28037   0.83755   0.00000  Uiso   1.00
O154   O     0.00000   0.21964   0.16245   0.00000  Uiso   1.00
O155   O     0.21964   0.00000   0.83755   0.00000  Uiso   1.00
O156   O     0.28037   0.00000   0.16245   0.00000  Uiso   1.00
O157   O     0.20725   0.07308   0.27302   0.00000  Uiso   1.00
O158   O     0.29276   0.42693   0.72698   0.00000  Uiso   1.00
O159   O     0.42693   0.20725   0.27302   0.00000  Uiso   1.00
O160   O     0.07308   0.29276   0.72698   0.00000  Uiso   1.00
O161   O     0.29276   0.42693   0.27302   0.00000  Uiso   1.00
O162   O     0.20725   0.07308   0.72698   0.00000  Uiso   1.00
O163   O     0.07308   0.29276   0.27302   0.00000  Uiso   1.00
O164   O     0.42693   0.20725   0.72698   0.00000  Uiso   1.00
O165   O     0.20725   0.42693   0.72698   0.00000  Uiso   1.00
O166   O     0.29276   0.07308   0.27302   0.00000  Uiso   1.00
O167   O     0.42693   0.29276   0.72698   0.00000  Uiso   1.00
O168   O     0.07308   0.20725   0.27302   0.00000  Uiso   1.00
O169   O     0.29276   0.07308   0.72698   0.00000  Uiso   1.00
O170   O     0.20725   0.42693   0.27302   0.00000  Uiso   1.00
O171   O     0.07308   0.20725   0.72698   0.00000  Uiso   1.00
O172   O     0.42693   0.29276   0.27302   0.00000  Uiso   1.00
O173   O     0.45725   0.32308   0.77302   0.00000  Uiso   1.00
O174   O     0.04276   0.17693   0.22698   0.00000  Uiso   1.00
O175   O     0.17693   0.45725   0.77302   0.00000  Uiso   1.00
O176   O     0.32308   0.04276   0.22698   0.00000  Uiso   1.00
O177   O     0.04276   0.17693   0.77302   0.00000  Uiso   1.00
O178   O     0.45725   0.32308   0.22698   0.00000  Uiso   1.00
O179   O     0.32308   0.04276   0.77302   0.00000  Uiso   1.00
O180   O     0.17693   0.45725   0.22698   0.00000  Uiso   1.00
O181   O     0.45725   0.17693   0.22698   0.00000  Uiso   1.00
O182   O     0.04276   0.32308   0.77302   0.00000  Uiso   1.00
O183   O     0.17693   0.04276   0.22698   0.00000  Uiso   1.00
O184   O     0.32308   0.45725   0.77302   0.00000  Uiso   1.00
O185   O     0.04276   0.32308   0.22698   0.00000  Uiso   1.00
O186   O     0.45725   0.17693   0.77302   0.00000  Uiso   1.00
O187   O     0.32308   0.45725   0.22698   0.00000  Uiso   1.00
O188   O     0.17693   0.04276   0.77302   0.00000  Uiso   1.00
Zn189  Zn    0.20660   0.00000   0.21735   0.00000  Uiso   1.00
Zn190  Zn    0.29341   0.00000   0.78265   0.00000  Uiso   1.00
Zn191  Zn    0.00000   0.20660   0.21735   0.00000  Uiso   1.00
Zn192  Zn    0.00000   0.29341   0.78265   0.00000  Uiso   1.00
Zn193  Zn    0.29341   0.00000   0.21735   0.00000  Uiso   1.00
Zn194  Zn    0.20660   0.00000   0.78265   0.00000  Uiso   1.00
Zn195  Zn    0.00000   0.29341   0.21735   0.00000  Uiso   1.00
Zn196  Zn    0.00000   0.20660   0.78265   0.00000  Uiso   1.00
Zn197  Zn    0.45660   0.25000   0.71735   0.00000  Uiso   1.00
Zn198  Zn    0.04341   0.25000   0.28265   0.00000  Uiso   1.00
Zn199  Zn    0.25000   0.45660   0.71735   0.00000  Uiso   1.00
Zn200  Zn    0.25000   0.04341   0.28265   0.00000  Uiso   1.00
Zn201  Zn    0.04341   0.25000   0.71735   0.00000  Uiso   1.00
Zn202  Zn    0.45660   0.25000   0.28265   0.00000  Uiso   1.00
Zn203  Zn    0.25000   0.04341   0.71735   0.00000  Uiso   1.00
Zn204  Zn    0.25000   0.45660   0.28265   0.00000  Uiso   1.00
Br205  Br    0.00488   0.13710   0.45804   0.00000  Uiso   1.00
Br206  Br    0.45387   0.35374   0.54135   0.00000  Uiso   1.00
Br207  Br    0.36383   0.00025   0.45985   0.00000  Uiso   1.00
Br208  Br    0.14636   0.04672   0.54170   0.00000  Uiso   1.00
Br209  Br    0.00039   0.36408   0.45968   0.00000  Uiso   1.00
Br210  Br    0.04744   0.14673   0.54197   0.00000  Uiso   1.00
Br211  Br    0.13707   0.00359   0.45802   0.00000  Uiso   1.00
Br212  Br    0.35338   0.45361   0.54148   0.00000  Uiso   1.00
Br213  Br    0.29612   0.39626   0.95864   0.00000  Uiso   1.00
Br214  Br    0.24514   0.11290   0.04196   0.00000  Uiso   1.00
Br215  Br    0.10360   0.20319   0.95829   0.00000  Uiso   1.00
Br216  Br    0.38619   0.24983   0.04017   0.00000  Uiso   1.00
Br217  Br    0.20257   0.10328   0.95803   0.00000  Uiso   1.00
Br218  Br    0.24959   0.38592   0.04031   0.00000  Uiso   1.00
Br219  Br    0.39665   0.29644   0.95852   0.00000  Uiso   1.00
Br220  Br    0.11292   0.24632   0.04198   0.00000  Uiso   1.00
Br221  Br    0.17309   0.39129   0.16924   0.00000  Uiso   1.00
Br222  Br    0.33556   0.10067   0.83367   0.00000  Uiso   1.00
Br223  Br    0.05201   0.11573   0.30700   0.00000  Uiso   1.00
Br224  Br    0.46061   0.39655   0.72559   0.00000  Uiso   1.00
Br225  Br    0.39778   0.03779   0.26552   0.00000  Uiso   1.00
Br226  Br    0.16419   0.39924   0.83370   0.00000  Uiso   1.00
Br227  Br    0.42236   0.36106   0.16791   0.00000  Uiso   1.00
Br228  Br    0.03938   0.10345   0.72588   0.00000  Uiso   1.00
Br229  Br    0.10361   0.03927   0.72578   0.00000  Uiso   1.00
Br230  Br    0.36095   0.42238   0.16789   0.00000  Uiso   1.00
Br231  Br    0.10055   0.33566   0.83371   0.00000  Uiso   1.00
Br232  Br    0.46187   0.10142   0.26423   0.00000  Uiso   1.00
Br233  Br    0.39638   0.46074   0.72552   0.00000  Uiso   1.00
Br234  Br    0.11523   0.05020   0.30463   0.00000  Uiso   1.00
Br235  Br    0.39930   0.16415   0.83371   0.00000  Uiso   1.00
Br236  Br    0.10885   0.32701   0.16925   0.00000  Uiso   1.00
Br237  Br    0.41443   0.14934   0.66633   0.00000  Uiso   1.00
Br238  Br    0.07690   0.35871   0.33076   0.00000  Uiso   1.00
Br239  Br    0.28940   0.35345   0.77442   0.00000  Uiso   1.00
Br240  Br    0.19799   0.13427   0.19300   0.00000  Uiso   1.00
Br241  Br    0.08580   0.35077   0.66631   0.00000  Uiso   1.00
Br242  Br    0.35222   0.21221   0.23448   0.00000  Uiso   1.00
Br243  Br    0.21062   0.14655   0.77411   0.00000  Uiso   1.00
Br244  Br    0.32771   0.38902   0.33212   0.00000  Uiso   1.00
Br245  Br    0.38901   0.32758   0.33210   0.00000  Uiso   1.00
Br246  Br    0.14639   0.21074   0.77421   0.00000  Uiso   1.00
Br247  Br    0.28813   0.14858   0.23577   0.00000  Uiso   1.00
Br248  Br    0.14946   0.41433   0.66629   0.00000  Uiso   1.00
Br249  Br    0.13478   0.19980   0.19538   0.00000  Uiso   1.00
Br250  Br    0.35362   0.28926   0.77448   0.00000  Uiso   1.00
Br251  Br    0.14116   0.42298   0.33075   0.00000  Uiso   1.00
Br252  Br    0.35070   0.08585   0.66629   0.00000  Uiso   1.00
Br253  Br    0.46865   0.32092   0.38799   0.00000  Uiso   1.00
Br254  Br    0.49799   0.17260   0.61218   0.00000  Uiso   1.00
Br255  Br    0.18255   0.03907   0.38914   0.00000  Uiso   1.00
Br256  Br    0.32725   0.00209   0.61241   0.00000  Uiso   1.00
Br257  Br    0.04010   0.18309   0.38936   0.00000  Uiso   1.00
Br258  Br    0.00192   0.32744   0.61252   0.00000  Uiso   1.00
Br259  Br    0.32082   0.46870   0.38802   0.00000  Uiso   1.00
Br260  Br    0.17263   0.49796   0.61230   0.00000  Uiso   1.00
Br261  Br    0.25200   0.07740   0.88781   0.00000  Uiso   1.00
Br262  Br    0.28131   0.42907   0.11202   0.00000  Uiso   1.00
Br263  Br    0.42275   0.24795   0.88759   0.00000  Uiso   1.00
Br264  Br    0.06741   0.21087   0.11086   0.00000  Uiso   1.00
Br265  Br    0.24807   0.42256   0.88748   0.00000  Uiso   1.00
Br266  Br    0.20990   0.06692   0.11064   0.00000  Uiso   1.00
Br267  Br    0.07738   0.25199   0.88769   0.00000  Uiso   1.00
Br268  Br    0.42922   0.28140   0.11197   0.00000  Uiso   1.00
C269   C     0.99055   0.28205   0.41812   0.00000  Uiso   1.00
C270   C     0.50446   0.21705   0.58224   0.00000  Uiso   1.00
C271   C     0.71899   0.01206   0.41821   0.00000  Uiso   1.00
C272   C     0.78297   0.49600   0.58229   0.00000  Uiso   1.00
C273   C     0.51252   0.21919   0.41827   0.00000  Uiso   1.00
C274   C     0.99600   0.28314   0.58231   0.00000  Uiso   1.00
C275   C     0.78193   0.49049   0.41814   0.00000  Uiso   1.00
C276   C     0.71695   0.00433   0.58224   0.00000  Uiso   1.00
C277   C     0.74555   0.03295   0.91776   0.00000  Uiso   1.00
C278   C     0.75944   0.46795   0.08188   0.00000  Uiso   1.00
C279   C     0.96704   0.25402   0.91770   0.00000  Uiso   1.00
C280   C     0.53100   0.23791   0.08178   0.00000  Uiso   1.00
C281   C     0.75399   0.46687   0.91769   0.00000  Uiso   1.00
C282   C     0.73748   0.03081   0.08173   0.00000  Uiso   1.00
C283   C     0.53305   0.24565   0.91776   0.00000  Uiso   1.00
C284   C     0.96809   0.25954   0.08186   0.00000  Uiso   1.00
C285   C     0.50056   0.25023   0.39821   0.00000  Uiso   1.00
C286   C     0.50008   0.25004   0.60210   0.00000  Uiso   1.00
C287   C     0.75015   0.00045   0.39820   0.00000  Uiso   1.00
C288   C     0.74993   0.00008   0.60208   0.00000  Uiso   1.00
C289   C     0.74992   0.49996   0.89790   0.00000  Uiso   1.00
C290   C     0.74943   0.49976   0.10179   0.00000  Uiso   1.00
C291   C     0.50007   0.24992   0.89791   0.00000  Uiso   1.00
C292   C     0.99986   0.24955   0.10180   0.00000  Uiso   1.00
C293   C     0.51379   0.18489   0.48010   0.00000  Uiso   1.00
C294   C     0.98346   0.31477   0.52026   0.00000  Uiso   1.00
C295   C     0.81590   0.48913   0.48034   0.00000  Uiso   1.00
C296   C     0.68567   0.01787   0.52018   0.00000  Uiso   1.00
C297   C     0.98928   0.31613   0.48028   0.00000  Uiso   1.00
C298   C     0.51844   0.18587   0.52027   0.00000  Uiso   1.00
C299   C     0.68472   0.01307   0.48003   0.00000  Uiso   1.00
C300   C     0.81452   0.48330   0.52031   0.00000  Uiso   1.00
C301   C     0.76653   0.43523   0.97974   0.00000  Uiso   1.00
C302   C     0.73622   0.06511   0.01990   0.00000  Uiso   1.00
C303   C     0.56431   0.23208   0.97982   0.00000  Uiso   1.00
C304   C     0.93411   0.26092   0.01966   0.00000  Uiso   1.00
C305   C     0.73157   0.06413   0.97973   0.00000  Uiso   1.00
C306   C     0.76071   0.43387   0.01972   0.00000  Uiso   1.00
C307   C     0.93550   0.26674   0.97969   0.00000  Uiso   1.00
C308   C     0.56527   0.23687   0.01997   0.00000  Uiso   1.00
C309   C     0.74990   0.00006   0.35582   0.00000  Uiso   1.00
C310   C     0.74991   0.00002   0.64429   0.00000  Uiso   1.00
C311   C     0.50008   0.24992   0.35582   0.00000  Uiso   1.00
C312   C     0.50002   0.24995   0.64430   0.00000  Uiso   1.00
C313   C     0.50009   0.24998   0.85571   0.00000  Uiso   1.00
C314   C     0.50010   0.24994   0.14418   0.00000  Uiso   1.00
C315   C     0.74998   0.00005   0.85570   0.00000  Uiso   1.00
C316   C     0.74992   0.00008   0.14418   0.00000  Uiso   1.00
C317   C     0.68007   0.07009   0.24986   0.00000  Uiso   1.00
C318   C     0.82001   0.42998   0.74999   0.00000  Uiso   1.00
C319   C     0.93003   0.17994   0.25005   0.00000  Uiso   1.00
C320   C     0.57002   0.32001   0.75000   0.00000  Uiso   1.00
C321   C     0.82004   0.42995   0.25001   0.00000  Uiso   1.00
C322   C     0.67998   0.07003   0.74998   0.00000  Uiso   1.00
C323   C     0.56999   0.32003   0.24999   0.00000  Uiso   1.00
C324   C     0.93001   0.17996   0.75001   0.00000  Uiso   1.00
C325   C     0.67998   0.42999   0.75000   0.00000  Uiso   1.00
C326   C     0.81997   0.07006   0.24996   0.00000  Uiso   1.00
C327   C     0.92999   0.32002   0.75001   0.00000  Uiso   1.00
C328   C     0.56993   0.17991   0.25014   0.00000  Uiso   1.00
C329   C     0.81999   0.07004   0.74999   0.00000  Uiso   1.00
C330   C     0.68001   0.42997   0.25001   0.00000  Uiso   1.00
C331   C     0.57002   0.17997   0.75002   0.00000  Uiso   1.00
C332   C     0.92997   0.32005   0.24999   0.00000  Uiso   1.00
C333   C     0.64477   0.38231   0.21569   0.00000  Uiso   1.00
C334   C     0.85887   0.11409   0.78534   0.00000  Uiso   1.00
C335   C     0.59397   0.12076   0.27370   0.00000  Uiso   1.00
C336   C     0.91124   0.38430   0.74044   0.00000  Uiso   1.00
C337   C     0.88471   0.08810   0.25551   0.00000  Uiso   1.00
C338   C     0.64102   0.38588   0.78535   0.00000  Uiso   1.00
C339   C     0.89573   0.36895   0.21602   0.00000  Uiso   1.00
C340   C     0.58875   0.11570   0.74057   0.00000  Uiso   1.00
C341   C     0.61577   0.08870   0.74053   0.00000  Uiso   1.00
C342   C     0.86890   0.39575   0.21602   0.00000  Uiso   1.00
C343   C     0.61404   0.35890   0.78535   0.00000  Uiso   1.00
C344   C     0.91175   0.11504   0.25534   0.00000  Uiso   1.00
C345   C     0.88423   0.41130   0.74041   0.00000  Uiso   1.00
C346   C     0.62088   0.09362   0.27334   0.00000  Uiso   1.00
C347   C     0.88590   0.14101   0.78536   0.00000  Uiso   1.00
C348   C     0.61771   0.35532   0.21567   0.00000  Uiso   1.00
C349   C     0.89113   0.13592   0.71466   0.00000  Uiso   1.00
C350   C     0.60523   0.36769   0.28431   0.00000  Uiso   1.00
C351   C     0.83876   0.36570   0.75956   0.00000  Uiso   1.00
C352   C     0.65603   0.12924   0.22630   0.00000  Uiso   1.00
C353   C     0.60898   0.36412   0.71465   0.00000  Uiso   1.00
C354   C     0.86530   0.16190   0.24449   0.00000  Uiso   1.00
C355   C     0.66125   0.13430   0.75943   0.00000  Uiso   1.00
C356   C     0.85428   0.38107   0.28399   0.00000  Uiso   1.00
C357   C     0.88110   0.35425   0.28398   0.00000  Uiso   1.00
C358   C     0.63423   0.16130   0.75947   0.00000  Uiso   1.00
C359   C     0.83825   0.13496   0.24466   0.00000  Uiso   1.00
C360   C     0.63596   0.39109   0.71465   0.00000  Uiso   1.00
C361   C     0.62912   0.15638   0.22666   0.00000  Uiso   1.00
C362   C     0.86577   0.33870   0.75959   0.00000  Uiso   1.00
C363   C     0.63229   0.39468   0.28433   0.00000  Uiso   1.00
C364   C     0.86410   0.10900   0.71464   0.00000  Uiso   1.00
C365   C     0.50872   0.21765   0.45906   0.00000  Uiso   1.00
C366   C     0.99270   0.28302   0.54143   0.00000  Uiso   1.00
C367   C     0.78328   0.49397   0.45904   0.00000  Uiso   1.00
C368   C     0.71724   0.00819   0.54138   0.00000  Uiso   1.00
C369   C     0.99413   0.28346   0.45902   0.00000  Uiso   1.00
C370   C     0.50850   0.21741   0.54141   0.00000  Uiso   1.00
C371   C     0.71746   0.00823   0.45900   0.00000  Uiso   1.00
C372   C     0.78282   0.49257   0.54143   0.00000  Uiso   1.00
C373   C     0.75729   0.46698   0.95857   0.00000  Uiso   1.00
C374   C     0.74128   0.03235   0.04094   0.00000  Uiso   1.00
C375   C     0.53275   0.24178   0.95862   0.00000  Uiso   1.00
C376   C     0.96673   0.25605   0.04095   0.00000  Uiso   1.00
C377   C     0.74151   0.03259   0.95859   0.00000  Uiso   1.00
C378   C     0.75586   0.46654   0.04098   0.00000  Uiso   1.00
C379   C     0.96719   0.25745   0.95857   0.00000  Uiso   1.00
C380   C     0.53253   0.24174   0.04099   0.00000  Uiso   1.00
C381   C     0.59804   0.34813   0.24997   0.00000  Uiso   1.00
C382   C     0.90197   0.15186   0.75002   0.00000  Uiso   1.00
C383   C     0.65192   0.09809   0.24984   0.00000  Uiso   1.00
C384   C     0.84808   0.40190   0.74997   0.00000  Uiso   1.00
C385   C     0.90196   0.15188   0.24996   0.00000  Uiso   1.00
C386   C     0.59809   0.34808   0.75000   0.00000  Uiso   1.00
C387   C     0.84808   0.40190   0.25001   0.00000  Uiso   1.00
C388   C     0.65192   0.09811   0.74996   0.00000  Uiso   1.00
C389   C     0.59808   0.15190   0.75004   0.00000  Uiso   1.00
C390   C     0.90192   0.34810   0.25000   0.00000  Uiso   1.00
C391   C     0.65192   0.40192   0.75000   0.00000  Uiso   1.00
C392   C     0.84804   0.09812   0.25004   0.00000  Uiso   1.00
C393   C     0.90192   0.34810   0.75003   0.00000  Uiso   1.00
C394   C     0.59808   0.15191   0.25016   0.00000  Uiso   1.00
C395   C     0.84803   0.09814   0.74998   0.00000  Uiso   1.00
C396   C     0.65196   0.40187   0.25002   0.00000  Uiso   1.00
C397   C     0.50109   0.25044   0.47962   0.00000  Uiso   1.00
C398   C     0.50076   0.25029   0.52084   0.00000  Uiso   1.00
C399   C     0.75026   0.00080   0.47960   0.00000  Uiso   1.00
C400   C     0.75010   0.00051   0.52082   0.00000  Uiso   1.00
C401   C     0.74924   0.49971   0.97916   0.00000  Uiso   1.00
C402   C     0.74891   0.49956   0.02038   0.00000  Uiso   1.00
C403   C     0.99990   0.24948   0.97917   0.00000  Uiso   1.00
C404   C     0.99974   0.24920   0.02039   0.00000  Uiso   1.00
O405   O     0.75000   0.00000   0.25000   0.00000  Uiso   1.00
O406   O     0.75000   0.00000   0.75000   0.00000  Uiso   1.00
O407   O     0.50000   0.25000   0.25000   0.00000  Uiso   1.00
O408   O     0.50000   0.25000   0.75000   0.00000  Uiso   1.00
O409   O     0.75000   0.46964   0.33755   0.00000  Uiso   1.00
O410   O     0.75000   0.03037   0.66245   0.00000  Uiso   1.00
O411   O     0.53037   0.25000   0.33755   0.00000  Uiso   1.00
O412   O     0.96964   0.25000   0.66245   0.00000  Uiso   1.00
O413   O     0.75000   0.03037   0.33755   0.00000  Uiso   1.00
O414   O     0.75000   0.46964   0.66245   0.00000  Uiso   1.00
O415   O     0.96964   0.25000   0.33755   0.00000  Uiso   1.00
O416   O     0.53037   0.25000   0.66245   0.00000  Uiso   1.00
O417   O     0.50000   0.21964   0.83755   0.00000  Uiso   1.00
O418   O     0.50000   0.28037   0.16245   0.00000  Uiso   1.00
O419   O     0.78037   0.00000   0.83755   0.00000  Uiso   1.00
O420   O     0.71964   0.00000   0.16245   0.00000  Uiso   1.00
O421   O     0.50000   0.28037   0.83755   0.00000  Uiso   1.00
O422   O     0.50000   0.21964   0.16245   0.00000  Uiso   1.00
O423   O     0.71964   0.00000   0.83755   0.00000  Uiso   1.00
O424   O     0.78037   0.00000   0.16245   0.00000  Uiso   1.00
O425   O     0.70725   0.07308   0.27302   0.00000  Uiso   1.00
O426   O     0.79276   0.42693   0.72698   0.00000  Uiso   1.00
O427   O     0.92693   0.20725   0.27302   0.00000  Uiso   1.00
O428   O     0.57308   0.29276   0.72698   0.00000  Uiso   1.00
O429   O     0.79276   0.42693   0.27302   0.00000  Uiso   1.00
O430   O     0.70725   0.07308   0.72698   0.00000  Uiso   1.00
O431   O     0.57308   0.29276   0.27302   0.00000  Uiso   1.00
O432   O     0.92693   0.20725   0.72698   0.00000  Uiso   1.00
O433   O     0.70725   0.42693   0.72698   0.00000  Uiso   1.00
O434   O     0.79276   0.07308   0.27302   0.00000  Uiso   1.00
O435   O     0.92693   0.29276   0.72698   0.00000  Uiso   1.00
O436   O     0.57308   0.20725   0.27302   0.00000  Uiso   1.00
O437   O     0.79276   0.07308   0.72698   0.00000  Uiso   1.00
O438   O     0.70725   0.42693   0.27302   0.00000  Uiso   1.00
O439   O     0.57308   0.20725   0.72698   0.00000  Uiso   1.00
O440   O     0.92693   0.29276   0.27302   0.00000  Uiso   1.00
O441   O     0.95725   0.32308   0.77302   0.00000  Uiso   1.00
O442   O     0.54276   0.17693   0.22698   0.00000  Uiso   1.00
O443   O     0.67693   0.45725   0.77302   0.00000  Uiso   1.00
O444   O     0.82308   0.04276   0.22698   0.00000  Uiso   1.00
O445   O     0.54276   0.17693   0.77302   0.00000  Uiso   1.00
O446   O     0.95725   0.32308   0.22698   0.00000  Uiso   1.00
O447   O     0.82308   0.04276   0.77302   0.00000  Uiso   1.00
O448   O     0.67693   0.45725   0.22698   0.00000  Uiso   1.00
O449   O     0.95725   0.17693   0.22698   0.00000  Uiso   1.00
O450   O     0.54276   0.32308   0.77302   0.00000  Uiso   1.00
O451   O     0.67693   0.04276   0.22698   0.00000  Uiso   1.00
O452   O     0.82308   0.45725   0.77302   0.00000  Uiso   1.00
O453   O     0.54276   0.32308   0.22698   0.00000  Uiso   1.00
O454   O     0.95725   0.17693   0.77302   0.00000  Uiso   1.00
O455   O     0.82308   0.45725   0.22698   0.00000  Uiso   1.00
O456   O     0.67693   0.04276   0.77302   0.00000  Uiso   1.00
Zn457  Zn    0.70660   0.00000   0.21735   0.00000  Uiso   1.00
Zn458  Zn    0.79341   0.00000   0.78265   0.00000  Uiso   1.00
Zn459  Zn    0.50000   0.20660   0.21735   0.00000  Uiso   1.00
Zn460  Zn    0.50000   0.29341   0.78265   0.00000  Uiso   1.00
Zn461  Zn    0.79341   0.00000   0.21735   0.00000  Uiso   1.00
Zn462  Zn    0.70660   0.00000   0.78265   0.00000  Uiso   1.00
Zn463  Zn    0.50000   0.29341   0.21735   0.00000  Uiso   1.00
Zn464  Zn    0.50000   0.20660   0.78265   0.00000  Uiso   1.00
Zn465  Zn    0.95660   0.25000   0.71735   0.00000  Uiso   1.00
Zn466  Zn    0.54341   0.25000   0.28265   0.00000  Uiso   1.00
Zn467  Zn    0.75000   0.45660   0.71735   0.00000  Uiso   1.00
Zn468  Zn    0.75000   0.04341   0.28265   0.00000  Uiso   1.00
Zn469  Zn    0.54341   0.25000   0.71735   0.00000  Uiso   1.00
Zn470  Zn    0.95660   0.25000   0.28265   0.00000  Uiso   1.00
Zn471  Zn    0.75000   0.04341   0.71735   0.00000  Uiso   1.00
Zn472  Zn    0.75000   0.45660   0.28265   0.00000  Uiso   1.00
Br473  Br    0.50488   0.13710   0.45804   0.00000  Uiso   1.00
Br474  Br    0.95387   0.35374   0.54135   0.00000  Uiso   1.00
Br475  Br    0.86383   0.00025   0.45985   0.00000  Uiso   1.00
Br476  Br    0.64636   0.04672   0.54170   0.00000  Uiso   1.00
Br477  Br    0.50039   0.36408   0.45968   0.00000  Uiso   1.00
Br478  Br    0.54744   0.14673   0.54197   0.00000  Uiso   1.00
Br479  Br    0.63707   0.00359   0.45802   0.00000  Uiso   1.00
Br480  Br    0.85338   0.45361   0.54148   0.00000  Uiso   1.00
Br481  Br    0.79612   0.39626   0.95864   0.00000  Uiso   1.00
Br482  Br    0.74514   0.11290   0.04196   0.00000  Uiso   1.00
Br483  Br    0.60360   0.20319   0.95829   0.00000  Uiso   1.00
Br484  Br    0.88619   0.24983   0.04017   0.00000  Uiso   1.00
Br485  Br    0.70257   0.10328   0.95803   0.00000  Uiso   1.00
Br486  Br    0.74959   0.38592   0.04031   0.00000  Uiso   1.00
Br487  Br    0.89665   0.29644   0.95852   0.00000  Uiso   1.00
Br488  Br    0.61292   0.24632   0.04198   0.00000  Uiso   1.00
Br489  Br    0.67309   0.39129   0.16924   0.00000  Uiso   1.00
Br490  Br    0.83556   0.10067   0.83367   0.00000  Uiso   1.00
Br491  Br    0.55201   0.11573   0.30700   0.00000  Uiso   1.00
Br492  Br    0.96061   0.39655   0.72559   0.00000  Uiso   1.00
Br493  Br    0.89778   0.03779   0.26552   0.00000  Uiso   1.00
Br494  Br    0.66419   0.39924   0.83370   0.00000  Uiso   1.00
Br495  Br    0.92236   0.36106   0.16791   0.00000  Uiso   1.00
Br496  Br    0.53938   0.10345   0.72588   0.00000  Uiso   1.00
Br497  Br    0.60361   0.03927   0.72578   0.00000  Uiso   1.00
Br498  Br    0.86095   0.42238   0.16789   0.00000  Uiso   1.00
Br499  Br    0.60055   0.33566   0.83371   0.00000  Uiso   1.00
Br500  Br    0.96187   0.10142   0.26423   0.00000  Uiso   1.00
Br501  Br    0.89638   0.46074   0.72552   0.00000  Uiso   1.00
Br502  Br    0.61523   0.05020   0.30463   0.00000  Uiso   1.00
Br503  Br    0.89930   0.16415   0.83371   0.00000  Uiso   1.00
Br504  Br    0.60885   0.32701   0.16925   0.00000  Uiso   1.00
Br505  Br    0.91443   0.14934   0.66633   0.00000  Uiso   1.00
Br506  Br    0.57690   0.35871   0.33076   0.00000  Uiso   1.00
Br507  Br    0.78940   0.35345   0.77442   0.00000  Uiso   1.00
Br508  Br    0.69799   0.13427   0.19300   0.00000  Uiso   1.00
Br509  Br    0.58580   0.35077   0.66631   0.00000  Uiso   1.00
Br510  Br    0.85222   0.21221   0.23448   0.00000  Uiso   1.00
Br511  Br    0.71062   0.14655   0.77411   0.00000  Uiso   1.00
Br512  Br    0.82771   0.38902   0.33212   0.00000  Uiso   1.00
Br513  Br    0.88901   0.32758   0.33210   0.00000  Uiso   1.00
Br514  Br    0.64639   0.21074   0.77421   0.00000  Uiso   1.00
Br515  Br    0.78813   0.14858   0.23577   0.00000  Uiso   1.00
Br516  Br    0.64946   0.41433   0.66629   0.00000  Uiso   1.00
Br517  Br    0.63478   0.19980   0.19538   0.00000  Uiso   1.00
Br518  Br    0.85362   0.28926   0.77448   0.00000  Uiso   1.00
Br519  Br    0.64116   0.42298   0.33075   0.00000  Uiso   1.00
Br520  Br    0.85070   0.08585   0.66629   0.00000  Uiso   1.00
Br521  Br    0.96865   0.32092   0.38799   0.00000  Uiso   1.00
Br522  Br    0.99799   0.17260   0.61218   0.00000  Uiso   1.00
Br523  Br    0.68255   0.03907   0.38914   0.00000  Uiso   1.00
Br524  Br    0.82725   0.00209   0.61241   0.00000  Uiso   1.00
Br525  Br    0.54010   0.18309   0.38936   0.00000  Uiso   1.00
Br526  Br    0.50192   0.32744   0.61252   0.00000  Uiso   1.00
Br527  Br    0.82082   0.46870   0.38802   0.00000  Uiso   1.00
Br528  Br    0.67263   0.49796   0.61230   0.00000  Uiso   1.00
Br529  Br    0.75200   0.07740   0.88781   0.00000  Uiso   1.00
Br530  Br    0.78131   0.42907   0.11202   0.00000  Uiso   1.00
Br531  Br    0.92275   0.24795   0.88759   0.00000  Uiso   1.00
Br532  Br    0.56741   0.21087   0.11086   0.00000  Uiso   1.00
Br533  Br    0.74807   0.42256   0.88748   0.00000  Uiso   1.00
Br534  Br    0.70990   0.06692   0.11064   0.00000  Uiso   1.00
Br535  Br    0.57738   0.25199   0.88769   0.00000  Uiso   1.00
Br536  Br    0.92922   0.28140   0.11197   0.00000  Uiso   1.00
C537   C     0.49055   0.78205   0.41812   0.00000  Uiso   1.00
C538   C     0.00446   0.71705   0.58224   0.00000  Uiso   1.00
C539   C     0.21899   0.51206   0.41821   0.00000  Uiso   1.00
C540   C     0.28297   0.99600   0.58229   0.00000  Uiso   1.00
C541   C     0.01252   0.71919   0.41827   0.00000  Uiso   1.00
C542   C     0.49600   0.78314   0.58231   0.00000  Uiso   1.00
C543   C     0.28193   0.99049   0.41814   0.00000  Uiso   1.00
C544   C     0.21695   0.50433   0.58224   0.00000  Uiso   1.00
C545   C     0.24555   0.53295   0.91776   0.00000  Uiso   1.00
C546   C     0.25944   0.96795   0.08188   0.00000  Uiso   1.00
C547   C     0.46704   0.75402   0.91770   0.00000  Uiso   1.00
C548   C     0.03100   0.73791   0.08178   0.00000  Uiso   1.00
C549   C     0.25399   0.96687   0.91769   0.00000  Uiso   1.00
C550   C     0.23748   0.53081   0.08173   0.00000  Uiso   1.00
C551   C     0.03305   0.74565   0.91776   0.00000  Uiso   1.00
C552   C     0.46809   0.75954   0.08186   0.00000  Uiso   1.00
C553   C     0.00056   0.75023   0.39821   0.00000  Uiso   1.00
C554   C     0.00008   0.75004   0.60210   0.00000  Uiso   1.00
C555   C     0.25015   0.50045   0.39820   0.00000  Uiso   1.00
C556   C     0.24993   0.50008   0.60208   0.00000  Uiso   1.00
C557   C     0.24992   0.99996   0.89790   0.00000  Uiso   1.00
C558   C     0.24943   0.99976   0.10179   0.00000  Uiso   1.00
C559   C     0.00007   0.74992   0.89791   0.00000  Uiso   1.00
C560   C     0.49986   0.74955   0.10180   0.00000  Uiso   1.00
C561   C     0.01379   0.68489   0.48010   0.00000  Uiso   1.00
C562   C     0.48346   0.81477   0.52026   0.00000  Uiso   1.00
C563   C     0.31590   0.98913   0.48034   0.00000  Uiso   1.00
C564   C     0.18567   0.51787   0.52018   0.00000  Uiso   1.00
C565   C     0.48928   0.81613   0.48028   0.00000  Uiso   1.00
C566   C     0.01844   0.68587   0.52027   0.00000  Uiso   1.00
C567   C     0.18472   0.51307   0.48003   0.00000  Uiso   1.00
C568   C     0.31452   0.98330   0.52031   0.00000  Uiso   1.00
C569   C     0.26653   0.93523   0.97974   0.00000  Uiso   1.00
C570   C     0.23622   0.56511   0.01990   0.00000  Uiso   1.00
C571   C     0.06431   0.73208   0.97982   0.00000  Uiso   1.00
C572   C     0.43411   0.76092   0.01966   0.00000  Uiso   1.00
C573   C     0.23157   0.56413   0.97973   0.00000  Uiso   1.00
C574   C     0.26071   0.93387   0.01972   0.00000  Uiso   1.00
C575   C     0.43550   0.76674   0.97969   0.00000  Uiso   1.00
C576   C     0.06527   0.73687   0.01997   0.00000  Uiso   1.00
C577   C     0.24990   0.50006   0.35582   0.00000  Uiso   1.00
C578   C     0.24991   0.50002   0.64429   0.00000  Uiso   1.00
C579   C     0.00008   0.74992   0.35582   0.00000  Uiso   1.00
C580   C     0.00002   0.74995   0.64430   0.00000  Uiso   1.00
C581   C     0.00009   0.74998   0.85571   0.00000  Uiso   1.00
C582   C     0.00010   0.74994   0.14418   0.00000  Uiso   1.00
C583   C     0.24998   0.50005   0.85570   0.00000  Uiso   1.00
C584   C     0.24992   0.50008   0.14418   0.00000  Uiso   1.00
C585   C     0.18007   0.57009   0.24986   0.00000  Uiso   1.00
C586   C     0.32001   0.92998   0.74999   0.00000  Uiso   1.00
C587   C     0.43003   0.67994   0.25005   0.00000  Uiso   1.00
C588   C     0.07002   0.82001   0.75000   0.00000  Uiso   1.00
C589   C     0.32004   0.92995   0.25001   0.00000  Uiso   1.00
C590   C     0.17998   0.57003   0.74998   0.00000  Uiso   1.00
C591   C     0.06999   0.82003   0.24999   0.00000  Uiso   1.00
C592   C     0.43001   0.67996   0.75001   0.00000  Uiso   1.00
C593   C     0.17998   0.92999   0.75000   0.00000  Uiso   1.00
C594   C     0.31997   0.57006   0.24996   0.00000  Uiso   1.00
C595   C     0.42999   0.82002   0.75001   0.00000  Uiso   1.00
C596   C     0.06993   0.67991   0.25014   0.00000  Uiso   1.00
C597   C     0.31999   0.57004   0.74999   0.00000  Uiso   1.00
C598   C     0.18001   0.92997   0.25001   0.00000  Uiso   1.00
C599   C     0.07002   0.67997   0.75002   0.00000  Uiso   1.00
C600   C     0.42997   0.82005   0.24999   0.00000  Uiso   1.00
C601   C     0.14477   0.88231   0.21569   0.00000  Uiso   1.00
C602   C     0.35887   0.61409   0.78534   0.00000  Uiso   1.00
C603   C     0.09397   0.62076   0.27370   0.00000  Uiso   1.00
C604   C     0.41124   0.88430   0.74044   0.00000  Uiso   1.00
C605   C     0.38471   0.58810   0.25551   0.00000  Uiso   1.00
C606   C     0.14102   0.88588   0.78535   0.00000  Uiso   1.00
C607   C     0.39573   0.86895   0.21602   0.00000  Uiso   1.00
C608   C     0.08875   0.61570   0.74057   0.00000  Uiso   1.00
C609   C     0.11577   0.58870   0.74053   0.00000  Uiso   1.00
C610   C     0.36890   0.89575   0.21602   0.00000  Uiso   1.00
C611   C     0.11404   0.85890   0.78535   0.00000  Uiso   1.00
C612   C     0.41175   0.61504   0.25534   0.00000  Uiso   1.00
C613   C     0.38423   0.91130   0.74041   0.00000  Uiso   1.00
C614   C     0.12088   0.59362   0.27334   0.00000  Uiso   1.00
C615   C     0.38590   0.64101   0.78536   0.00000  Uiso   1.00
C616   C     0.11771   0.85532   0.21567   0.00000  Uiso   1.00
C617   C     0.39113   0.63592   0.71466   0.00000  Uiso   1.00
C618   C     0.10523   0.86769   0.28431   0.00000  Uiso   1.00
C619   C     0.33876   0.86570   0.75956   0.00000  Uiso   1.00
C620   C     0.15603   0.62924   0.22630   0.00000  Uiso   1.00
C621   C     0.10898   0.86412   0.71465   0.00000  Uiso   1.00
C622   C     0.36530   0.66190   0.24449   0.00000  Uiso   1.00
C623   C     0.16125   0.63430   0.75943   0.00000  Uiso   1.00
C624   C     0.35428   0.88107   0.28399   0.00000  Uiso   1.00
C625   C     0.38110   0.85425   0.28398   0.00000  Uiso   1.00
C626   C     0.13423   0.66130   0.75947   0.00000  Uiso   1.00
C627   C     0.33825   0.63496   0.24466   0.00000  Uiso   1.00
C628   C     0.13596   0.89109   0.71465   0.00000  Uiso   1.00
C629   C     0.12912   0.65638   0.22666   0.00000  Uiso   1.00
C630   C     0.36577   0.83870   0.75959   0.00000  Uiso   1.00
C631   C     0.13229   0.89468   0.28433   0.00000  Uiso   1.00
C632   C     0.36410   0.60900   0.71464   0.00000  Uiso   1.00
C633   C     0.00872   0.71765   0.45906   0.00000  Uiso   1.00
C634   C     0.49270   0.78302   0.54143   0.00000  Uiso   1.00
C635   C     0.28328   0.99397   0.45904   0.00000  Uiso   1.00
C636   C     0.21724   0.50819   0.54138   0.00000  Uiso   1.00
C637   C     0.49413   0.78346   0.45902   0.00000  Uiso   1.00
C638   C     0.00850   0.71741   0.54141   0.00000  Uiso   1.00
C639   C     0.21746   0.50823   0.45900   0.00000  Uiso   1.00
C640   C     0.28282   0.99257   0.54143   0.00000  Uiso   1.00
C641   C     0.25729   0.96698   0.95857   0.00000  Uiso   1.00
C642   C     0.24128   0.53235   0.04094   0.00000  Uiso   1.00
C643   C     0.03275   0.74178   0.95862   0.00000  Uiso   1.00
C644   C     0.46673   0.75605   0.04095   0.00000  Uiso   1.00
C645   C     0.24151   0.53259   0.95859   0.00000  Uiso   1.00
C646   C     0.25586   0.96654   0.04098   0.00000  Uiso   1.00
C647   C     0.46719   0.75745   0.95857   0.00000  Uiso   1.00
C648   C     0.03253   0.74174   0.04099   0.00000  Uiso   1.00
C649   C     0.09804   0.84813   0.24997   0.00000  Uiso   1.00
C650   C     0.40197   0.65186   0.75002   0.00000  Uiso   1.00
C651   C     0.15192   0.59809   0.24984   0.00000  Uiso   1.00
C652   C     0.34808   0.90190   0.74997   0.00000  Uiso   1.00
C653   C     0.40196   0.65188   0.24996   0.00000  Uiso   1.00
C654   C     0.09809   0.84808   0.75000   0.00000  Uiso   1.00
C655   C     0.34808   0.90190   0.25001   0.00000  Uiso   1.00
C656   C     0.15192   0.59811   0.74996   0.00000  Uiso   1.00
C657   C     0.09808   0.65190   0.75004   0.00000  Uiso   1.00
C658   C     0.40192   0.84810   0.25000   0.00000  Uiso   1.00
C659   C     0.15192   0.90192   0.75000   0.00000  Uiso   1.00
C660   C     0.34804   0.59812   0.25004   0.00000  Uiso   1.00
C661   C     0.40192   0.84810   0.75003   0.00000  Uiso   1.00
C662   C     0.09808   0.65191   0.25016   0.00000  Uiso   1.00
C663   C     0.34803   0.59814   0.74998   0.00000  Uiso   1.00
C664   C     0.15196   0.90187   0.25002   0.00000  Uiso   1.00
C665   C     0.00109   0.75044   0.47962   0.00000  Uiso   1.00
C666   C     0.00076   0.75029   0.52084   0.00000  Uiso   1.00
C667   C     0.25026   0.50080   0.47960   0.00000  Uiso   1.00
C668   C     0.25010   0.50051   0.52082   0.00000  Uiso   1.00
C669   C     0.24924   0.99971   0.97916   0.00000  Uiso   1.00
C670   C     0.24891   0.99956   0.02038   0.00000  Uiso   1.00
C671   C     0.49990   0.74948   0.97917   0.00000  Uiso   1.00
C672   C     0.49974   0.74920   0.02039   0.00000  Uiso   1.00
O673   O     0.25000   0.50000   0.25000   0.00000  Uiso   1.00
O674   O     0.25000   0.50000   0.75000   0.00000  Uiso   1.00
O675   O     0.00000   0.75000   0.25000   0.00000  Uiso   1.00
O676   O     0.00000   0.75000   0.75000   0.00000  Uiso   1.00
O677   O     0.25000   0.96964   0.33755   0.00000  Uiso   1.00
O678   O     0.25000   0.53037   0.66245   0.00000  Uiso   1.00
O679   O     0.03037   0.75000   0.33755   0.00000  Uiso   1.00
O680   O     0.46964   0.75000   0.66245   0.00000  Uiso   1.00
O681   O     0.25000   0.53037   0.33755   0.00000  Uiso   1.00
O682   O     0.25000   0.96964   0.66245   0.00000  Uiso   1.00
O683   O     0.46964   0.75000   0.33755   0.00000  Uiso   1.00
O684   O     0.03037   0.75000   0.66245   0.00000  Uiso   1.00
O685   O     0.00000   0.71964   0.83755   0.00000  Uiso   1.00
O686   O     0.00000   0.78037   0.16245   0.00000  Uiso   1.00
O687   O     0.28037   0.50000   0.83755   0.00000  Uiso   1.00
O688   O     0.21964   0.50000   0.16245   0.00000  Uiso   1.00
O689   O     0.00000   0.78037   0.83755   0.00000  Uiso   1.00
O690   O     0.00000   0.71964   0.16245   0.00000  Uiso   1.00
O691   O     0.21964   0.50000   0.83755   0.00000  Uiso   1.00
O692   O     0.28037   0.50000   0.16245   0.00000  Uiso   1.00
O693   O     0.20725   0.57308   0.27302   0.00000  Uiso   1.00
O694   O     0.29276   0.92693   0.72698   0.00000  Uiso   1.00
O695   O     0.42693   0.70725   0.27302   0.00000  Uiso   1.00
O696   O     0.07308   0.79276   0.72698   0.00000  Uiso   1.00
O697   O     0.29276   0.92693   0.27302   0.00000  Uiso   1.00
O698   O     0.20725   0.57308   0.72698   0.00000  Uiso   1.00
O699   O     0.07308   0.79276   0.27302   0.00000  Uiso   1.00
O700   O     0.42693   0.70725   0.72698   0.00000  Uiso   1.00
O701   O     0.20725   0.92693   0.72698   0.00000  Uiso   1.00
O702   O     0.29276   0.57308   0.27302   0.00000  Uiso   1.00
O703   O     0.42693   0.79276   0.72698   0.00000  Uiso   1.00
O704   O     0.07308   0.70725   0.27302   0.00000  Uiso   1.00
O705   O     0.29276   0.57308   0.72698   0.00000  Uiso   1.00
O706   O     0.20725   0.92693   0.27302   0.00000  Uiso   1.00
O707   O     0.07308   0.70725   0.72698   0.00000  Uiso   1.00
O708   O     0.42693   0.79276   0.27302   0.00000  Uiso   1.00
O709   O     0.45725   0.82308   0.77302   0.00000  Uiso   1.00
O710   O     0.04276   0.67693   0.22698   0.00000  Uiso   1.00
O711   O     0.17693   0.95725   0.77302   0.00000  Uiso   1.00
O712   O     0.32308   0.54276   0.22698   0.00000  Uiso   1.00
O713   O     0.04276   0.67693   0.77302   0.00000  Uiso   1.00
O714   O     0.45725   0.82308   0.22698   0.00000  Uiso   1.00
O715   O     0.32308   0.54276   0.77302   0.00000  Uiso   1.00
O716   O     0.17693   0.95725   0.22698   0.00000  Uiso   1.00
O717   O     0.45725   0.67693   0.22698   0.00000  Uiso   1.00
O718   O     0.04276   0.82308   0.77302   0.00000  Uiso   1.00
O719   O     0.17693   0.54276   0.22698   0.00000  Uiso   1.00
O720   O     0.32308   0.95725   0.77302   0.00000  Uiso   1.00
O721   O     0.04276   0.82308   0.22698   0.00000  Uiso   1.00
O722   O     0.45725   0.67693   0.77302   0.00000  Uiso   1.00
O723   O     0.32308   0.95725   0.22698   0.00000  Uiso   1.00
O724   O     0.17693   0.54276   0.77302   0.00000  Uiso   1.00
Zn725  Zn    0.20660   0.50000   0.21735   0.00000  Uiso   1.00
Zn726  Zn    0.29341   0.50000   0.78265   0.00000  Uiso   1.00
Zn727  Zn    0.00000   0.70660   0.21735   0.00000  Uiso   1.00
Zn728  Zn    0.00000   0.79341   0.78265   0.00000  Uiso   1.00
Zn729  Zn    0.29341   0.50000   0.21735   0.00000  Uiso   1.00
Zn730  Zn    0.20660   0.50000   0.78265   0.00000  Uiso   1.00
Zn731  Zn    0.00000   0.79341   0.21735   0.00000  Uiso   1.00
Zn732  Zn    0.00000   0.70660   0.78265   0.00000  Uiso   1.00
Zn733  Zn    0.45660   0.75000   0.71735   0.00000  Uiso   1.00
Zn734  Zn    0.04341   0.75000   0.28265   0.00000  Uiso   1.00
Zn735  Zn    0.25000   0.95660   0.71735   0.00000  Uiso   1.00
Zn736  Zn    0.25000   0.54341   0.28265   0.00000  Uiso   1.00
Zn737  Zn    0.04341   0.75000   0.71735   0.00000  Uiso   1.00
Zn738  Zn    0.45660   0.75000   0.28265   0.00000  Uiso   1.00
Zn739  Zn    0.25000   0.54341   0.71735   0.00000  Uiso   1.00
Zn740  Zn    0.25000   0.95660   0.28265   0.00000  Uiso   1.00
Br741  Br    0.00488   0.63710   0.45804   0.00000  Uiso   1.00
Br742  Br    0.45387   0.85374   0.54135   0.00000  Uiso   1.00
Br743  Br    0.36383   0.50025   0.45985   0.00000  Uiso   1.00
Br744  Br    0.14636   0.54672   0.54170   0.00000  Uiso   1.00
Br745  Br    0.00039   0.86408   0.45968   0.00000  Uiso   1.00
Br746  Br    0.04744   0.64673   0.54197   0.00000  Uiso   1.00
Br747  Br    0.13707   0.50359   0.45802   0.00000  Uiso   1.00
Br748  Br    0.35338   0.95361   0.54148   0.00000  Uiso   1.00
Br749  Br    0.29612   0.89626   0.95864   0.00000  Uiso   1.00
Br750  Br    0.24514   0.61290   0.04196   0.00000  Uiso   1.00
Br751  Br    0.10360   0.70319   0.95829   0.00000  Uiso   1.00
Br752  Br    0.38619   0.74983   0.04017   0.00000  Uiso   1.00
Br753  Br    0.20257   0.60328   0.95803   0.00000  Uiso   1.00
Br754  Br    0.24959   0.88592   0.04031   0.00000  Uiso   1.00
Br755  Br    0.39665   0.79644   0.95852   0.00000  Uiso   1.00
Br756  Br    0.11292   0.74632   0.04198   0.00000  Uiso   1.00
Br757  Br    0.17309   0.89129   0.16924   0.00000  Uiso   1.00
Br758  Br    0.33556   0.60067   0.83367   0.00000  Uiso   1.00
Br759  Br    0.05201   0.61573   0.30700   0.00000  Uiso   1.00
Br760  Br    0.46061   0.89655   0.72559   0.00000  Uiso   1.00
Br761  Br    0.39778   0.53779   0.26552   0.00000  Uiso   1.00
Br762  Br    0.16419   0.89924   0.83370   0.00000  Uiso   1.00
Br763  Br    0.42236   0.86106   0.16791   0.00000  Uiso   1.00
Br764  Br    0.03938   0.60345   0.72588   0.00000  Uiso   1.00
Br765  Br    0.10361   0.53927   0.72578   0.00000  Uiso   1.00
Br766  Br    0.36095   0.92238   0.16789   0.00000  Uiso   1.00
Br767  Br    0.10055   0.83566   0.83371   0.00000  Uiso   1.00
Br768  Br    0.46187   0.60142   0.26423   0.00000  Uiso   1.00
Br769  Br    0.39638   0.96074   0.72552   0.00000  Uiso   1.00
Br770  Br    0.11523   0.55020   0.30463   0.00000  Uiso   1.00
Br771  Br    0.39930   0.66415   0.83371   0.00000  Uiso   1.00
Br772  Br    0.10885   0.82701   0.16925   0.00000  Uiso   1.00
Br773  Br    0.41443   0.64934   0.66633   0.00000  Uiso   1.00
Br774  Br    0.07690   0.85871   0.33076   0.00000  Uiso   1.00
Br775  Br    0.28940   0.85345   0.77442   0.00000  Uiso   1.00
Br776  Br    0.19799   0.63427   0.19300   0.00000  Uiso   1.00
Br777  Br    0.08580   0.85077   0.66631   0.00000  Uiso   1.00
Br778  Br    0.35222   0.71221   0.23448   0.00000  Uiso   1.00
Br779  Br    0.21062   0.64655   0.77411   0.00000  Uiso   1.00
Br780  Br    0.32771   0.88902   0.33212   0.00000  Uiso   1.00
Br781  Br    0.38901   0.82758   0.33210   0.00000  Uiso   1.00
Br782  Br    0.14639   0.71074   0.77421   0.00000  Uiso   1.00
Br783  Br    0.28813   0.64858   0.23577   0.00000  Uiso   1.00
Br784  Br    0.14946   0.91433   0.66629   0.00000  Uiso   1.00
Br785  Br    0.13478   0.69980   0.19538   0.00000  Uiso   1.00
Br786  Br    0.35362   0.78926   0.77448   0.00000  Uiso   1.00
Br787  Br    0.14116   0.92298   0.33075   0.00000  Uiso   1.00
Br788  Br    0.35070   0.58585   0.66629   0.00000  Uiso   1.00
Br789  Br    0.46865   0.82092   0.38799   0.00000  Uiso   1.00
Br790  Br    0.49799   0.67260   0.61218   0.00000  Uiso   1.00
Br791  Br    0.18255   0.53907   0.38914   0.00000  Uiso   1.00
Br792  Br    0.32725   0.50209   0.61241   0.00000  Uiso   1.00
Br793  Br    0.04010   0.68309   0.38936   0.00000  Uiso   1.00
Br794  Br    0.00192   0.82744   0.61252   0.00000  Uiso   1.00
Br795  Br    0.32082   0.96870   0.38802   0.00000  Uiso   1.00
Br796  Br    0.17263   0.99796   0.61230   0.00000  Uiso   1.00
Br797  Br    0.25200   0.57740   0.88781   0.00000  Uiso   1.00
Br798  Br    0.28131   0.92907   0.11202   0.00000  Uiso   1.00
Br799  Br    0.42275   0.74795   0.88759   0.00000  Uiso   1.00
Br800  Br    0.06741   0.71087   0.11086   0.00000  Uiso   1.00
Br801  Br    0.24807   0.92256   0.88748   0.00000  Uiso   1.00
Br802  Br    0.20990   0.56692   0.11064   0.00000  Uiso   1.00
Br803  Br    0.07738   0.75199   0.88769   0.00000  Uiso   1.00
Br804  Br    0.42922   0.78140   0.11197   0.00000  Uiso   1.00
C805   C     0.99055   0.78205   0.41812   0.00000  Uiso   1.00
C806   C     0.50446   0.71705   0.58224   0.00000  Uiso   1.00
C807   C     0.71899   0.51206   0.41821   0.00000  Uiso   1.00
C808   C     0.78297   0.99600   0.58229   0.00000  Uiso   1.00
C809   C     0.51252   0.71919   0.41827   0.00000  Uiso   1.00
C810   C     0.99600   0.78314   0.58231   0.00000  Uiso   1.00
C811   C     0.78193   0.99049   0.41814   0.00000  Uiso   1.00
C812   C     0.71695   0.50433   0.58224   0.00000  Uiso   1.00
C813   C     0.74555   0.53295   0.91776   0.00000  Uiso   1.00
C814   C     0.75944   0.96795   0.08188   0.00000  Uiso   1.00
C815   C     0.96704   0.75402   0.91770   0.00000  Uiso   1.00
C816   C     0.53100   0.73791   0.08178   0.00000  Uiso   1.00
C817   C     0.75399   0.96687   0.91769   0.00000  Uiso   1.00
C818   C     0.73748   0.53081   0.08173   0.00000  Uiso   1.00
C819   C     0.53305   0.74565   0.91776   0.00000  Uiso   1.00
C820   C     0.96809   0.75954   0.08186   0.00000  Uiso   1.00
C821   C     0.50056   0.75023   0.39821   0.00000  Uiso   1.00
C822   C     0.50008   0.75004   0.60210   0.00000  Uiso   1.00
C823   C     0.75015   0.50045   0.39820   0.00000  Uiso   1.00
C824   C     0.74993   0.50008   0.60208   0.00000  Uiso   1.00
C825   C     0.74992   0.99996   0.89790   0.00000  Uiso   1.00
C826   C     0.74943   0.99976   0.10179   0.00000  Uiso   1.00
C827   C     0.50007   0.74992   0.89791   0.00000  Uiso   1.00
C828   C     0.99986   0.74955   0.10180   0.00000  Uiso   1.00
C829   C     0.51379   0.68489   0.48010   0.00000  Uiso   1.00
C830   C     0.98346   0.81477   0.52026   0.00000  Uiso   1.00
C831   C     0.81590   0.98913   0.48034   0.00000  Uiso   1.00
C832   C     0.68567   0.51787   0.52018   0.00000  Uiso   1.00
C833   C     0.98928   0.81613   0.48028   0.00000  Uiso   1.00
C834   C     0.51844   0.68587   0.52027   0.00000  Uiso   1.00
C835   C     0.68472   0.51307   0.48003   0.00000  Uiso   1.00
C836   C     0.81452   0.98330   0.52031   0.00000  Uiso   1.00
C837   C     0.76653   0.93523   0.97974   0.00000  Uiso   1.00
C838   C     0.73622   0.56511   0.01990   0.00000  Uiso   1.00
C839   C     0.56431   0.73208   0.97982   0.00000  Uiso   1.00
C840   C     0.93411   0.76092   0.01966   0.00000  Uiso   1.00
C841   C     0.73157   0.56413   0.97973   0.00000  Uiso   1.00
C842   C     0.76071   0.93387   0.01972   0.00000  Uiso   1.00
C843   C     0.93550   0.76674   0.97969   0.00000  Uiso   1.00
C844   C     0.56527   0.73687   0.01997   0.00000  Uiso   1.00
C845   C     0.74990   0.50006   0.35582   0.00000  Uiso   1.00
C846   C     0.74991   0.50002   0.64429   0.00000  Uiso   1.00
C847   C     0.50008   0.74992   0.35582   0.00000  Uiso   1.00
C848   C     0.50002   0.74995   0.64430   0.00000  Uiso   1.00
C849   C     0.50009   0.74998   0.85571   0.00000  Uiso   1.00
C850   C     0.50010   0.74994   0.14418   0.00000  Uiso   1.00
C851   C     0.74998   0.50005   0.85570   0.00000  Uiso   1.00
C852   C     0.74992   0.50008   0.14418   0.00000  Uiso   1.00
C853   C     0.68007   0.57009   0.24986   0.00000  Uiso   1.00
C854   C     0.82001   0.92998   0.74999   0.00000  Uiso   1.00
C855   C     0.93003   0.67994   0.25005   0.00000  Uiso   1.00
C856   C     0.57002   0.82001   0.75000   0.00000  Uiso   1.00
C857   C     0.82004   0.92995   0.25001   0.00000  Uiso   1.00
C858   C     0.67998   0.57003   0.74998   0.00000  Uiso   1.00
C859   C     0.56999   0.82003   0.24999   0.00000  Uiso   1.00
C860   C     0.93001   0.67996   0.75001   0.00000  Uiso   1.00
C861   C     0.67998   0.92999   0.75000   0.00000  Uiso   1.00
C862   C     0.81997   0.57006   0.24996   0.00000  Uiso   1.00
C863   C     0.92999   0.82002   0.75001   0.00000  Uiso   1.00
C864   C     0.56993   0.67991   0.25014   0.00000  Uiso   1.00
C865   C     0.81999   0.57004   0.74999   0.00000  Uiso   1.00
C866   C     0.68001   0.92997   0.25001   0.00000  Uiso   1.00
C867   C     0.57002   0.67997   0.75002   0.00000  Uiso   1.00
C868   C     0.92997   0.82005   0.24999   0.00000  Uiso   1.00
C869   C     0.64477   0.88231   0.21569   0.00000  Uiso   1.00
C870   C     0.85887   0.61409   0.78534   0.00000  Uiso   1.00
C871   C     0.59397   0.62076   0.27370   0.00000  Uiso   1.00
C872   C     0.91124   0.88430   0.74044   0.00000  Uiso   1.00
C873   C     0.88471   0.58810   0.25551   0.00000  Uiso   1.00
C874   C     0.64102   0.88588   0.78535   0.00000  Uiso   1.00
C875   C     0.89573   0.86895   0.21602   0.00000  Uiso   1.00
C876   C     0.58875   0.61570   0.74057   0.00000  Uiso   1.00
C877   C     0.61577   0.58870   0.74053   0.00000  Uiso   1.00
C878   C     0.86890   0.89575   0.21602   0.00000  Uiso   1.00
C879   C     0.61404   0.85890   0.78535   0.00000  Uiso   1.00
C880   C     0.91175   0.61504   0.25534   0.00000  Uiso   1.00
C881   C     0.88423   0.91130   0.74041   0.00000  Uiso   1.00
C882   C     0.62088   0.59362   0.27334   0.00000  Uiso   1.00
C883   C     0.88590   0.64101   0.78536   0.00000  Uiso   1.00
C884   C     0.61771   0.85532   0.21567   0.00000  Uiso   1.00
C885   C     0.89113   0.63592   0.71466   0.00000  Uiso   1.00
C886   C     0.60523   0.86769   0.28431   0.00000  Uiso   1.00
C887   C     0.83876   0.86570   0.75956   0.00000  Uiso   1.00
C888   C     0.65603   0.62924   0.22630   0.00000  Uiso   1.00
C889   C     0.60898   0.86412   0.71465   0.00000  Uiso   1.00
C890   C     0.86530   0.66190   0.24449   0.00000  Uiso   1.00
C891   C     0.66125   0.63430   0.75943   0.00000  Uiso   1.00
C892   C     0.85428   0.88107   0.28399   0.00000  Uiso   1.00
C893   C     0.88110   0.85425   0.28398   0.00000  Uiso   1.00
C894   C     0.63423   0.66130   0.75947   0.00000  Uiso   1.00
C895   C     0.83825   0.63496   0.24466   0.00000  Uiso   1.00
C896   C     0.63596   0.89109   0.71465   0.00000  Uiso   1.00
C897   C     0.62912   0.65638   0.22666   0.00000  Uiso   1.00
C898   C     0.86577   0.83870   0.75959   0.00000  Uiso   1.00
C899   C     0.63229   0.89468   0.28433   0.00000  Uiso   1.00
C900   C     0.86410   0.60900   0.71464   0.00000  Uiso   1.00
C901   C     0.50872   0.71765   0.45906   0.00000  Uiso   1.00
C902   C     0.99270   0.78302   0.54143   0.00000  Uiso   1.00
C903   C     0.78328   0.99397   0.45904   0.00000  Uiso   1.00
C904   C     0.71724   0.50819   0.54138   0.00000  Uiso   1.00
C905   C     0.99413   0.78346   0.45902   0.00000  Uiso   1.00
C906   C     0.50850   0.71741   0.54141   0.00000  Uiso   1.00
C907   C     0.71746   0.50823   0.45900   0.00000  Uiso   1.00
C908   C     0.78282   0.99257   0.54143   0.00000  Uiso   1.00
C909   C     0.75729   0.96698   0.95857   0.00000  Uiso   1.00
C910   C     0.74128   0.53235   0.04094   0.00000  Uiso   1.00
C911   C     0.53275   0.74178   0.95862   0.00000  Uiso   1.00
C912   C     0.96673   0.75605   0.04095   0.00000  Uiso   1.00
C913   C     0.74151   0.53259   0.95859   0.00000  Uiso   1.00
C914   C     0.75586   0.96654   0.04098   0.00000  Uiso   1.00
C915   C     0.96719   0.75745   0.95857   0.00000  Uiso   1.00
C916   C     0.53253   0.74174   0.04099   0.00000  Uiso   1.00
C917   C     0.59804   0.84813   0.24997   0.00000  Uiso   1.00
C918   C     0.90197   0.65186   0.75002   0.00000  Uiso   1.00
C919   C     0.65192   0.59809   0.24984   0.00000  Uiso   1.00
C920   C     0.84808   0.90190   0.74997   0.00000  Uiso   1.00
C921   C     0.90196   0.65188   0.24996   0.00000  Uiso   1.00
C922   C     0.59809   0.84808   0.75000   0.00000  Uiso   1.00
C923   C     0.84808   0.90190   0.25001   0.00000  Uiso   1.00
C924   C     0.65192   0.59811   0.74996   0.00000  Uiso   1.00
C925   C     0.59808   0.65190   0.75004   0.00000  Uiso   1.00
C926   C     0.90192   0.84810   0.25000   0.00000  Uiso   1.00
C927   C     0.65192   0.90192   0.75000   0.00000  Uiso   1.00
C928   C     0.84804   0.59812   0.25004   0.00000  Uiso   1.00
C929   C     0.90192   0.84810   0.75003   0.00000  Uiso   1.00
C930   C     0.59808   0.65191   0.25016   0.00000  Uiso   1.00
C931   C     0.84803   0.59814   0.74998   0.00000  Uiso   1.00
C932   C     0.65196   0.90187   0.25002   0.00000  Uiso   1.00
C933   C     0.50109   0.75044   0.47962   0.00000  Uiso   1.00
C934   C     0.50076   0.75029   0.52084   0.00000  Uiso   1.00
C935   C     0.75026   0.50080   0.47960   0.00000  Uiso   1.00
C936   C     0.75010   0.50051   0.52082   0.00000  Uiso   1.00
C937   C     0.74924   0.99971   0.97916   0.00000  Uiso   1.00
C938   C     0.74891   0.99956   0.02038   0.00000  Uiso   1.00
C939   C     0.99990   0.74948   0.97917   0.00000  Uiso   1.00
C940   C     0.99974   0.74920   0.02039   0.00000  Uiso   1.00
O941   O     0.75000   0.50000   0.25000   0.00000  Uiso   1.00
O942   O     0.75000   0.50000   0.75000   0.00000  Uiso   1.00
O943   O     0.50000   0.75000   0.25000   0.00000  Uiso   1.00
O944   O     0.50000   0.75000   0.75000   0.00000  Uiso   1.00
O945   O     0.75000   0.96964   0.33755   0.00000  Uiso   1.00
O946   O     0.75000   0.53037   0.66245   0.00000  Uiso   1.00
O947   O     0.53037   0.75000   0.33755   0.00000  Uiso   1.00
O948   O     0.96964   0.75000   0.66245   0.00000  Uiso   1.00
O949   O     0.75000   0.53037   0.33755   0.00000  Uiso   1.00
O950   O     0.75000   0.96964   0.66245   0.00000  Uiso   1.00
O951   O     0.96964   0.75000   0.33755   0.00000  Uiso   1.00
O952   O     0.53037   0.75000   0.66245   0.00000  Uiso   1.00
O953   O     0.50000   0.71964   0.83755   0.00000  Uiso   1.00
O954   O     0.50000   0.78037   0.16245   0.00000  Uiso   1.00
O955   O     0.78037   0.50000   0.83755   0.00000  Uiso   1.00
O956   O     0.71964   0.50000   0.16245   0.00000  Uiso   1.00
O957   O     0.50000   0.78037   0.83755   0.00000  Uiso   1.00
O958   O     0.50000   0.71964   0.16245   0.00000  Uiso   1.00
O959   O     0.71964   0.50000   0.83755   0.00000  Uiso   1.00
O960   O     0.78037   0.50000   0.16245   0.00000  Uiso   1.00
O961   O     0.70725   0.57308   0.27302   0.00000  Uiso   1.00
O962   O     0.79276   0.92693   0.72698   0.00000  Uiso   1.00
O963   O     0.92693   0.70725   0.27302   0.00000  Uiso   1.00
O964   O     0.57308   0.79276   0.72698   0.00000  Uiso   1.00
O965   O     0.79276   0.92693   0.27302   0.00000  Uiso   1.00
O966   O     0.70725   0.57308   0.72698   0.00000  Uiso   1.00
O967   O     0.57308   0.79276   0.27302   0.00000  Uiso   1.00
O968   O     0.92693   0.70725   0.72698   0.00000  Uiso   1.00
O969   O     0.70725   0.92693   0.72698   0.00000  Uiso   1.00
O970   O     0.79276   0.57308   0.27302   0.00000  Uiso   1.00
O971   O     0.92693   0.79276   0.72698   0.00000  Uiso   1.00
O972   O     0.57308   0.70725   0.27302   0.00000  Uiso   1.00
O973   O     0.79276   0.57308   0.72698   0.00000  Uiso   1.00
O974   O     0.70725   0.92693   0.27302   0.00000  Uiso   1.00
O975   O     0.57308   0.70725   0.72698   0.00000  Uiso   1.00
O976   O     0.92693   0.79276   0.27302   0.00000  Uiso   1.00
O977   O     0.95725   0.82308   0.77302   0.00000  Uiso   1.00
O978   O     0.54276   0.67693   0.22698   0.00000  Uiso   1.00
O979   O     0.67693   0.95725   0.77302   0.00000  Uiso   1.00
O980   O     0.82308   0.54276   0.22698   0.00000  Uiso   1.00
O981   O     0.54276   0.67693   0.77302   0.00000  Uiso   1.00
O982   O     0.95725   0.82308   0.22698   0.00000  Uiso   1.00
O983   O     0.82308   0.54276   0.77302   0.00000  Uiso   1.00
O984   O     0.67693   0.95725   0.22698   0.00000  Uiso   1.00
O985   O     0.95725   0.67693   0.22698   0.00000  Uiso   1.00
O986   O     0.54276   0.82308   0.77302   0.00000  Uiso   1.00
O987   O     0.67693   0.54276   0.22698   0.00000  Uiso   1.00
O988   O     0.82308   0.95725   0.77302   0.00000  Uiso   1.00
O989   O     0.54276   0.82308   0.22698   0.00000  Uiso   1.00
O990   O     0.95725   0.67693   0.77302   0.00000  Uiso   1.00
O991   O     0.82308   0.95725   0.22698   0.00000  Uiso   1.00
O992   O     0.67693   0.54276   0.77302   0.00000  Uiso   1.00
Zn993  Zn    0.70660   0.50000   0.21735   0.00000  Uiso   1.00
Zn994  Zn    0.79341   0.50000   0.78265   0.00000  Uiso   1.00
Zn995  Zn    0.50000   0.70660   0.21735   0.00000  Uiso   1.00
Zn996  Zn    0.50000   0.79341   0.78265   0.00000  Uiso   1.00
Zn997  Zn    0.79341   0.50000   0.21735   0.00000  Uiso   1.00
Zn998  Zn    0.70660   0.50000   0.78265   0.00000  Uiso   1.00
Zn999  Zn    0.50000   0.79341   0.21735   0.00000  Uiso   1.00
Zn1000 Zn    0.50000   0.70660   0.78265   0.00000  Uiso   1.00
Zn1001 Zn    0.95660   0.75000   0.71735   0.00000  Uiso   1.00
Zn1002 Zn    0.54341   0.75000   0.28265   0.00000  Uiso   1.00
Zn1003 Zn    0.75000   0.95660   0.71735   0.00000  Uiso   1.00
Zn1004 Zn    0.75000   0.54341   0.28265   0.00000  Uiso   1.00
Zn1005 Zn    0.54341   0.75000   0.71735   0.00000  Uiso   1.00
Zn1006 Zn    0.95660   0.75000   0.28265   0.00000  Uiso   1.00
Zn1007 Zn    0.75000   0.54341   0.71735   0.00000  Uiso   1.00
Zn1008 Zn    0.75000   0.95660   0.28265   0.00000  Uiso   1.00
Br1009 Br    0.50488   0.63710   0.45804   0.00000  Uiso   1.00
Br1010 Br    0.95387   0.85374   0.54135   0.00000  Uiso   1.00
Br1011 Br    0.86383   0.50025   0.45985   0.00000  Uiso   1.00
Br1012 Br    0.64636   0.54672   0.54170   0.00000  Uiso   1.00
Br1013 Br    0.50039   0.86408   0.45968   0.00000  Uiso   1.00
Br1014 Br    0.54744   0.64673   0.54197   0.00000  Uiso   1.00
Br1015 Br    0.63707   0.50359   0.45802   0.00000  Uiso   1.00
Br1016 Br    0.85338   0.95361   0.54148   0.00000  Uiso   1.00
Br1017 Br    0.79612   0.89626   0.95864   0.00000  Uiso   1.00
Br1018 Br    0.74514   0.61290   0.04196   0.00000  Uiso   1.00
Br1019 Br    0.60360   0.70319   0.95829   0.00000  Uiso   1.00
Br1020 Br    0.88619   0.74983   0.04017   0.00000  Uiso   1.00
Br1021 Br    0.70257   0.60328   0.95803   0.00000  Uiso   1.00
Br1022 Br    0.74959   0.88592   0.04031   0.00000  Uiso   1.00
Br1023 Br    0.89665   0.79644   0.95852   0.00000  Uiso   1.00
Br1024 Br    0.61292   0.74632   0.04198   0.00000  Uiso   1.00
Br1025 Br    0.67309   0.89129   0.16924   0.00000  Uiso   1.00
Br1026 Br    0.83556   0.60067   0.83367   0.00000  Uiso   1.00
Br1027 Br    0.55201   0.61573   0.30700   0.00000  Uiso   1.00
Br1028 Br    0.96061   0.89655   0.72559   0.00000  Uiso   1.00
Br1029 Br    0.89778   0.53779   0.26552   0.00000  Uiso   1.00
Br1030 Br    0.66419   0.89924   0.83370   0.00000  Uiso   1.00
Br1031 Br    0.92236   0.86106   0.16791   0.00000  Uiso   1.00
Br1032 Br    0.53938   0.60345   0.72588   0.00000  Uiso   1.00
Br1033 Br    0.60361   0.53927   0.72578   0.00000  Uiso   1.00
Br1034 Br    0.86095   0.92238   0.16789   0.00000  Uiso   1.00
Br1035 Br    0.60055   0.83566   0.83371   0.00000  Uiso   1.00
Br1036 Br    0.96187   0.60142   0.26423   0.00000  Uiso   1.00
Br1037 Br    0.89638   0.96074   0.72552   0.00000  Uiso   1.00
Br1038 Br    0.61523   0.55020   0.30463   0.00000  Uiso   1.00
Br1039 Br    0.89930   0.66415   0.83371   0.00000  Uiso   1.00
Br1040 Br    0.60885   0.82701   0.16925   0.00000  Uiso   1.00
Br1041 Br    0.91443   0.64934   0.66633   0.00000  Uiso   1.00
Br1042 Br    0.57690   0.85871   0.33076   0.00000  Uiso   1.00
Br1043 Br    0.78940   0.85345   0.77442   0.00000  Uiso   1.00
Br1044 Br    0.69799   0.63427   0.19300   0.00000  Uiso   1.00
Br1045 Br    0.58580   0.85077   0.66631   0.00000  Uiso   1.00
Br1046 Br    0.85222   0.71221   0.23448   0.00000  Uiso   1.00
Br1047 Br    0.71062   0.64655   0.77411   0.00000  Uiso   1.00
Br1048 Br    0.82771   0.88902   0.33212   0.00000  Uiso   1.00
Br1049 Br    0.88901   0.82758   0.33210   0.00000  Uiso   1.00
Br1050 Br    0.64639   0.71074   0.77421   0.00000  Uiso   1.00
Br1051 Br    0.78813   0.64858   0.23577   0.00000  Uiso   1.00
Br1052 Br    0.64946   0.91433   0.66629   0.00000  Uiso   1.00
Br1053 Br    0.63478   0.69980   0.19538   0.00000  Uiso   1.00
Br1054 Br    0.85362   0.78926   0.77448   0.00000  Uiso   1.00
Br1055 Br    0.64116   0.92298   0.33075   0.00000  Uiso   1.00
Br1056 Br    0.85070   0.58585   0.66629   0.00000  Uiso   1.00
Br1057 Br    0.96865   0.82092   0.38799   0.00000  Uiso   1.00
Br1058 Br    0.99799   0.67260   0.61218   0.00000  Uiso   1.00
Br1059 Br    0.68255   0.53907   0.38914   0.00000  Uiso   1.00
Br1060 Br    0.82725   0.50209   0.61241   0.00000  Uiso   1.00
Br1061 Br    0.54010   0.68309   0.38936   0.00000  Uiso   1.00
Br1062 Br    0.50192   0.82744   0.61252   0.00000  Uiso   1.00
Br1063 Br    0.82082   0.96870   0.38802   0.00000  Uiso   1.00
Br1064 Br    0.67263   0.99796   0.61230   0.00000  Uiso   1.00
Br1065 Br    0.75200   0.57740   0.88781   0.00000  Uiso   1.00
Br1066 Br    0.78131   0.92907   0.11202   0.00000  Uiso   1.00
Br1067 Br    0.92275   0.74795   0.88759   0.00000  Uiso   1.00
Br1068 Br    0.56741   0.71087   0.11086   0.00000  Uiso   1.00
Br1069 Br    0.74807   0.92256   0.88748   0.00000  Uiso   1.00
Br1070 Br    0.70990   0.56692   0.11064   0.00000  Uiso   1.00
Br1071 Br    0.57738   0.75199   0.88769   0.00000  Uiso   1.00
Br1072 Br    0.92922   0.78140   0.11197   0.00000  Uiso   1.00
loop_
_geom_bond_atom_site_label_1
_geom_bond_atom_site_label_2
_geom_bond_distance
_geom_bond_site_symmetry_2
_ccdc_geom_bond_type
C1     Br253   1.936   .     S
C1     C101    1.415   .     A
C1     C285    1.402   .     S
C2     C18     1.398   .     A
C2     C102    1.413   .     A
C2     Br522   1.940   1_455 S
C3     C19     1.400   .     A
C3     C103    1.412   .     A
C3     Br255   1.941   .     S
C4     C104    1.412   .     A
C4     C556    1.397   .     S
C4     Br792   1.940   .     S
C5     C97     1.411   .     A
C5     Br257   1.941   .     S
C5     C17     1.401   .     A
C6     C98     1.412   .     A
C6     C286    1.398   .     S
C6     Br526   1.940   .     S
C7     Br259   1.936   .     S
C7     C99     1.415   .     A
C7     C555    1.401   .     S
C8     C20     1.398   .     A
C8     C100    1.413   .     A
C8     Br796   1.940   1_545 S
C9     Br261   1.940   .     S
C9     C109    1.413   .     A
C9     C557    1.398   1_545 S
C10    C22     1.402   .     A
C10    C110    1.415   .     A
C10    Br262   1.936   .     S
C11    Br263   1.940   .     S
C11    C111    1.412   .     A
C11    C291    1.397   .     S
C12    Br264   1.941   .     S
C12    C112    1.412   .     A
C12    C292    1.400   1_455 S
C13    C105    1.412   .     A
C13    Br265   1.940   .     S
C13    C21     1.398   .     A
C14    C106    1.411   .     A
C14    Br266   1.941   .     S
C14    C558    1.401   1_545 S
C15    C107    1.413   .     A
C15    C23     1.398   .     A
C15    Br267   1.940   .     S
C16    Br268   1.936   .     S
C16    C108    1.415   .     A
C16    C24     1.401   .     A
C17    C43     1.459   .     S
C17    C269    1.402   1_455 S
C18    C44     1.452   .     S
C18    C274    1.398   1_455 S
C19    C41     1.459   .     S
C19    C543    1.401   1_545 S
C20    C42     1.452   .     S
C20    C540    1.397   1_545 S
C21    C545    1.398   .     S
C21    C583    1.452   .     S
C22    C550    1.401   .     S
C22    C584    1.459   .     S
C23    C45     1.452   .     S
C23    C279    1.397   1_455 S
C24    C280    1.400   .     S
C24    C314    1.459   .     S
C25    C97     1.413   .     A
C25    Br205   1.936   .     S
C25    C30     1.393   .     A
C26    Br206   1.936   .     S
C26    C98     1.413   .     A
C26    C29     1.393   .     A
C27    C99     1.415   .     A
C27    C32     1.392   .     A
C27    Br743   1.936   .     S
C28    C100    1.414   .     A
C28    C31     1.394   .     A
C28    Br208   1.936   .     S
C29    C101    1.415   .     A
C29    Br477   1.936   .     S
C30    Br210   1.936   .     S
C30    C102    1.414   .     A
C31    C103    1.413   .     A
C31    Br211   1.936   .     S
C32    Br212   1.936   .     S
C32    C104    1.412   .     A
C33    C105    1.413   .     A
C33    Br213   1.936   .     S
C33    C38     1.393   1_556 S
C34    C106    1.413   .     A
C34    Br214   1.936   .     S
C34    C37     1.393   1_554 S
C35    Br215   1.936   .     S
C35    C107    1.414   .     A
C35    C40     1.394   1_556 S
C36    C108    1.415   .     A
C36    Br216   1.936   .     S
C36    C39     1.392   1_554 S
C37    Br217   1.936   .     S
C37    C109    1.414   .     A
C37    C34     1.393   1_556 S
C38    Br218   1.936   .     S
C38    C110    1.415   .     A
C38    C33     1.393   1_554 S
C39    Br219   1.936   .     S
C39    C111    1.412   .     A
C39    C36     1.392   1_556 S
C40    C112    1.413   .     A
C40    Br220   1.936   .     S
C40    C35     1.394   1_554 S
C41    O145    1.275   .     A
C41    O677    1.280   1_545 S
C42    O142    1.276   .     A
C42    O682    1.276   1_545 S
C43    O143    1.276   .     A
C43    O415    1.282   1_455 S
C44    O148    1.277   .     A
C44    O412    1.277   1_455 S
C45    O153    1.276   .     A
C45    O149    1.276   .     A
C46    C292    1.459   1_455 S
C46    O150    1.280   .     S
C46    O154    1.275   .     S
C47    O151    1.277   .     A
C47    O155    1.277   .     A
C47    C557    1.452   1_545 S
C48    C558    1.459   1_545 S
C48    O152    1.276   .     S
C48    O156    1.282   .     S
C49    O157    1.281   .     A
C49    C115    1.456   .     S
C49    O183    1.280   .     A
C50    O158    1.281   .     A
C50    C116    1.456   .     S
C50    O184    1.281   .     A
C51    C117    1.454   .     S
C51    O181    1.279   .     A
C51    O159    1.281   .     A
C52    O160    1.280   .     A
C52    O182    1.280   .     A
C52    C118    1.454   .     S
C53    C119    1.455   .     S
C53    O187    1.279   .     A
C53    O161    1.280   .     A
C54    C120    1.456   .     S
C54    O188    1.279   .     A
C54    O162    1.279   .     A
C55    O163    1.280   .     A
C55    C113    1.454   .     S
C55    O185    1.280   .     A
C56    C114    1.454   .     S
C56    O186    1.280   .     A
C56    O164    1.280   .     A
C57    O165    1.280   .     A
C57    O175    1.280   .     A
C57    C123    1.454   .     S
C58    O176    1.281   .     A
C58    C124    1.454   .     S
C58    O166    1.279   .     A
C59    C125    1.456   .     S
C59    O167    1.281   .     A
C59    O173    1.281   .     A
C60    O174    1.281   .     A
C60    O168    1.280   .     A
C60    C126    1.456   .     S
C61    C127    1.454   .     S
C61    O179    1.280   .     A
C61    O169    1.280   .     A
C62    O180    1.280   .     A
C62    O170    1.280   .     A
C62    C128    1.454   .     S
C63    C121    1.456   .     S
C63    O171    1.279   .     A
C63    O177    1.279   .     A
C64    C122    1.455   .     S
C64    O178    1.280   .     A
C64    O172    1.279   .     A
C65    Br221   1.933   .     S
C65    C128    1.408   .     A
C65    C80     1.400   .     A
C66    Br222   1.932   .     S
C66    C127    1.408   .     A
C66    C79     1.397   .     A
C67    C78     1.401   .     A
C67    C126    1.406   .     A
C67    Br223   1.926   .     S
C68    C77     1.401   .     A
C68    Br224   1.933   .     S
C68    C125    1.407   .     A
C69    C76     1.398   .     A
C69    C124    1.407   .     A
C69    Br225   1.935   .     S
C70    C123    1.408   .     A
C70    Br226   1.932   .     S
C70    C75     1.397   .     A
C71    C122    1.414   .     A
C71    Br227   1.943   .     S
C71    C74     1.391   .     A
C72    C121    1.407   .     A
C72    C73     1.400   .     A
C72    Br228   1.933   .     S
C73    Br229   1.933   .     S
C73    C120    1.407   .     A
C74    C119    1.415   .     A
C74    Br230   1.943   .     S
C75    C118    1.408   .     A
C75    Br231   1.932   .     S
C76    Br232   1.930   .     S
C76    C117    1.408   .     A
C77    C116    1.407   .     A
C77    Br233   1.933   .     S
C78    C115    1.405   .     A
C78    Br234   1.930   .     S
C79    C114    1.408   .     A
C79    Br235   1.932   .     S
C80    Br236   1.933   .     S
C80    C113    1.407   .     A
C81    C114    1.408   .     A
C81    C96     1.397   .     A
C81    Br237   1.932   .     S
C82    Br238   1.933   .     S
C82    C95     1.400   .     A
C82    C113    1.408   .     A
C83    C94     1.400   .     A
C83    Br239   1.933   .     S
C83    C116    1.407   .     A
C84    C115    1.406   .     A
C84    Br240   1.926   .     S
C84    C93     1.401   .     A
C85    C92     1.397   .     A
C85    C118    1.408   .     A
C85    Br241   1.932   .     S
C86    C91     1.398   .     A
C86    C117    1.407   .     A
C86    Br242   1.935   .     S
C87    C120    1.407   .     A
C87    C90     1.400   .     A
C87    Br243   1.933   .     S
C88    C89     1.391   .     A
C88    C119    1.414   .     A
C88    Br244   1.943   .     S
C89    C122    1.415   .     A
C89    Br245   1.943   .     S
C90    C121    1.407   .     A
C90    Br246   1.933   .     S
C91    Br247   1.930   .     S
C91    C124    1.408   .     A
C92    Br248   1.932   .     S
C92    C123    1.408   .     A
C93    C126    1.405   .     A
C93    Br249   1.930   .     S
C94    Br250   1.933   .     S
C94    C125    1.408   .     A
C95    Br251   1.933   .     S
C95    C128    1.407   .     A
C96    C127    1.408   .     A
C96    Br252   1.932   .     S
C97    C129    1.423   .     A
C98    C398    1.425   .     S
C99    C667    1.424   .     S
C100   C132    1.425   .     A
C101   C397    1.424   .     S
C102   C130    1.425   .     A
C103   C131    1.423   .     A
C104   C668    1.424   .     S
C105   C133    1.425   .     A
C106   C670    1.423   1_545 S
C107   C403    1.425   1_455 S
C108   C136    1.424   .     A
C109   C669    1.425   1_545 S
C110   C134    1.424   .     A
C111   C135    1.424   .     A
C112   C404    1.423   1_455 S
C129   C130    1.419   .     A
C129   C369    1.424   1_455 S
C130   C366    1.425   1_455 S
C131   C132    1.419   .     A
C131   C635    1.424   1_545 S
C132   C640    1.424   1_545 S
C133   C645    1.425   .     S
C133   C134    1.419   1_556 S
C134   C642    1.423   .     S
C134   C133    1.419   1_554 S
C135   C375    1.425   .     S
C135   C136    1.419   1_556 S
C136   C380    1.423   .     S
C136   C135    1.419   1_554 S
O137   Zn200   1.948   .     S
O137   Zn189   1.949   .     S
O137   Zn193   1.947   .     S
O137   Zn740   1.945   1_545 S
O138   Zn190   1.949   .     S
O138   Zn194   1.947   .     S
O138   Zn203   1.945   .     S
O138   Zn735   1.948   1_545 S
O139   Zn198   1.949   .     S
O139   Zn191   1.948   .     S
O139   Zn195   1.945   .     S
O139   Zn470   1.947   1_455 S
O140   Zn196   1.945   .     S
O140   Zn192   1.948   .     S
O140   Zn201   1.947   .     S
O140   Zn465   1.949   1_455 S
O141   Zn204   1.949   .     S
O141   C577    1.280   .     S
O142   Zn203   1.949   .     S
O143   Zn198   1.949   .     S
O144   Zn197   1.949   .     S
O144   C312    1.277   .     S
O145   Zn200   1.948   .     S
O146   Zn199   1.948   .     S
O146   C578    1.276   .     S
O147   Zn202   1.949   .     S
O147   C311    1.282   .     S
O148   Zn201   1.949   .     S
O149   Zn196   1.949   .     S
O150   Zn195   1.949   .     S
O151   Zn190   1.949   .     S
O152   Zn189   1.949   .     S
O153   Zn192   1.948   .     S
O154   Zn191   1.948   .     S
O155   Zn194   1.949   .     S
O156   Zn193   1.949   .     S
O157   Zn200   1.937   .     S
O158   Zn199   1.937   .     S
O159   Zn202   1.935   .     S
O160   Zn201   1.935   .     S
O161   Zn204   1.937   .     S
O162   Zn203   1.937   .     S
O163   Zn198   1.934   .     S
O164   Zn197   1.934   .     S
O165   Zn199   1.935   .     S
O166   Zn200   1.935   .     S
O167   Zn197   1.937   .     S
O168   Zn198   1.937   .     S
O169   Zn203   1.936   .     S
O170   Zn204   1.936   .     S
O171   Zn201   1.936   .     S
O172   Zn202   1.936   .     S
O173   Zn460   1.937   .     S
O174   Zn191   1.937   .     S
O175   Zn730   1.935   .     S
O176   Zn193   1.935   .     S
O177   Zn196   1.937   .     S
O178   Zn463   1.937   .     S
O179   Zn190   1.934   .     S
O180   Zn725   1.934   .     S
O181   Zn459   1.935   .     S
O182   Zn192   1.935   .     S
O183   Zn189   1.937   .     S
O184   Zn726   1.937   .     S
O185   Zn195   1.936   .     S
O186   Zn464   1.936   .     S
O187   Zn729   1.936   .     S
O188   Zn194   1.936   .     S
Zn189  O716    1.934   1_545 S
Zn190  O720    1.937   1_545 S
Zn191  O449    1.935   1_455 S
Zn192  O441    1.937   1_455 S
Zn193  O723    1.936   1_545 S
Zn194  O711    1.935   1_545 S
Zn195  O446    1.937   1_455 S
Zn196  O454    1.936   1_455 S
Zn197  O408    1.949   .     S
Zn199  O674    1.948   .     S
Zn202  O407    1.947   .     S
Zn204  O673    1.945   .     S
Br207  C563    1.936   1_545 S
Br209  C297    1.936   1_455 S
Br254  C270    1.940   .     S
Br256  C540    1.940   1_545 S
Br258  C274    1.940   1_455 S
Br260  C544    1.940   .     S
C269   Br521   1.936   .     S
C269   C369    1.415   .     A
C269   C17     1.402   1_655 S
C270   C286    1.398   .     A
C270   C370    1.413   .     A
C271   C287    1.400   .     A
C271   C371    1.412   .     A
C271   Br523   1.941   .     S
C272   C372    1.412   .     A
C272   C824    1.397   .     S
C272   Br1060  1.940   .     S
C273   C365    1.411   .     A
C273   Br525   1.941   .     S
C273   C285    1.401   .     A
C274   C366    1.412   .     A
C274   C18     1.398   1_655 S
C274   Br258   1.940   1_655 S
C275   Br527   1.936   .     S
C275   C367    1.415   .     A
C275   C823    1.401   .     S
C276   C288    1.398   .     A
C276   C368    1.413   .     A
C276   Br1064  1.940   1_545 S
C277   Br529   1.940   .     S
C277   C377    1.413   .     A
C277   C825    1.398   1_545 S
C278   C290    1.402   .     A
C278   C378    1.415   .     A
C278   Br530   1.936   .     S
C279   Br531   1.940   .     S
C279   C379    1.412   .     A
C279   C23     1.397   1_655 S
C280   Br532   1.941   .     S
C280   C380    1.412   .     A
C281   C373    1.412   .     A
C281   Br533   1.940   .     S
C281   C289    1.398   .     A
C282   C374    1.411   .     A
C282   Br534   1.941   .     S
C282   C826    1.401   1_545 S
C283   C375    1.413   .     A
C283   C291    1.398   .     A
C283   Br535   1.940   .     S
C284   Br536   1.936   .     S
C284   C376    1.415   .     A
C284   C292    1.401   .     A
C285   C311    1.459   .     S
C286   C312    1.452   .     S
C287   C309    1.459   .     S
C287   C811    1.401   1_545 S
C288   C310    1.452   .     S
C288   C808    1.397   1_545 S
C289   C813    1.398   .     S
C289   C851    1.452   .     S
C290   C818    1.401   .     S
C290   C852    1.459   .     S
C291   C313    1.452   .     S
C292   C12     1.400   1_655 S
C292   C46     1.459   1_655 S
C293   C365    1.413   .     A
C293   Br473   1.936   .     S
C293   C298    1.393   .     A
C294   Br474   1.936   .     S
C294   C366    1.413   .     A
C294   C297    1.393   .     A
C295   C367    1.415   .     A
C295   C300    1.392   .     A
C295   Br1011  1.936   .     S
C296   C368    1.414   .     A
C296   C299    1.394   .     A
C296   Br476   1.936   .     S
C297   C369    1.415   .     A
C297   Br209   1.936   1_655 S
C298   Br478   1.936   .     S
C298   C370    1.414   .     A
C299   C371    1.413   .     A
C299   Br479   1.936   .     S
C300   Br480   1.936   .     S
C300   C372    1.412   .     A
C301   C373    1.413   .     A
C301   Br481   1.936   .     S
C301   C306    1.393   1_556 S
C302   C374    1.413   .     A
C302   Br482   1.936   .     S
C302   C305    1.393   1_554 S
C303   Br483   1.936   .     S
C303   C375    1.414   .     A
C303   C308    1.394   1_556 S
C304   C376    1.415   .     A
C304   Br484   1.936   .     S
C304   C307    1.392   1_554 S
C305   Br485   1.936   .     S
C305   C377    1.414   .     A
C305   C302    1.393   1_556 S
C306   Br486   1.936   .     S
C306   C378    1.415   .     A
C306   C301    1.393   1_554 S
C307   Br487   1.936   .     S
C307   C379    1.412   .     A
C307   C304    1.392   1_556 S
C308   C380    1.413   .     A
C308   Br488   1.936   .     S
C308   C303    1.394   1_554 S
C309   O413    1.275   .     A
C309   O945    1.280   1_545 S
C310   O410    1.276   .     A
C310   O950    1.276   1_545 S
C311   O411    1.276   .     A
C312   O416    1.277   .     A
C313   O421    1.276   .     A
C313   O417    1.276   .     A
C314   O418    1.280   .     S
C314   O422    1.275   .     S
C315   O419    1.277   .     A
C315   O423    1.277   .     A
C315   C825    1.452   1_545 S
C316   C826    1.459   1_545 S
C316   O420    1.276   .     S
C316   O424    1.282   .     S
C317   O425    1.281   .     A
C317   C383    1.456   .     S
C317   O451    1.280   .     A
C318   O426    1.281   .     A
C318   C384    1.456   .     S
C318   O452    1.281   .     A
C319   C385    1.454   .     S
C319   O449    1.279   .     A
C319   O427    1.281   .     A
C320   O428    1.280   .     A
C320   O450    1.280   .     A
C320   C386    1.454   .     S
C321   C387    1.455   .     S
C321   O455    1.279   .     A
C321   O429    1.280   .     A
C322   C388    1.456   .     S
C322   O456    1.279   .     A
C322   O430    1.279   .     A
C323   O431    1.280   .     A
C323   C381    1.454   .     S
C323   O453    1.280   .     A
C324   C382    1.454   .     S
C324   O454    1.280   .     A
C324   O432    1.280   .     A
C325   O433    1.280   .     A
C325   O443    1.280   .     A
C325   C391    1.454   .     S
C326   O444    1.281   .     A
C326   C392    1.454   .     S
C326   O434    1.279   .     A
C327   C393    1.456   .     S
C327   O435    1.281   .     A
C327   O441    1.281   .     A
C328   O442    1.281   .     A
C328   O436    1.280   .     A
C328   C394    1.456   .     S
C329   C395    1.454   .     S
C329   O447    1.280   .     A
C329   O437    1.280   .     A
C330   O448    1.280   .     A
C330   O438    1.280   .     A
C330   C396    1.454   .     S
C331   C389    1.456   .     S
C331   O439    1.279   .     A
C331   O445    1.279   .     A
C332   C390    1.455   .     S
C332   O446    1.280   .     A
C332   O440    1.279   .     A
C333   Br489   1.933   .     S
C333   C396    1.408   .     A
C333   C348    1.400   .     A
C334   Br490   1.932   .     S
C334   C395    1.408   .     A
C334   C347    1.397   .     A
C335   C346    1.401   .     A
C335   C394    1.406   .     A
C335   Br491   1.926   .     S
C336   C345    1.401   .     A
C336   Br492   1.933   .     S
C336   C393    1.407   .     A
C337   C344    1.398   .     A
C337   C392    1.407   .     A
C337   Br493   1.935   .     S
C338   C391    1.408   .     A
C338   Br494   1.932   .     S
C338   C343    1.397   .     A
C339   C390    1.414   .     A
C339   Br495   1.943   .     S
C339   C342    1.391   .     A
C340   C389    1.407   .     A
C340   C341    1.400   .     A
C340   Br496   1.933   .     S
C341   Br497   1.933   .     S
C341   C388    1.407   .     A
C342   C387    1.415   .     A
C342   Br498   1.943   .     S
C343   C386    1.408   .     A
C343   Br499   1.932   .     S
C344   Br500   1.930   .     S
C344   C385    1.408   .     A
C345   C384    1.407   .     A
C345   Br501   1.933   .     S
C346   C383    1.405   .     A
C346   Br502   1.930   .     S
C347   C382    1.408   .     A
C347   Br503   1.932   .     S
C348   Br504   1.933   .     S
C348   C381    1.407   .     A
C349   C382    1.408   .     A
C349   C364    1.397   .     A
C349   Br505   1.932   .     S
C350   Br506   1.933   .     S
C350   C363    1.400   .     A
C350   C381    1.408   .     A
C351   C362    1.400   .     A
C351   Br507   1.933   .     S
C351   C384    1.407   .     A
C352   C383    1.406   .     A
C352   Br508   1.926   .     S
C352   C361    1.401   .     A
C353   C360    1.397   .     A
C353   C386    1.408   .     A
C353   Br509   1.932   .     S
C354   C359    1.398   .     A
C354   C385    1.407   .     A
C354   Br510   1.935   .     S
C355   C388    1.407   .     A
C355   C358    1.400   .     A
C355   Br511   1.933   .     S
C356   C357    1.391   .     A
C356   C387    1.414   .     A
C356   Br512   1.943   .     S
C357   C390    1.415   .     A
C357   Br513   1.943   .     S
C358   C389    1.407   .     A
C358   Br514   1.933   .     S
C359   Br515   1.930   .     S
C359   C392    1.408   .     A
C360   Br516   1.932   .     S
C360   C391    1.408   .     A
C361   C394    1.405   .     A
C361   Br517   1.930   .     S
C362   Br518   1.933   .     S
C362   C393    1.408   .     A
C363   Br519   1.933   .     S
C363   C396    1.407   .     A
C364   C395    1.408   .     A
C364   Br520   1.932   .     S
C365   C397    1.423   .     A
C366   C130    1.425   1_655 S
C367   C935    1.424   .     S
C368   C400    1.425   .     A
C369   C129    1.424   1_655 S
C370   C398    1.425   .     A
C371   C399    1.423   .     A
C372   C936    1.424   .     S
C373   C401    1.425   .     A
C374   C938    1.423   1_545 S
C376   C404    1.424   .     A
C377   C937    1.425   1_545 S
C378   C402    1.424   .     A
C379   C403    1.424   .     A
C397   C398    1.419   .     A
C399   C400    1.419   .     A
C399   C903    1.424   1_545 S
C400   C908    1.424   1_545 S
C401   C913    1.425   .     S
C401   C402    1.419   1_556 S
C402   C910    1.423   .     S
C402   C401    1.419   1_554 S
C403   C107    1.425   1_655 S
C403   C404    1.419   1_556 S
C404   C112    1.423   1_655 S
C404   C403    1.419   1_554 S
O405   Zn468   1.948   .     S
O405   Zn457   1.949   .     S
O405   Zn461   1.947   .     S
O405   Zn1008  1.945   1_545 S
O406   Zn458   1.949   .     S
O406   Zn462   1.947   .     S
O406   Zn471   1.945   .     S
O406   Zn1003  1.948   1_545 S
O407   Zn466   1.949   .     S
O407   Zn459   1.948   .     S
O407   Zn463   1.945   .     S
O408   Zn464   1.945   .     S
O408   Zn460   1.948   .     S
O408   Zn469   1.947   .     S
O409   Zn472   1.949   .     S
O409   C845    1.280   .     S
O410   Zn471   1.949   .     S
O411   Zn466   1.949   .     S
O412   Zn465   1.949   .     S
O412   C44     1.277   1_655 S
O413   Zn468   1.948   .     S
O414   Zn467   1.948   .     S
O414   C846    1.276   .     S
O415   Zn470   1.949   .     S
O415   C43     1.282   1_655 S
O416   Zn469   1.949   .     S
O417   Zn464   1.949   .     S
O418   Zn463   1.949   .     S
O419   Zn458   1.949   .     S
O420   Zn457   1.949   .     S
O421   Zn460   1.948   .     S
O422   Zn459   1.948   .     S
O423   Zn462   1.949   .     S
O424   Zn461   1.949   .     S
O425   Zn468   1.937   .     S
O426   Zn467   1.937   .     S
O427   Zn470   1.935   .     S
O428   Zn469   1.935   .     S
O429   Zn472   1.937   .     S
O430   Zn471   1.937   .     S
O431   Zn466   1.934   .     S
O432   Zn465   1.934   .     S
O433   Zn467   1.935   .     S
O434   Zn468   1.935   .     S
O435   Zn465   1.937   .     S
O436   Zn466   1.937   .     S
O437   Zn471   1.936   .     S
O438   Zn472   1.936   .     S
O439   Zn469   1.936   .     S
O440   Zn470   1.936   .     S
O441   Zn192   1.937   1_655 S
O442   Zn459   1.937   .     S
O443   Zn998   1.935   .     S
O444   Zn461   1.935   .     S
O445   Zn464   1.937   .     S
O446   Zn195   1.937   1_655 S
O447   Zn458   1.934   .     S
O448   Zn993   1.934   .     S
O449   Zn191   1.935   1_655 S
O450   Zn460   1.935   .     S
O451   Zn457   1.937   .     S
O452   Zn994   1.937   .     S
O453   Zn463   1.936   .     S
O454   Zn196   1.936   1_655 S
O455   Zn997   1.936   .     S
O456   Zn462   1.936   .     S
Zn457  O984    1.934   1_545 S
Zn458  O988    1.937   1_545 S
Zn461  O991    1.936   1_545 S
Zn462  O979    1.935   1_545 S
Zn465  O140    1.949   1_655 S
Zn467  O942    1.948   .     S
Zn470  O139    1.947   1_655 S
Zn472  O941    1.945   .     S
Br475  C831    1.936   1_545 S
Br522  C2      1.940   1_655 S
Br524  C808    1.940   1_545 S
Br528  C812    1.940   .     S
C537   Br789   1.936   .     S
C537   C637    1.415   .     A
C537   C821    1.402   .     S
C538   C554    1.398   .     A
C538   C638    1.413   .     A
C538   Br1058  1.940   1_455 S
C539   C555    1.400   .     A
C539   C639    1.412   .     A
C539   Br791   1.941   .     S
C540   C640    1.412   .     A
C540   C20     1.397   1_565 S
C540   Br256   1.940   1_565 S
C541   C633    1.411   .     A
C541   Br793   1.941   .     S
C541   C553    1.401   .     A
C542   C634    1.412   .     A
C542   C822    1.398   .     S
C542   Br1062  1.940   .     S
C543   Br795   1.936   .     S
C543   C635    1.415   .     A
C543   C19     1.401   1_565 S
C544   C556    1.398   .     A
C544   C636    1.413   .     A
C545   Br797   1.940   .     S
C545   C645    1.413   .     A
C546   C558    1.402   .     A
C546   C646    1.415   .     A
C546   Br798   1.936   .     S
C547   Br799   1.940   .     S
C547   C647    1.412   .     A
C547   C827    1.397   .     S
C548   Br800   1.941   .     S
C548   C648    1.412   .     A
C548   C828    1.400   1_455 S
C549   C641    1.412   .     A
C549   Br801   1.940   .     S
C549   C557    1.398   .     A
C550   C642    1.411   .     A
C550   Br802   1.941   .     S
C551   C643    1.413   .     A
C551   C559    1.398   .     A
C551   Br803   1.940   .     S
C552   Br804   1.936   .     S
C552   C644    1.415   .     A
C552   C560    1.401   .     A
C553   C579    1.459   .     S
C553   C805    1.402   1_455 S
C554   C580    1.452   .     S
C554   C810    1.398   1_455 S
C555   C577    1.459   .     S
C556   C578    1.452   .     S
C557   C9      1.398   1_565 S
C557   C47     1.452   1_565 S
C558   C14     1.401   1_565 S
C558   C48     1.459   1_565 S
C559   C581    1.452   .     S
C559   C815    1.397   1_455 S
C560   C816    1.400   .     S
C560   C850    1.459   .     S
C561   C633    1.413   .     A
C561   Br741   1.936   .     S
C561   C566    1.393   .     A
C562   Br742   1.936   .     S
C562   C634    1.413   .     A
C562   C565    1.393   .     A
C563   C635    1.415   .     A
C563   C568    1.392   .     A
C563   Br207   1.936   1_565 S
C564   C636    1.414   .     A
C564   C567    1.394   .     A
C564   Br744   1.936   .     S
C565   C637    1.415   .     A
C565   Br1013  1.936   .     S
C566   Br746   1.936   .     S
C566   C638    1.414   .     A
C567   C639    1.413   .     A
C567   Br747   1.936   .     S
C568   Br748   1.936   .     S
C568   C640    1.412   .     A
C569   C641    1.413   .     A
C569   Br749   1.936   .     S
C569   C574    1.393   1_556 S
C570   C642    1.413   .     A
C570   Br750   1.936   .     S
C570   C573    1.393   1_554 S
C571   Br751   1.936   .     S
C571   C643    1.414   .     A
C571   C576    1.394   1_556 S
C572   C644    1.415   .     A
C572   Br752   1.936   .     S
C572   C575    1.392   1_554 S
C573   Br753   1.936   .     S
C573   C645    1.414   .     A
C573   C570    1.393   1_556 S
C574   Br754   1.936   .     S
C574   C646    1.415   .     A
C574   C569    1.393   1_554 S
C575   Br755   1.936   .     S
C575   C647    1.412   .     A
C575   C572    1.392   1_556 S
C576   C648    1.413   .     A
C576   Br756   1.936   .     S
C576   C571    1.394   1_554 S
C577   O681    1.275   .     A
C578   O678    1.276   .     A
C579   O679    1.276   .     A
C579   O951    1.282   1_455 S
C580   O684    1.277   .     A
C580   O948    1.277   1_455 S
C581   O689    1.276   .     A
C581   O685    1.276   .     A
C582   C828    1.459   1_455 S
C582   O686    1.280   .     S
C582   O690    1.275   .     S
C583   O687    1.277   .     A
C583   O691    1.277   .     A
C584   O688    1.276   .     S
C584   O692    1.282   .     S
C585   O693    1.281   .     A
C585   C651    1.456   .     S
C585   O719    1.280   .     A
C586   O694    1.281   .     A
C586   C652    1.456   .     S
C586   O720    1.281   .     A
C587   C653    1.454   .     S
C587   O717    1.279   .     A
C587   O695    1.281   .     A
C588   O696    1.280   .     A
C588   O718    1.280   .     A
C588   C654    1.454   .     S
C589   C655    1.455   .     S
C589   O723    1.279   .     A
C589   O697    1.280   .     A
C590   C656    1.456   .     S
C590   O724    1.279   .     A
C590   O698    1.279   .     A
C591   O699    1.280   .     A
C591   C649    1.454   .     S
C591   O721    1.280   .     A
C592   C650    1.454   .     S
C592   O722    1.280   .     A
C592   O700    1.280   .     A
C593   O701    1.280   .     A
C593   O711    1.280   .     A
C593   C659    1.454   .     S
C594   O712    1.281   .     A
C594   C660    1.454   .     S
C594   O702    1.279   .     A
C595   C661    1.456   .     S
C595   O703    1.281   .     A
C595   O709    1.281   .     A
C596   O710    1.281   .     A
C596   O704    1.280   .     A
C596   C662    1.456   .     S
C597   C663    1.454   .     S
C597   O715    1.280   .     A
C597   O705    1.280   .     A
C598   O716    1.280   .     A
C598   O706    1.280   .     A
C598   C664    1.454   .     S
C599   C657    1.456   .     S
C599   O707    1.279   .     A
C599   O713    1.279   .     A
C600   C658    1.455   .     S
C600   O714    1.280   .     A
C600   O708    1.279   .     A
C601   Br757   1.933   .     S
C601   C664    1.408   .     A
C601   C616    1.400   .     A
C602   Br758   1.932   .     S
C602   C663    1.408   .     A
C602   C615    1.397   .     A
C603   C614    1.401   .     A
C603   C662    1.406   .     A
C603   Br759   1.926   .     S
C604   C613    1.401   .     A
C604   Br760   1.933   .     S
C604   C661    1.407   .     A
C605   C612    1.398   .     A
C605   C660    1.407   .     A
C605   Br761   1.935   .     S
C606   C659    1.408   .     A
C606   Br762   1.932   .     S
C606   C611    1.397   .     A
C607   C658    1.414   .     A
C607   Br763   1.943   .     S
C607   C610    1.391   .     A
C608   C657    1.407   .     A
C608   C609    1.400   .     A
C608   Br764   1.933   .     S
C609   Br765   1.933   .     S
C609   C656    1.407   .     A
C610   C655    1.415   .     A
C610   Br766   1.943   .     S
C611   C654    1.408   .     A
C611   Br767   1.932   .     S
C612   Br768   1.930   .     S
C612   C653    1.408   .     A
C613   C652    1.407   .     A
C613   Br769   1.933   .     S
C614   C651    1.405   .     A
C614   Br770   1.930   .     S
C615   C650    1.408   .     A
C615   Br771   1.932   .     S
C616   Br772   1.933   .     S
C616   C649    1.407   .     A
C617   C650    1.408   .     A
C617   C632    1.397   .     A
C617   Br773   1.932   .     S
C618   Br774   1.933   .     S
C618   C631    1.400   .     A
C618   C649    1.408   .     A
C619   C630    1.400   .     A
C619   Br775   1.933   .     S
C619   C652    1.407   .     A
C620   C651    1.406   .     A
C620   Br776   1.926   .     S
C620   C629    1.401   .     A
C621   C628    1.397   .     A
C621   C654    1.408   .     A
C621   Br777   1.932   .     S
C622   C627    1.398   .     A
C622   C653    1.407   .     A
C622   Br778   1.935   .     S
C623   C656    1.407   .     A
C623   C626    1.400   .     A
C623   Br779   1.933   .     S
C624   C625    1.391   .     A
C624   C655    1.414   .     A
C624   Br780   1.943   .     S
C625   C658    1.415   .     A
C625   Br781   1.943   .     S
C626   C657    1.407   .     A
C626   Br782   1.933   .     S
C627   Br783   1.930   .     S
C627   C660    1.408   .     A
C628   Br784   1.932   .     S
C628   C659    1.408   .     A
C629   C662    1.405   .     A
C629   Br785   1.930   .     S
C630   Br786   1.933   .     S
C630   C661    1.408   .     A
C631   Br787   1.933   .     S
C631   C664    1.407   .     A
C632   C663    1.408   .     A
C632   Br788   1.932   .     S
C633   C665    1.423   .     A
C634   C934    1.425   .     S
C635   C131    1.424   1_565 S
C636   C668    1.425   .     A
C637   C933    1.424   .     S
C638   C666    1.425   .     A
C639   C667    1.423   .     A
C640   C132    1.424   1_565 S
C641   C669    1.425   .     A
C643   C939    1.425   1_455 S
C644   C672    1.424   .     A
C646   C670    1.424   .     A
C647   C671    1.424   .     A
C648   C940    1.423   1_455 S
C665   C666    1.419   .     A
C665   C905    1.424   1_455 S
C666   C902    1.425   1_455 S
C667   C668    1.419   .     A
C669   C109    1.425   1_565 S
C669   C670    1.419   1_556 S
C670   C106    1.423   1_565 S
C670   C669    1.419   1_554 S
C671   C911    1.425   .     S
C671   C672    1.419   1_556 S
C672   C916    1.423   .     S
C672   C671    1.419   1_554 S
O673   Zn736   1.948   .     S
O673   Zn725   1.949   .     S
O673   Zn729   1.947   .     S
O674   Zn726   1.949   .     S
O674   Zn730   1.947   .     S
O674   Zn739   1.945   .     S
O675   Zn734   1.949   .     S
O675   Zn727   1.948   .     S
O675   Zn731   1.945   .     S
O675   Zn1006  1.947   1_455 S
O676   Zn732   1.945   .     S
O676   Zn728   1.948   .     S
O676   Zn737   1.947   .     S
O676   Zn1001  1.949   1_455 S
O677   Zn740   1.949   .     S
O677   C41     1.280   1_565 S
O678   Zn739   1.949   .     S
O679   Zn734   1.949   .     S
O680   Zn733   1.949   .     S
O680   C848    1.277   .     S
O681   Zn736   1.948   .     S
O682   Zn735   1.948   .     S
O682   C42     1.276   1_565 S
O683   Zn738   1.949   .     S
O683   C847    1.282   .     S
O684   Zn737   1.949   .     S
O685   Zn732   1.949   .     S
O686   Zn731   1.949   .     S
O687   Zn726   1.949   .     S
O688   Zn725   1.949   .     S
O689   Zn728   1.948   .     S
O690   Zn727   1.948   .     S
O691   Zn730   1.949   .     S
O692   Zn729   1.949   .     S
O693   Zn736   1.937   .     S
O694   Zn735   1.937   .     S
O695   Zn738   1.935   .     S
O696   Zn737   1.935   .     S
O697   Zn740   1.937   .     S
O698   Zn739   1.937   .     S
O699   Zn734   1.934   .     S
O700   Zn733   1.934   .     S
O701   Zn735   1.935   .     S
O702   Zn736   1.935   .     S
O703   Zn733   1.937   .     S
O704   Zn734   1.937   .     S
O705   Zn739   1.936   .     S
O706   Zn740   1.936   .     S
O707   Zn737   1.936   .     S
O708   Zn738   1.936   .     S
O709   Zn996   1.937   .     S
O710   Zn727   1.937   .     S
O711   Zn194   1.935   1_565 S
O712   Zn729   1.935   .     S
O713   Zn732   1.937   .     S
O714   Zn999   1.937   .     S
O715   Zn726   1.934   .     S
O716   Zn189   1.934   1_565 S
O717   Zn995   1.935   .     S
O718   Zn728   1.935   .     S
O719   Zn725   1.937   .     S
O720   Zn190   1.937   1_565 S
O721   Zn731   1.936   .     S
O722   Zn1000  1.936   .     S
O723   Zn193   1.936   1_565 S
O724   Zn730   1.936   .     S
Zn727  O985    1.935   1_455 S
Zn728  O977    1.937   1_455 S
Zn731  O982    1.937   1_455 S
Zn732  O990    1.936   1_455 S
Zn733  O944    1.949   .     S
Zn735  O138    1.948   1_565 S
Zn738  O943    1.947   .     S
Zn740  O137    1.945   1_565 S
Br745  C833    1.936   1_455 S
Br790  C806    1.940   .     S
Br794  C810    1.940   1_455 S
Br796  C8      1.940   1_565 S
C805   Br1057  1.936   .     S
C805   C905    1.415   .     A
C805   C553    1.402   1_655 S
C806   C822    1.398   .     A
C806   C906    1.413   .     A
C807   C823    1.400   .     A
C807   C907    1.412   .     A
C807   Br1059  1.941   .     S
C808   C908    1.412   .     A
C808   C288    1.397   1_565 S
C808   Br524   1.940   1_565 S
C809   C901    1.411   .     A
C809   Br1061  1.941   .     S
C809   C821    1.401   .     A
C810   C902    1.412   .     A
C810   C554    1.398   1_655 S
C810   Br794   1.940   1_655 S
C811   Br1063  1.936   .     S
C811   C903    1.415   .     A
C811   C287    1.401   1_565 S
C812   C824    1.398   .     A
C812   C904    1.413   .     A
C813   Br1065  1.940   .     S
C813   C913    1.413   .     A
C814   C826    1.402   .     A
C814   C914    1.415   .     A
C814   Br1066  1.936   .     S
C815   Br1067  1.940   .     S
C815   C915    1.412   .     A
C815   C559    1.397   1_655 S
C816   Br1068  1.941   .     S
C816   C916    1.412   .     A
C817   C909    1.412   .     A
C817   Br1069  1.940   .     S
C817   C825    1.398   .     A
C818   C910    1.411   .     A
C818   Br1070  1.941   .     S
C819   C911    1.413   .     A
C819   C827    1.398   .     A
C819   Br1071  1.940   .     S
C820   Br1072  1.936   .     S
C820   C912    1.415   .     A
C820   C828    1.401   .     A
C821   C847    1.459   .     S
C822   C848    1.452   .     S
C823   C845    1.459   .     S
C824   C846    1.452   .     S
C825   C277    1.398   1_565 S
C825   C315    1.452   1_565 S
C826   C282    1.401   1_565 S
C826   C316    1.459   1_565 S
C827   C849    1.452   .     S
C828   C548    1.400   1_655 S
C828   C582    1.459   1_655 S
C829   C901    1.413   .     A
C829   Br1009  1.936   .     S
C829   C834    1.393   .     A
C830   Br1010  1.936   .     S
C830   C902    1.413   .     A
C830   C833    1.393   .     A
C831   C903    1.415   .     A
C831   C836    1.392   .     A
C831   Br475   1.936   1_565 S
C832   C904    1.414   .     A
C832   C835    1.394   .     A
C832   Br1012  1.936   .     S
C833   C905    1.415   .     A
C833   Br745   1.936   1_655 S
C834   Br1014  1.936   .     S
C834   C906    1.414   .     A
C835   C907    1.413   .     A
C835   Br1015  1.936   .     S
C836   Br1016  1.936   .     S
C836   C908    1.412   .     A
C837   C909    1.413   .     A
C837   Br1017  1.936   .     S
C837   C842    1.393   1_556 S
C838   C910    1.413   .     A
C838   Br1018  1.936   .     S
C838   C841    1.393   1_554 S
C839   Br1019  1.936   .     S
C839   C911    1.414   .     A
C839   C844    1.394   1_556 S
C840   C912    1.415   .     A
C840   Br1020  1.936   .     S
C840   C843    1.392   1_554 S
C841   Br1021  1.936   .     S
C841   C913    1.414   .     A
C841   C838    1.393   1_556 S
C842   Br1022  1.936   .     S
C842   C914    1.415   .     A
C842   C837    1.393   1_554 S
C843   Br1023  1.936   .     S
C843   C915    1.412   .     A
C843   C840    1.392   1_556 S
C844   C916    1.413   .     A
C844   Br1024  1.936   .     S
C844   C839    1.394   1_554 S
C845   O949    1.275   .     A
C846   O946    1.276   .     A
C847   O947    1.276   .     A
C848   O952    1.277   .     A
C849   O957    1.276   .     A
C849   O953    1.276   .     A
C850   O954    1.280   .     S
C850   O958    1.275   .     S
C851   O955    1.277   .     A
C851   O959    1.277   .     A
C852   O956    1.276   .     S
C852   O960    1.282   .     S
C853   O961    1.281   .     A
C853   C919    1.456   .     S
C853   O987    1.280   .     A
C854   O962    1.281   .     A
C854   C920    1.456   .     S
C854   O988    1.281   .     A
C855   C921    1.454   .     S
C855   O985    1.279   .     A
C855   O963    1.281   .     A
C856   O964    1.280   .     A
C856   O986    1.280   .     A
C856   C922    1.454   .     S
C857   C923    1.455   .     S
C857   O991    1.279   .     A
C857   O965    1.280   .     A
C858   C924    1.456   .     S
C858   O992    1.279   .     A
C858   O966    1.279   .     A
C859   O967    1.280   .     A
C859   C917    1.454   .     S
C859   O989    1.280   .     A
C860   C918    1.454   .     S
C860   O990    1.280   .     A
C860   O968    1.280   .     A
C861   O969    1.280   .     A
C861   O979    1.280   .     A
C861   C927    1.454   .     S
C862   O980    1.281   .     A
C862   C928    1.454   .     S
C862   O970    1.279   .     A
C863   C929    1.456   .     S
C863   O971    1.281   .     A
C863   O977    1.281   .     A
C864   O978    1.281   .     A
C864   O972    1.280   .     A
C864   C930    1.456   .     S
C865   C931    1.454   .     S
C865   O983    1.280   .     A
C865   O973    1.280   .     A
C866   O984    1.280   .     A
C866   O974    1.280   .     A
C866   C932    1.454   .     S
C867   C925    1.456   .     S
C867   O975    1.279   .     A
C867   O981    1.279   .     A
C868   C926    1.455   .     S
C868   O982    1.280   .     A
C868   O976    1.279   .     A
C869   Br1025  1.933   .     S
C869   C932    1.408   .     A
C869   C884    1.400   .     A
C870   Br1026  1.932   .     S
C870   C931    1.408   .     A
C870   C883    1.397   .     A
C871   C882    1.401   .     A
C871   C930    1.406   .     A
C871   Br1027  1.926   .     S
C872   C881    1.401   .     A
C872   Br1028  1.933   .     S
C872   C929    1.407   .     A
C873   C880    1.398   .     A
C873   C928    1.407   .     A
C873   Br1029  1.935   .     S
C874   C927    1.408   .     A
C874   Br1030  1.932   .     S
C874   C879    1.397   .     A
C875   C926    1.414   .     A
C875   Br1031  1.943   .     S
C875   C878    1.391   .     A
C876   C925    1.407   .     A
C876   C877    1.400   .     A
C876   Br1032  1.933   .     S
C877   Br1033  1.933   .     S
C877   C924    1.407   .     A
C878   C923    1.415   .     A
C878   Br1034  1.943   .     S
C879   C922    1.408   .     A
C879   Br1035  1.932   .     S
C880   Br1036  1.930   .     S
C880   C921    1.408   .     A
C881   C920    1.407   .     A
C881   Br1037  1.933   .     S
C882   C919    1.405   .     A
C882   Br1038  1.930   .     S
C883   C918    1.408   .     A
C883   Br1039  1.932   .     S
C884   Br1040  1.933   .     S
C884   C917    1.407   .     A
C885   C918    1.408   .     A
C885   C900    1.397   .     A
C885   Br1041  1.932   .     S
C886   Br1042  1.933   .     S
C886   C899    1.400   .     A
C886   C917    1.408   .     A
C887   C898    1.400   .     A
C887   Br1043  1.933   .     S
C887   C920    1.407   .     A
C888   C919    1.406   .     A
C888   Br1044  1.926   .     S
C888   C897    1.401   .     A
C889   C896    1.397   .     A
C889   C922    1.408   .     A
C889   Br1045  1.932   .     S
C890   C895    1.398   .     A
C890   C921    1.407   .     A
C890   Br1046  1.935   .     S
C891   C924    1.407   .     A
C891   C894    1.400   .     A
C891   Br1047  1.933   .     S
C892   C893    1.391   .     A
C892   C923    1.414   .     A
C892   Br1048  1.943   .     S
C893   C926    1.415   .     A
C893   Br1049  1.943   .     S
C894   C925    1.407   .     A
C894   Br1050  1.933   .     S
C895   Br1051  1.930   .     S
C895   C928    1.408   .     A
C896   Br1052  1.932   .     S
C896   C927    1.408   .     A
C897   C930    1.405   .     A
C897   Br1053  1.930   .     S
C898   Br1054  1.933   .     S
C898   C929    1.408   .     A
C899   Br1055  1.933   .     S
C899   C932    1.407   .     A
C900   C931    1.408   .     A
C900   Br1056  1.932   .     S
C901   C933    1.423   .     A
C902   C666    1.425   1_655 S
C903   C399    1.424   1_565 S
C904   C936    1.425   .     A
C905   C665    1.424   1_655 S
C906   C934    1.425   .     A
C907   C935    1.423   .     A
C908   C400    1.424   1_565 S
C909   C937    1.425   .     A
C912   C940    1.424   .     A
C914   C938    1.424   .     A
C915   C939    1.424   .     A
C933   C934    1.419   .     A
C935   C936    1.419   .     A
C937   C377    1.425   1_565 S
C937   C938    1.419   1_556 S
C938   C374    1.423   1_565 S
C938   C937    1.419   1_554 S
C939   C643    1.425   1_655 S
C939   C940    1.419   1_556 S
C940   C648    1.423   1_655 S
C940   C939    1.419   1_554 S
O941   Zn1004  1.948   .     S
O941   Zn993   1.949   .     S
O941   Zn997   1.947   .     S
O942   Zn994   1.949   .     S
O942   Zn998   1.947   .     S
O942   Zn1007  1.945   .     S
O943   Zn1002  1.949   .     S
O943   Zn995   1.948   .     S
O943   Zn999   1.945   .     S
O944   Zn1000  1.945   .     S
O944   Zn996   1.948   .     S
O944   Zn1005  1.947   .     S
O945   Zn1008  1.949   .     S
O945   C309    1.280   1_565 S
O946   Zn1007  1.949   .     S
O947   Zn1002  1.949   .     S
O948   Zn1001  1.949   .     S
O948   C580    1.277   1_655 S
O949   Zn1004  1.948   .     S
O950   Zn1003  1.948   .     S
O950   C310    1.276   1_565 S
O951   Zn1006  1.949   .     S
O951   C579    1.282   1_655 S
O952   Zn1005  1.949   .     S
O953   Zn1000  1.949   .     S
O954   Zn999   1.949   .     S
O955   Zn994   1.949   .     S
O956   Zn993   1.949   .     S
O957   Zn996   1.948   .     S
O958   Zn995   1.948   .     S
O959   Zn998   1.949   .     S
O960   Zn997   1.949   .     S
O961   Zn1004  1.937   .     S
O962   Zn1003  1.937   .     S
O963   Zn1006  1.935   .     S
O964   Zn1005  1.935   .     S
O965   Zn1008  1.937   .     S
O966   Zn1007  1.937   .     S
O967   Zn1002  1.934   .     S
O968   Zn1001  1.934   .     S
O969   Zn1003  1.935   .     S
O970   Zn1004  1.935   .     S
O971   Zn1001  1.937   .     S
O972   Zn1002  1.937   .     S
O973   Zn1007  1.936   .     S
O974   Zn1008  1.936   .     S
O975   Zn1005  1.936   .     S
O976   Zn1006  1.936   .     S
O977   Zn728   1.937   1_655 S
O978   Zn995   1.937   .     S
O979   Zn462   1.935   1_565 S
O980   Zn997   1.935   .     S
O981   Zn1000  1.937   .     S
O982   Zn731   1.937   1_655 S
O983   Zn994   1.934   .     S
O984   Zn457   1.934   1_565 S
O985   Zn727   1.935   1_655 S
O986   Zn996   1.935   .     S
O987   Zn993   1.937   .     S
O988   Zn458   1.937   1_565 S
O989   Zn999   1.936   .     S
O990   Zn732   1.936   1_655 S
O991   Zn461   1.936   1_565 S
O992   Zn998   1.936   .     S
Zn1001 O676    1.949   1_655 S
Zn1003 O406    1.948   1_565 S
Zn1006 O675    1.947   1_655 S
Zn1008 O405    1.945   1_565 S
Br1058 C538    1.940   1_655 S
Br1064 C276    1.940   1_565 S
