data_str_m3_o1_o5_pcu_sym.10
_audit_creation_date              2020-01-03
_audit_creation_method            'Materials Studio'
_symmetry_space_group_name_H-M    'P1'
_symmetry_Int_Tables_number       1
_symmetry_cell_setting            triclinic
loop_
_symmetry_equiv_pos_as_xyz
  x,y,z
_cell_length_a                    32.3607
_cell_length_b                    29.8866
_cell_length_c                    26.6596
_cell_angle_alpha                 89.9998
_cell_angle_beta                  92.7623
_cell_angle_gamma                 89.9995
loop_
_atom_site_label
_atom_site_type_symbol
_atom_site_fract_x
_atom_site_fract_y
_atom_site_fract_z
_atom_site_U_iso_or_equiv
_atom_site_adp_type
_atom_site_occupancy
C1     C     0.08697   0.16667   0.17103   0.00000  Uiso   1.00
C2     C     0.02086   0.20766   0.17353   0.00000  Uiso   1.00
C3     C     0.29085   0.16667   0.15788   0.00000  Uiso   1.00
C4     C     0.04249   0.16667   0.17545   0.00000  Uiso   1.00
C5     C     0.19213   0.02390   0.19988   0.00000  Uiso   1.00
C6     C     0.14121   0.30944   0.13345   0.00000  Uiso   1.00
C7     C     0.14121   0.02390   0.13345   0.00000  Uiso   1.00
C8     C     0.19213   0.30944   0.19988   0.00000  Uiso   1.00
C9     C     0.03997   0.08375   0.18978   0.00000  Uiso   1.00
C10    C     0.29336   0.24958   0.14355   0.00000  Uiso   1.00
C11    C     0.29336   0.08375   0.14356   0.00000  Uiso   1.00
C12    C     0.24636   0.16667   0.16230   0.00000  Uiso   1.00
C13    C     0.03997   0.24958   0.18977   0.00000  Uiso   1.00
C14    C     0.16661   0.16667   0.07301   0.00000  Uiso   1.00
C15    C     0.16673   0.16667   0.26032   0.00000  Uiso   1.00
C16    C     0.16665   0.16667   0.02184   0.00000  Uiso   1.00
C17    C     0.16668   0.16667   0.31150   0.00000  Uiso   1.00
C18    C     0.02086   0.12568   0.17354   0.00000  Uiso   1.00
C19    C     0.31248   0.20766   0.15979   0.00000  Uiso   1.00
C20    C     0.31248   0.12568   0.15980   0.00000  Uiso   1.00
I21    I     0.23265   0.05832   0.25266   0.00000  Uiso   1.00
I22    I     0.10069   0.27501   0.08068   0.00000  Uiso   1.00
I23    I     0.10068   0.05833   0.08068   0.00000  Uiso   1.00
I24    I     0.23265   0.27501   0.25266   0.00000  Uiso   1.00
N25    N     0.16667   0.28573   0.16667   0.00000  Uiso   1.00
N26    N     0.16667   0.04760   0.16667   0.00000  Uiso   1.00
N27    N     0.05508   0.05046   0.20310   0.00000  Uiso   1.00
N28    N     0.27825   0.28288   0.13023   0.00000  Uiso   1.00
N29    N     0.27826   0.05045   0.13025   0.00000  Uiso   1.00
N30    N     0.05508   0.28288   0.20308   0.00000  Uiso   1.00
O31    O     0.10559   0.20487   0.16666   0.00000  Uiso   1.00
O32    O     0.22774   0.12846   0.16667   0.00000  Uiso   1.00
O33    O     0.22774   0.20487   0.16667   0.00000  Uiso   1.00
O34    O     0.10559   0.12846   0.16666   0.00000  Uiso   1.00
O35    O     0.16667   0.20488   0.09511   0.00000  Uiso   1.00
O36    O     0.16666   0.12845   0.23822   0.00000  Uiso   1.00
O37    O     0.16666   0.20488   0.23822   0.00000  Uiso   1.00
O38    O     0.16667   0.12845   0.09511   0.00000  Uiso   1.00
Zn39   Zn    0.16667   0.21771   0.16667   0.00000  Uiso   1.00
Zn40   Zn    0.16667   0.11563   0.16667   0.00000  Uiso   1.00
C41    C     0.42030   0.16667   0.17103   0.00000  Uiso   1.00
C42    C     0.35419   0.20766   0.17353   0.00000  Uiso   1.00
C43    C     0.62418   0.16667   0.15788   0.00000  Uiso   1.00
C44    C     0.37582   0.16667   0.17545   0.00000  Uiso   1.00
C45    C     0.52546   0.02390   0.19988   0.00000  Uiso   1.00
C46    C     0.47454   0.30944   0.13345   0.00000  Uiso   1.00
C47    C     0.47454   0.02390   0.13345   0.00000  Uiso   1.00
C48    C     0.52546   0.30944   0.19988   0.00000  Uiso   1.00
C49    C     0.37331   0.08375   0.18978   0.00000  Uiso   1.00
C50    C     0.62669   0.24958   0.14355   0.00000  Uiso   1.00
C51    C     0.62670   0.08375   0.14356   0.00000  Uiso   1.00
C52    C     0.57970   0.16667   0.16230   0.00000  Uiso   1.00
C53    C     0.37330   0.24958   0.18977   0.00000  Uiso   1.00
C54    C     0.49994   0.16667   0.07301   0.00000  Uiso   1.00
C55    C     0.50006   0.16667   0.26032   0.00000  Uiso   1.00
C56    C     0.49998   0.16667   0.02184   0.00000  Uiso   1.00
C57    C     0.50002   0.16667   0.31150   0.00000  Uiso   1.00
C58    C     0.35419   0.12568   0.17354   0.00000  Uiso   1.00
C59    C     0.64581   0.20766   0.15979   0.00000  Uiso   1.00
C60    C     0.64581   0.12568   0.15980   0.00000  Uiso   1.00
I61    I     0.56598   0.05832   0.25266   0.00000  Uiso   1.00
I62    I     0.43402   0.27501   0.08068   0.00000  Uiso   1.00
I63    I     0.43402   0.05833   0.08068   0.00000  Uiso   1.00
I64    I     0.56598   0.27501   0.25266   0.00000  Uiso   1.00
N65    N     0.50000   0.28573   0.16667   0.00000  Uiso   1.00
N66    N     0.50000   0.04760   0.16667   0.00000  Uiso   1.00
N67    N     0.38841   0.05046   0.20310   0.00000  Uiso   1.00
N68    N     0.61159   0.28288   0.13023   0.00000  Uiso   1.00
N69    N     0.61159   0.05045   0.13025   0.00000  Uiso   1.00
N70    N     0.38841   0.28288   0.20308   0.00000  Uiso   1.00
O71    O     0.43892   0.20487   0.16666   0.00000  Uiso   1.00
O72    O     0.56108   0.12846   0.16667   0.00000  Uiso   1.00
O73    O     0.56108   0.20487   0.16667   0.00000  Uiso   1.00
O74    O     0.43892   0.12846   0.16666   0.00000  Uiso   1.00
O75    O     0.50000   0.20488   0.09511   0.00000  Uiso   1.00
O76    O     0.50000   0.12845   0.23822   0.00000  Uiso   1.00
O77    O     0.50000   0.20488   0.23822   0.00000  Uiso   1.00
O78    O     0.50000   0.12845   0.09511   0.00000  Uiso   1.00
Zn79   Zn    0.50000   0.21771   0.16667   0.00000  Uiso   1.00
Zn80   Zn    0.50000   0.11563   0.16667   0.00000  Uiso   1.00
C81    C     0.75364   0.16667   0.17103   0.00000  Uiso   1.00
C82    C     0.68752   0.20766   0.17353   0.00000  Uiso   1.00
C83    C     0.95751   0.16667   0.15788   0.00000  Uiso   1.00
C84    C     0.70915   0.16667   0.17545   0.00000  Uiso   1.00
C85    C     0.85879   0.02390   0.19988   0.00000  Uiso   1.00
C86    C     0.80787   0.30944   0.13345   0.00000  Uiso   1.00
C87    C     0.80787   0.02390   0.13345   0.00000  Uiso   1.00
C88    C     0.85879   0.30944   0.19988   0.00000  Uiso   1.00
C89    C     0.70664   0.08375   0.18978   0.00000  Uiso   1.00
C90    C     0.96003   0.24958   0.14355   0.00000  Uiso   1.00
C91    C     0.96003   0.08375   0.14356   0.00000  Uiso   1.00
C92    C     0.91303   0.16667   0.16230   0.00000  Uiso   1.00
C93    C     0.70664   0.24958   0.18977   0.00000  Uiso   1.00
C94    C     0.83327   0.16667   0.07301   0.00000  Uiso   1.00
C95    C     0.83339   0.16667   0.26032   0.00000  Uiso   1.00
C96    C     0.83332   0.16667   0.02184   0.00000  Uiso   1.00
C97    C     0.83335   0.16667   0.31150   0.00000  Uiso   1.00
C98    C     0.68753   0.12568   0.17354   0.00000  Uiso   1.00
C99    C     0.97914   0.20766   0.15979   0.00000  Uiso   1.00
C100   C     0.97914   0.12568   0.15980   0.00000  Uiso   1.00
I101   I     0.89931   0.05832   0.25266   0.00000  Uiso   1.00
I102   I     0.76735   0.27501   0.08068   0.00000  Uiso   1.00
I103   I     0.76735   0.05833   0.08068   0.00000  Uiso   1.00
I104   I     0.89932   0.27501   0.25266   0.00000  Uiso   1.00
N105   N     0.83333   0.28573   0.16667   0.00000  Uiso   1.00
N106   N     0.83333   0.04760   0.16667   0.00000  Uiso   1.00
N107   N     0.72175   0.05046   0.20310   0.00000  Uiso   1.00
N108   N     0.94492   0.28288   0.13023   0.00000  Uiso   1.00
N109   N     0.94493   0.05045   0.13025   0.00000  Uiso   1.00
N110   N     0.72174   0.28288   0.20308   0.00000  Uiso   1.00
O111   O     0.77226   0.20487   0.16666   0.00000  Uiso   1.00
O112   O     0.89441   0.12846   0.16667   0.00000  Uiso   1.00
O113   O     0.89441   0.20487   0.16667   0.00000  Uiso   1.00
O114   O     0.77226   0.12846   0.16666   0.00000  Uiso   1.00
O115   O     0.83334   0.20488   0.09511   0.00000  Uiso   1.00
O116   O     0.83333   0.12845   0.23822   0.00000  Uiso   1.00
O117   O     0.83333   0.20488   0.23822   0.00000  Uiso   1.00
O118   O     0.83334   0.12845   0.09511   0.00000  Uiso   1.00
Zn119  Zn    0.83333   0.21771   0.16667   0.00000  Uiso   1.00
Zn120  Zn    0.83333   0.11563   0.16667   0.00000  Uiso   1.00
C121   C     0.08697   0.50000   0.17103   0.00000  Uiso   1.00
C122   C     0.02086   0.54099   0.17353   0.00000  Uiso   1.00
C123   C     0.29085   0.50000   0.15788   0.00000  Uiso   1.00
C124   C     0.04249   0.50000   0.17545   0.00000  Uiso   1.00
C125   C     0.19213   0.35723   0.19988   0.00000  Uiso   1.00
C126   C     0.14121   0.64277   0.13345   0.00000  Uiso   1.00
C127   C     0.14121   0.35723   0.13345   0.00000  Uiso   1.00
C128   C     0.19213   0.64277   0.19988   0.00000  Uiso   1.00
C129   C     0.03997   0.41709   0.18978   0.00000  Uiso   1.00
C130   C     0.29336   0.58291   0.14355   0.00000  Uiso   1.00
C131   C     0.29336   0.41709   0.14356   0.00000  Uiso   1.00
C132   C     0.24636   0.50000   0.16230   0.00000  Uiso   1.00
C133   C     0.03997   0.58291   0.18977   0.00000  Uiso   1.00
C134   C     0.16661   0.50000   0.07301   0.00000  Uiso   1.00
C135   C     0.16673   0.50000   0.26032   0.00000  Uiso   1.00
C136   C     0.16665   0.50000   0.02184   0.00000  Uiso   1.00
C137   C     0.16668   0.50000   0.31150   0.00000  Uiso   1.00
C138   C     0.02086   0.45901   0.17354   0.00000  Uiso   1.00
C139   C     0.31248   0.54099   0.15979   0.00000  Uiso   1.00
C140   C     0.31248   0.45901   0.15980   0.00000  Uiso   1.00
I141   I     0.23265   0.39166   0.25266   0.00000  Uiso   1.00
I142   I     0.10069   0.60834   0.08068   0.00000  Uiso   1.00
I143   I     0.10068   0.39166   0.08068   0.00000  Uiso   1.00
I144   I     0.23265   0.60834   0.25266   0.00000  Uiso   1.00
N145   N     0.16667   0.61907   0.16667   0.00000  Uiso   1.00
N146   N     0.16667   0.38093   0.16667   0.00000  Uiso   1.00
N147   N     0.05508   0.38379   0.20310   0.00000  Uiso   1.00
N148   N     0.27825   0.61621   0.13023   0.00000  Uiso   1.00
N149   N     0.27826   0.38379   0.13025   0.00000  Uiso   1.00
N150   N     0.05508   0.61621   0.20308   0.00000  Uiso   1.00
O151   O     0.10559   0.53821   0.16666   0.00000  Uiso   1.00
O152   O     0.22774   0.46179   0.16667   0.00000  Uiso   1.00
O153   O     0.22774   0.53821   0.16667   0.00000  Uiso   1.00
O154   O     0.10559   0.46179   0.16666   0.00000  Uiso   1.00
O155   O     0.16667   0.53821   0.09511   0.00000  Uiso   1.00
O156   O     0.16666   0.46179   0.23822   0.00000  Uiso   1.00
O157   O     0.16666   0.53821   0.23822   0.00000  Uiso   1.00
O158   O     0.16667   0.46179   0.09511   0.00000  Uiso   1.00
Zn159  Zn    0.16667   0.55104   0.16667   0.00000  Uiso   1.00
Zn160  Zn    0.16667   0.44896   0.16667   0.00000  Uiso   1.00
C161   C     0.42030   0.50000   0.17103   0.00000  Uiso   1.00
C162   C     0.35419   0.54099   0.17353   0.00000  Uiso   1.00
C163   C     0.62418   0.50000   0.15788   0.00000  Uiso   1.00
C164   C     0.37582   0.50000   0.17545   0.00000  Uiso   1.00
C165   C     0.52546   0.35723   0.19988   0.00000  Uiso   1.00
C166   C     0.47454   0.64277   0.13345   0.00000  Uiso   1.00
C167   C     0.47454   0.35723   0.13345   0.00000  Uiso   1.00
C168   C     0.52546   0.64277   0.19988   0.00000  Uiso   1.00
C169   C     0.37331   0.41709   0.18978   0.00000  Uiso   1.00
C170   C     0.62669   0.58291   0.14355   0.00000  Uiso   1.00
C171   C     0.62670   0.41709   0.14356   0.00000  Uiso   1.00
C172   C     0.57970   0.50000   0.16230   0.00000  Uiso   1.00
C173   C     0.37330   0.58291   0.18977   0.00000  Uiso   1.00
C174   C     0.49994   0.50000   0.07301   0.00000  Uiso   1.00
C175   C     0.50006   0.50000   0.26032   0.00000  Uiso   1.00
C176   C     0.49998   0.50000   0.02184   0.00000  Uiso   1.00
C177   C     0.50002   0.50000   0.31150   0.00000  Uiso   1.00
C178   C     0.35419   0.45901   0.17354   0.00000  Uiso   1.00
C179   C     0.64581   0.54099   0.15979   0.00000  Uiso   1.00
C180   C     0.64581   0.45901   0.15980   0.00000  Uiso   1.00
I181   I     0.56598   0.39166   0.25266   0.00000  Uiso   1.00
I182   I     0.43402   0.60834   0.08068   0.00000  Uiso   1.00
I183   I     0.43402   0.39166   0.08068   0.00000  Uiso   1.00
I184   I     0.56598   0.60834   0.25266   0.00000  Uiso   1.00
N185   N     0.50000   0.61907   0.16667   0.00000  Uiso   1.00
N186   N     0.50000   0.38093   0.16667   0.00000  Uiso   1.00
N187   N     0.38841   0.38379   0.20310   0.00000  Uiso   1.00
N188   N     0.61159   0.61621   0.13023   0.00000  Uiso   1.00
N189   N     0.61159   0.38379   0.13025   0.00000  Uiso   1.00
N190   N     0.38841   0.61621   0.20308   0.00000  Uiso   1.00
O191   O     0.43892   0.53821   0.16666   0.00000  Uiso   1.00
O192   O     0.56108   0.46179   0.16667   0.00000  Uiso   1.00
O193   O     0.56108   0.53821   0.16667   0.00000  Uiso   1.00
O194   O     0.43892   0.46179   0.16666   0.00000  Uiso   1.00
O195   O     0.50000   0.53821   0.09511   0.00000  Uiso   1.00
O196   O     0.50000   0.46179   0.23822   0.00000  Uiso   1.00
O197   O     0.50000   0.53821   0.23822   0.00000  Uiso   1.00
O198   O     0.50000   0.46179   0.09511   0.00000  Uiso   1.00
Zn199  Zn    0.50000   0.55104   0.16667   0.00000  Uiso   1.00
Zn200  Zn    0.50000   0.44896   0.16667   0.00000  Uiso   1.00
C201   C     0.75364   0.50000   0.17103   0.00000  Uiso   1.00
C202   C     0.68752   0.54099   0.17353   0.00000  Uiso   1.00
C203   C     0.95751   0.50000   0.15788   0.00000  Uiso   1.00
C204   C     0.70915   0.50000   0.17545   0.00000  Uiso   1.00
C205   C     0.85879   0.35723   0.19988   0.00000  Uiso   1.00
C206   C     0.80787   0.64277   0.13345   0.00000  Uiso   1.00
C207   C     0.80787   0.35723   0.13345   0.00000  Uiso   1.00
C208   C     0.85879   0.64277   0.19988   0.00000  Uiso   1.00
C209   C     0.70664   0.41709   0.18978   0.00000  Uiso   1.00
C210   C     0.96003   0.58291   0.14355   0.00000  Uiso   1.00
C211   C     0.96003   0.41709   0.14356   0.00000  Uiso   1.00
C212   C     0.91303   0.50000   0.16230   0.00000  Uiso   1.00
C213   C     0.70664   0.58291   0.18977   0.00000  Uiso   1.00
C214   C     0.83327   0.50000   0.07301   0.00000  Uiso   1.00
C215   C     0.83339   0.50000   0.26032   0.00000  Uiso   1.00
C216   C     0.83332   0.50000   0.02184   0.00000  Uiso   1.00
C217   C     0.83335   0.50000   0.31150   0.00000  Uiso   1.00
C218   C     0.68753   0.45901   0.17354   0.00000  Uiso   1.00
C219   C     0.97914   0.54099   0.15979   0.00000  Uiso   1.00
C220   C     0.97914   0.45901   0.15980   0.00000  Uiso   1.00
I221   I     0.89931   0.39166   0.25266   0.00000  Uiso   1.00
I222   I     0.76735   0.60834   0.08068   0.00000  Uiso   1.00
I223   I     0.76735   0.39166   0.08068   0.00000  Uiso   1.00
I224   I     0.89932   0.60834   0.25266   0.00000  Uiso   1.00
N225   N     0.83333   0.61907   0.16667   0.00000  Uiso   1.00
N226   N     0.83333   0.38093   0.16667   0.00000  Uiso   1.00
N227   N     0.72175   0.38379   0.20310   0.00000  Uiso   1.00
N228   N     0.94492   0.61621   0.13023   0.00000  Uiso   1.00
N229   N     0.94493   0.38379   0.13025   0.00000  Uiso   1.00
N230   N     0.72174   0.61621   0.20308   0.00000  Uiso   1.00
O231   O     0.77226   0.53821   0.16666   0.00000  Uiso   1.00
O232   O     0.89441   0.46179   0.16667   0.00000  Uiso   1.00
O233   O     0.89441   0.53821   0.16667   0.00000  Uiso   1.00
O234   O     0.77226   0.46179   0.16666   0.00000  Uiso   1.00
O235   O     0.83334   0.53821   0.09511   0.00000  Uiso   1.00
O236   O     0.83333   0.46179   0.23822   0.00000  Uiso   1.00
O237   O     0.83333   0.53821   0.23822   0.00000  Uiso   1.00
O238   O     0.83334   0.46179   0.09511   0.00000  Uiso   1.00
Zn239  Zn    0.83333   0.55104   0.16667   0.00000  Uiso   1.00
Zn240  Zn    0.83333   0.44896   0.16667   0.00000  Uiso   1.00
C241   C     0.08697   0.83333   0.17103   0.00000  Uiso   1.00
C242   C     0.02086   0.87433   0.17353   0.00000  Uiso   1.00
C243   C     0.29085   0.83333   0.15788   0.00000  Uiso   1.00
C244   C     0.04249   0.83333   0.17545   0.00000  Uiso   1.00
C245   C     0.19213   0.69056   0.19988   0.00000  Uiso   1.00
C246   C     0.14121   0.97610   0.13345   0.00000  Uiso   1.00
C247   C     0.14121   0.69056   0.13345   0.00000  Uiso   1.00
C248   C     0.19213   0.97610   0.19988   0.00000  Uiso   1.00
C249   C     0.03997   0.75042   0.18978   0.00000  Uiso   1.00
C250   C     0.29336   0.91625   0.14355   0.00000  Uiso   1.00
C251   C     0.29336   0.75042   0.14356   0.00000  Uiso   1.00
C252   C     0.24636   0.83333   0.16230   0.00000  Uiso   1.00
C253   C     0.03997   0.91625   0.18977   0.00000  Uiso   1.00
C254   C     0.16661   0.83333   0.07301   0.00000  Uiso   1.00
C255   C     0.16673   0.83333   0.26032   0.00000  Uiso   1.00
C256   C     0.16665   0.83333   0.02184   0.00000  Uiso   1.00
C257   C     0.16668   0.83333   0.31150   0.00000  Uiso   1.00
C258   C     0.02086   0.79234   0.17354   0.00000  Uiso   1.00
C259   C     0.31248   0.87432   0.15979   0.00000  Uiso   1.00
C260   C     0.31248   0.79234   0.15980   0.00000  Uiso   1.00
I261   I     0.23265   0.72499   0.25266   0.00000  Uiso   1.00
I262   I     0.10069   0.94168   0.08068   0.00000  Uiso   1.00
I263   I     0.10068   0.72499   0.08068   0.00000  Uiso   1.00
I264   I     0.23265   0.94167   0.25266   0.00000  Uiso   1.00
N265   N     0.16667   0.95240   0.16667   0.00000  Uiso   1.00
N266   N     0.16667   0.71427   0.16667   0.00000  Uiso   1.00
N267   N     0.05508   0.71712   0.20310   0.00000  Uiso   1.00
N268   N     0.27825   0.94954   0.13023   0.00000  Uiso   1.00
N269   N     0.27826   0.71712   0.13025   0.00000  Uiso   1.00
N270   N     0.05508   0.94955   0.20308   0.00000  Uiso   1.00
O271   O     0.10559   0.87154   0.16666   0.00000  Uiso   1.00
O272   O     0.22774   0.79513   0.16667   0.00000  Uiso   1.00
O273   O     0.22774   0.87154   0.16667   0.00000  Uiso   1.00
O274   O     0.10559   0.79513   0.16666   0.00000  Uiso   1.00
O275   O     0.16667   0.87155   0.09511   0.00000  Uiso   1.00
O276   O     0.16666   0.79512   0.23822   0.00000  Uiso   1.00
O277   O     0.16666   0.87155   0.23822   0.00000  Uiso   1.00
O278   O     0.16667   0.79512   0.09511   0.00000  Uiso   1.00
Zn279  Zn    0.16667   0.88437   0.16667   0.00000  Uiso   1.00
Zn280  Zn    0.16667   0.78229   0.16667   0.00000  Uiso   1.00
C281   C     0.42030   0.83333   0.17103   0.00000  Uiso   1.00
C282   C     0.35419   0.87433   0.17353   0.00000  Uiso   1.00
C283   C     0.62418   0.83333   0.15788   0.00000  Uiso   1.00
C284   C     0.37582   0.83333   0.17545   0.00000  Uiso   1.00
C285   C     0.52546   0.69056   0.19988   0.00000  Uiso   1.00
C286   C     0.47454   0.97610   0.13345   0.00000  Uiso   1.00
C287   C     0.47454   0.69056   0.13345   0.00000  Uiso   1.00
C288   C     0.52546   0.97610   0.19988   0.00000  Uiso   1.00
C289   C     0.37331   0.75042   0.18978   0.00000  Uiso   1.00
C290   C     0.62669   0.91625   0.14355   0.00000  Uiso   1.00
C291   C     0.62670   0.75042   0.14356   0.00000  Uiso   1.00
C292   C     0.57970   0.83333   0.16230   0.00000  Uiso   1.00
C293   C     0.37330   0.91625   0.18977   0.00000  Uiso   1.00
C294   C     0.49994   0.83333   0.07301   0.00000  Uiso   1.00
C295   C     0.50006   0.83333   0.26032   0.00000  Uiso   1.00
C296   C     0.49998   0.83333   0.02184   0.00000  Uiso   1.00
C297   C     0.50002   0.83333   0.31150   0.00000  Uiso   1.00
C298   C     0.35419   0.79234   0.17354   0.00000  Uiso   1.00
C299   C     0.64581   0.87432   0.15979   0.00000  Uiso   1.00
C300   C     0.64581   0.79234   0.15980   0.00000  Uiso   1.00
I301   I     0.56598   0.72499   0.25266   0.00000  Uiso   1.00
I302   I     0.43402   0.94168   0.08068   0.00000  Uiso   1.00
I303   I     0.43402   0.72499   0.08068   0.00000  Uiso   1.00
I304   I     0.56598   0.94167   0.25266   0.00000  Uiso   1.00
N305   N     0.50000   0.95240   0.16667   0.00000  Uiso   1.00
N306   N     0.50000   0.71427   0.16667   0.00000  Uiso   1.00
N307   N     0.38841   0.71712   0.20310   0.00000  Uiso   1.00
N308   N     0.61159   0.94954   0.13023   0.00000  Uiso   1.00
N309   N     0.61159   0.71712   0.13025   0.00000  Uiso   1.00
N310   N     0.38841   0.94955   0.20308   0.00000  Uiso   1.00
O311   O     0.43892   0.87154   0.16666   0.00000  Uiso   1.00
O312   O     0.56108   0.79513   0.16667   0.00000  Uiso   1.00
O313   O     0.56108   0.87154   0.16667   0.00000  Uiso   1.00
O314   O     0.43892   0.79513   0.16666   0.00000  Uiso   1.00
O315   O     0.50000   0.87155   0.09511   0.00000  Uiso   1.00
O316   O     0.50000   0.79512   0.23822   0.00000  Uiso   1.00
O317   O     0.50000   0.87155   0.23822   0.00000  Uiso   1.00
O318   O     0.50000   0.79512   0.09511   0.00000  Uiso   1.00
Zn319  Zn    0.50000   0.88437   0.16667   0.00000  Uiso   1.00
Zn320  Zn    0.50000   0.78229   0.16667   0.00000  Uiso   1.00
C321   C     0.75364   0.83333   0.17103   0.00000  Uiso   1.00
C322   C     0.68752   0.87433   0.17353   0.00000  Uiso   1.00
C323   C     0.95751   0.83333   0.15788   0.00000  Uiso   1.00
C324   C     0.70915   0.83333   0.17545   0.00000  Uiso   1.00
C325   C     0.85879   0.69056   0.19988   0.00000  Uiso   1.00
C326   C     0.80787   0.97610   0.13345   0.00000  Uiso   1.00
C327   C     0.80787   0.69056   0.13345   0.00000  Uiso   1.00
C328   C     0.85879   0.97610   0.19988   0.00000  Uiso   1.00
C329   C     0.70664   0.75042   0.18978   0.00000  Uiso   1.00
C330   C     0.96003   0.91625   0.14355   0.00000  Uiso   1.00
C331   C     0.96003   0.75042   0.14356   0.00000  Uiso   1.00
C332   C     0.91303   0.83333   0.16230   0.00000  Uiso   1.00
C333   C     0.70664   0.91625   0.18977   0.00000  Uiso   1.00
C334   C     0.83327   0.83333   0.07301   0.00000  Uiso   1.00
C335   C     0.83339   0.83333   0.26032   0.00000  Uiso   1.00
C336   C     0.83332   0.83333   0.02184   0.00000  Uiso   1.00
C337   C     0.83335   0.83333   0.31150   0.00000  Uiso   1.00
C338   C     0.68753   0.79234   0.17354   0.00000  Uiso   1.00
C339   C     0.97914   0.87432   0.15979   0.00000  Uiso   1.00
C340   C     0.97914   0.79234   0.15980   0.00000  Uiso   1.00
I341   I     0.89931   0.72499   0.25266   0.00000  Uiso   1.00
I342   I     0.76735   0.94168   0.08068   0.00000  Uiso   1.00
I343   I     0.76735   0.72499   0.08068   0.00000  Uiso   1.00
I344   I     0.89932   0.94167   0.25266   0.00000  Uiso   1.00
N345   N     0.83333   0.95240   0.16667   0.00000  Uiso   1.00
N346   N     0.83333   0.71427   0.16667   0.00000  Uiso   1.00
N347   N     0.72175   0.71712   0.20310   0.00000  Uiso   1.00
N348   N     0.94492   0.94954   0.13023   0.00000  Uiso   1.00
N349   N     0.94493   0.71712   0.13025   0.00000  Uiso   1.00
N350   N     0.72174   0.94955   0.20308   0.00000  Uiso   1.00
O351   O     0.77226   0.87154   0.16666   0.00000  Uiso   1.00
O352   O     0.89441   0.79513   0.16667   0.00000  Uiso   1.00
O353   O     0.89441   0.87154   0.16667   0.00000  Uiso   1.00
O354   O     0.77226   0.79513   0.16666   0.00000  Uiso   1.00
O355   O     0.83334   0.87155   0.09511   0.00000  Uiso   1.00
O356   O     0.83333   0.79512   0.23822   0.00000  Uiso   1.00
O357   O     0.83333   0.87155   0.23822   0.00000  Uiso   1.00
O358   O     0.83334   0.79512   0.09511   0.00000  Uiso   1.00
Zn359  Zn    0.83333   0.88437   0.16667   0.00000  Uiso   1.00
Zn360  Zn    0.83333   0.78229   0.16667   0.00000  Uiso   1.00
C361   C     0.08697   0.16667   0.50437   0.00000  Uiso   1.00
C362   C     0.02086   0.20766   0.50687   0.00000  Uiso   1.00
C363   C     0.29085   0.16667   0.49121   0.00000  Uiso   1.00
C364   C     0.04249   0.16667   0.50879   0.00000  Uiso   1.00
C365   C     0.19213   0.02390   0.53322   0.00000  Uiso   1.00
C366   C     0.14121   0.30944   0.46678   0.00000  Uiso   1.00
C367   C     0.14121   0.02390   0.46678   0.00000  Uiso   1.00
C368   C     0.19213   0.30944   0.53322   0.00000  Uiso   1.00
C369   C     0.03997   0.08375   0.52312   0.00000  Uiso   1.00
C370   C     0.29336   0.24958   0.47688   0.00000  Uiso   1.00
C371   C     0.29336   0.08375   0.47690   0.00000  Uiso   1.00
C372   C     0.24636   0.16667   0.49563   0.00000  Uiso   1.00
C373   C     0.03997   0.24958   0.52311   0.00000  Uiso   1.00
C374   C     0.16661   0.16667   0.40635   0.00000  Uiso   1.00
C375   C     0.16673   0.16667   0.59365   0.00000  Uiso   1.00
C376   C     0.16665   0.16667   0.35517   0.00000  Uiso   1.00
C377   C     0.16668   0.16667   0.64483   0.00000  Uiso   1.00
C378   C     0.02086   0.12568   0.50687   0.00000  Uiso   1.00
C379   C     0.31248   0.20766   0.49313   0.00000  Uiso   1.00
C380   C     0.31248   0.12568   0.49313   0.00000  Uiso   1.00
I381   I     0.23265   0.05832   0.58599   0.00000  Uiso   1.00
I382   I     0.10069   0.27501   0.41401   0.00000  Uiso   1.00
I383   I     0.10068   0.05833   0.41401   0.00000  Uiso   1.00
I384   I     0.23265   0.27501   0.58599   0.00000  Uiso   1.00
N385   N     0.16667   0.28573   0.50000   0.00000  Uiso   1.00
N386   N     0.16667   0.04760   0.50000   0.00000  Uiso   1.00
N387   N     0.05508   0.05046   0.53644   0.00000  Uiso   1.00
N388   N     0.27825   0.28288   0.46357   0.00000  Uiso   1.00
N389   N     0.27826   0.05045   0.46358   0.00000  Uiso   1.00
N390   N     0.05508   0.28288   0.53642   0.00000  Uiso   1.00
O391   O     0.10559   0.20487   0.50000   0.00000  Uiso   1.00
O392   O     0.22774   0.12846   0.50000   0.00000  Uiso   1.00
O393   O     0.22774   0.20487   0.50000   0.00000  Uiso   1.00
O394   O     0.10559   0.12846   0.50000   0.00000  Uiso   1.00
O395   O     0.16667   0.20488   0.42845   0.00000  Uiso   1.00
O396   O     0.16666   0.12845   0.57155   0.00000  Uiso   1.00
O397   O     0.16666   0.20488   0.57155   0.00000  Uiso   1.00
O398   O     0.16667   0.12845   0.42845   0.00000  Uiso   1.00
Zn399  Zn    0.16667   0.21771   0.50000   0.00000  Uiso   1.00
Zn400  Zn    0.16667   0.11563   0.50000   0.00000  Uiso   1.00
C401   C     0.42030   0.16667   0.50437   0.00000  Uiso   1.00
C402   C     0.35419   0.20766   0.50687   0.00000  Uiso   1.00
C403   C     0.62418   0.16667   0.49121   0.00000  Uiso   1.00
C404   C     0.37582   0.16667   0.50879   0.00000  Uiso   1.00
C405   C     0.52546   0.02390   0.53322   0.00000  Uiso   1.00
C406   C     0.47454   0.30944   0.46678   0.00000  Uiso   1.00
C407   C     0.47454   0.02390   0.46678   0.00000  Uiso   1.00
C408   C     0.52546   0.30944   0.53322   0.00000  Uiso   1.00
C409   C     0.37331   0.08375   0.52312   0.00000  Uiso   1.00
C410   C     0.62669   0.24958   0.47688   0.00000  Uiso   1.00
C411   C     0.62670   0.08375   0.47690   0.00000  Uiso   1.00
C412   C     0.57970   0.16667   0.49563   0.00000  Uiso   1.00
C413   C     0.37330   0.24958   0.52311   0.00000  Uiso   1.00
C414   C     0.49994   0.16667   0.40635   0.00000  Uiso   1.00
C415   C     0.50006   0.16667   0.59365   0.00000  Uiso   1.00
C416   C     0.49998   0.16667   0.35517   0.00000  Uiso   1.00
C417   C     0.50002   0.16667   0.64483   0.00000  Uiso   1.00
C418   C     0.35419   0.12568   0.50687   0.00000  Uiso   1.00
C419   C     0.64581   0.20766   0.49313   0.00000  Uiso   1.00
C420   C     0.64581   0.12568   0.49313   0.00000  Uiso   1.00
I421   I     0.56598   0.05832   0.58599   0.00000  Uiso   1.00
I422   I     0.43402   0.27501   0.41401   0.00000  Uiso   1.00
I423   I     0.43402   0.05833   0.41401   0.00000  Uiso   1.00
I424   I     0.56598   0.27501   0.58599   0.00000  Uiso   1.00
N425   N     0.50000   0.28573   0.50000   0.00000  Uiso   1.00
N426   N     0.50000   0.04760   0.50000   0.00000  Uiso   1.00
N427   N     0.38841   0.05046   0.53644   0.00000  Uiso   1.00
N428   N     0.61159   0.28288   0.46357   0.00000  Uiso   1.00
N429   N     0.61159   0.05045   0.46358   0.00000  Uiso   1.00
N430   N     0.38841   0.28288   0.53642   0.00000  Uiso   1.00
O431   O     0.43892   0.20487   0.50000   0.00000  Uiso   1.00
O432   O     0.56108   0.12846   0.50000   0.00000  Uiso   1.00
O433   O     0.56108   0.20487   0.50000   0.00000  Uiso   1.00
O434   O     0.43892   0.12846   0.50000   0.00000  Uiso   1.00
O435   O     0.50000   0.20488   0.42845   0.00000  Uiso   1.00
O436   O     0.50000   0.12845   0.57155   0.00000  Uiso   1.00
O437   O     0.50000   0.20488   0.57155   0.00000  Uiso   1.00
O438   O     0.50000   0.12845   0.42845   0.00000  Uiso   1.00
Zn439  Zn    0.50000   0.21771   0.50000   0.00000  Uiso   1.00
Zn440  Zn    0.50000   0.11563   0.50000   0.00000  Uiso   1.00
C441   C     0.75364   0.16667   0.50437   0.00000  Uiso   1.00
C442   C     0.68752   0.20766   0.50687   0.00000  Uiso   1.00
C443   C     0.95751   0.16667   0.49121   0.00000  Uiso   1.00
C444   C     0.70915   0.16667   0.50879   0.00000  Uiso   1.00
C445   C     0.85879   0.02390   0.53322   0.00000  Uiso   1.00
C446   C     0.80787   0.30944   0.46678   0.00000  Uiso   1.00
C447   C     0.80787   0.02390   0.46678   0.00000  Uiso   1.00
C448   C     0.85879   0.30944   0.53322   0.00000  Uiso   1.00
C449   C     0.70664   0.08375   0.52312   0.00000  Uiso   1.00
C450   C     0.96003   0.24958   0.47688   0.00000  Uiso   1.00
C451   C     0.96003   0.08375   0.47690   0.00000  Uiso   1.00
C452   C     0.91303   0.16667   0.49563   0.00000  Uiso   1.00
C453   C     0.70664   0.24958   0.52311   0.00000  Uiso   1.00
C454   C     0.83327   0.16667   0.40635   0.00000  Uiso   1.00
C455   C     0.83339   0.16667   0.59365   0.00000  Uiso   1.00
C456   C     0.83332   0.16667   0.35517   0.00000  Uiso   1.00
C457   C     0.83335   0.16667   0.64483   0.00000  Uiso   1.00
C458   C     0.68753   0.12568   0.50687   0.00000  Uiso   1.00
C459   C     0.97914   0.20766   0.49313   0.00000  Uiso   1.00
C460   C     0.97914   0.12568   0.49313   0.00000  Uiso   1.00
I461   I     0.89931   0.05832   0.58599   0.00000  Uiso   1.00
I462   I     0.76735   0.27501   0.41401   0.00000  Uiso   1.00
I463   I     0.76735   0.05833   0.41401   0.00000  Uiso   1.00
I464   I     0.89932   0.27501   0.58599   0.00000  Uiso   1.00
N465   N     0.83333   0.28573   0.50000   0.00000  Uiso   1.00
N466   N     0.83333   0.04760   0.50000   0.00000  Uiso   1.00
N467   N     0.72175   0.05046   0.53644   0.00000  Uiso   1.00
N468   N     0.94492   0.28288   0.46357   0.00000  Uiso   1.00
N469   N     0.94493   0.05045   0.46358   0.00000  Uiso   1.00
N470   N     0.72174   0.28288   0.53642   0.00000  Uiso   1.00
O471   O     0.77226   0.20487   0.50000   0.00000  Uiso   1.00
O472   O     0.89441   0.12846   0.50000   0.00000  Uiso   1.00
O473   O     0.89441   0.20487   0.50000   0.00000  Uiso   1.00
O474   O     0.77226   0.12846   0.50000   0.00000  Uiso   1.00
O475   O     0.83334   0.20488   0.42845   0.00000  Uiso   1.00
O476   O     0.83333   0.12845   0.57155   0.00000  Uiso   1.00
O477   O     0.83333   0.20488   0.57155   0.00000  Uiso   1.00
O478   O     0.83334   0.12845   0.42845   0.00000  Uiso   1.00
Zn479  Zn    0.83333   0.21771   0.50000   0.00000  Uiso   1.00
Zn480  Zn    0.83333   0.11563   0.50000   0.00000  Uiso   1.00
C481   C     0.08697   0.50000   0.50437   0.00000  Uiso   1.00
C482   C     0.02086   0.54099   0.50687   0.00000  Uiso   1.00
C483   C     0.29085   0.50000   0.49121   0.00000  Uiso   1.00
C484   C     0.04249   0.50000   0.50879   0.00000  Uiso   1.00
C485   C     0.19213   0.35723   0.53322   0.00000  Uiso   1.00
C486   C     0.14121   0.64277   0.46678   0.00000  Uiso   1.00
C487   C     0.14121   0.35723   0.46678   0.00000  Uiso   1.00
C488   C     0.19213   0.64277   0.53322   0.00000  Uiso   1.00
C489   C     0.03997   0.41709   0.52312   0.00000  Uiso   1.00
C490   C     0.29336   0.58291   0.47688   0.00000  Uiso   1.00
C491   C     0.29336   0.41709   0.47690   0.00000  Uiso   1.00
C492   C     0.24636   0.50000   0.49563   0.00000  Uiso   1.00
C493   C     0.03997   0.58291   0.52311   0.00000  Uiso   1.00
C494   C     0.16661   0.50000   0.40635   0.00000  Uiso   1.00
C495   C     0.16673   0.50000   0.59365   0.00000  Uiso   1.00
C496   C     0.16665   0.50000   0.35517   0.00000  Uiso   1.00
C497   C     0.16668   0.50000   0.64483   0.00000  Uiso   1.00
C498   C     0.02086   0.45901   0.50687   0.00000  Uiso   1.00
C499   C     0.31248   0.54099   0.49313   0.00000  Uiso   1.00
C500   C     0.31248   0.45901   0.49313   0.00000  Uiso   1.00
I501   I     0.23265   0.39166   0.58599   0.00000  Uiso   1.00
I502   I     0.10069   0.60834   0.41401   0.00000  Uiso   1.00
I503   I     0.10068   0.39166   0.41401   0.00000  Uiso   1.00
I504   I     0.23265   0.60834   0.58599   0.00000  Uiso   1.00
N505   N     0.16667   0.61907   0.50000   0.00000  Uiso   1.00
N506   N     0.16667   0.38093   0.50000   0.00000  Uiso   1.00
N507   N     0.05508   0.38379   0.53644   0.00000  Uiso   1.00
N508   N     0.27825   0.61621   0.46357   0.00000  Uiso   1.00
N509   N     0.27826   0.38379   0.46358   0.00000  Uiso   1.00
N510   N     0.05508   0.61621   0.53642   0.00000  Uiso   1.00
O511   O     0.10559   0.53821   0.50000   0.00000  Uiso   1.00
O512   O     0.22774   0.46179   0.50000   0.00000  Uiso   1.00
O513   O     0.22774   0.53821   0.50000   0.00000  Uiso   1.00
O514   O     0.10559   0.46179   0.50000   0.00000  Uiso   1.00
O515   O     0.16667   0.53821   0.42845   0.00000  Uiso   1.00
O516   O     0.16666   0.46179   0.57155   0.00000  Uiso   1.00
O517   O     0.16666   0.53821   0.57155   0.00000  Uiso   1.00
O518   O     0.16667   0.46179   0.42845   0.00000  Uiso   1.00
Zn519  Zn    0.16667   0.55104   0.50000   0.00000  Uiso   1.00
Zn520  Zn    0.16667   0.44896   0.50000   0.00000  Uiso   1.00
C521   C     0.42030   0.50000   0.50437   0.00000  Uiso   1.00
C522   C     0.35419   0.54099   0.50687   0.00000  Uiso   1.00
C523   C     0.62418   0.50000   0.49121   0.00000  Uiso   1.00
C524   C     0.37582   0.50000   0.50879   0.00000  Uiso   1.00
C525   C     0.52546   0.35723   0.53322   0.00000  Uiso   1.00
C526   C     0.47454   0.64277   0.46678   0.00000  Uiso   1.00
C527   C     0.47454   0.35723   0.46678   0.00000  Uiso   1.00
C528   C     0.52546   0.64277   0.53322   0.00000  Uiso   1.00
C529   C     0.37331   0.41709   0.52312   0.00000  Uiso   1.00
C530   C     0.62669   0.58291   0.47688   0.00000  Uiso   1.00
C531   C     0.62670   0.41709   0.47690   0.00000  Uiso   1.00
C532   C     0.57970   0.50000   0.49563   0.00000  Uiso   1.00
C533   C     0.37330   0.58291   0.52311   0.00000  Uiso   1.00
C534   C     0.49994   0.50000   0.40635   0.00000  Uiso   1.00
C535   C     0.50006   0.50000   0.59365   0.00000  Uiso   1.00
C536   C     0.49998   0.50000   0.35517   0.00000  Uiso   1.00
C537   C     0.50002   0.50000   0.64483   0.00000  Uiso   1.00
C538   C     0.35419   0.45901   0.50687   0.00000  Uiso   1.00
C539   C     0.64581   0.54099   0.49313   0.00000  Uiso   1.00
C540   C     0.64581   0.45901   0.49313   0.00000  Uiso   1.00
I541   I     0.56598   0.39166   0.58599   0.00000  Uiso   1.00
I542   I     0.43402   0.60834   0.41401   0.00000  Uiso   1.00
I543   I     0.43402   0.39166   0.41401   0.00000  Uiso   1.00
I544   I     0.56598   0.60834   0.58599   0.00000  Uiso   1.00
N545   N     0.50000   0.61907   0.50000   0.00000  Uiso   1.00
N546   N     0.50000   0.38093   0.50000   0.00000  Uiso   1.00
N547   N     0.38841   0.38379   0.53644   0.00000  Uiso   1.00
N548   N     0.61159   0.61621   0.46357   0.00000  Uiso   1.00
N549   N     0.61159   0.38379   0.46358   0.00000  Uiso   1.00
N550   N     0.38841   0.61621   0.53642   0.00000  Uiso   1.00
O551   O     0.43892   0.53821   0.50000   0.00000  Uiso   1.00
O552   O     0.56108   0.46179   0.50000   0.00000  Uiso   1.00
O553   O     0.56108   0.53821   0.50000   0.00000  Uiso   1.00
O554   O     0.43892   0.46179   0.50000   0.00000  Uiso   1.00
O555   O     0.50000   0.53821   0.42845   0.00000  Uiso   1.00
O556   O     0.50000   0.46179   0.57155   0.00000  Uiso   1.00
O557   O     0.50000   0.53821   0.57155   0.00000  Uiso   1.00
O558   O     0.50000   0.46179   0.42845   0.00000  Uiso   1.00
Zn559  Zn    0.50000   0.55104   0.50000   0.00000  Uiso   1.00
Zn560  Zn    0.50000   0.44896   0.50000   0.00000  Uiso   1.00
C561   C     0.75364   0.50000   0.50437   0.00000  Uiso   1.00
C562   C     0.68752   0.54099   0.50687   0.00000  Uiso   1.00
C563   C     0.95751   0.50000   0.49121   0.00000  Uiso   1.00
C564   C     0.70915   0.50000   0.50879   0.00000  Uiso   1.00
C565   C     0.85879   0.35723   0.53322   0.00000  Uiso   1.00
C566   C     0.80787   0.64277   0.46678   0.00000  Uiso   1.00
C567   C     0.80787   0.35723   0.46678   0.00000  Uiso   1.00
C568   C     0.85879   0.64277   0.53322   0.00000  Uiso   1.00
C569   C     0.70664   0.41709   0.52312   0.00000  Uiso   1.00
C570   C     0.96003   0.58291   0.47688   0.00000  Uiso   1.00
C571   C     0.96003   0.41709   0.47690   0.00000  Uiso   1.00
C572   C     0.91303   0.50000   0.49563   0.00000  Uiso   1.00
C573   C     0.70664   0.58291   0.52311   0.00000  Uiso   1.00
C574   C     0.83327   0.50000   0.40635   0.00000  Uiso   1.00
C575   C     0.83339   0.50000   0.59365   0.00000  Uiso   1.00
C576   C     0.83332   0.50000   0.35517   0.00000  Uiso   1.00
C577   C     0.83335   0.50000   0.64483   0.00000  Uiso   1.00
C578   C     0.68753   0.45901   0.50687   0.00000  Uiso   1.00
C579   C     0.97914   0.54099   0.49313   0.00000  Uiso   1.00
C580   C     0.97914   0.45901   0.49313   0.00000  Uiso   1.00
I581   I     0.89931   0.39166   0.58599   0.00000  Uiso   1.00
I582   I     0.76735   0.60834   0.41401   0.00000  Uiso   1.00
I583   I     0.76735   0.39166   0.41401   0.00000  Uiso   1.00
I584   I     0.89932   0.60834   0.58599   0.00000  Uiso   1.00
N585   N     0.83333   0.61907   0.50000   0.00000  Uiso   1.00
N586   N     0.83333   0.38093   0.50000   0.00000  Uiso   1.00
N587   N     0.72175   0.38379   0.53644   0.00000  Uiso   1.00
N588   N     0.94492   0.61621   0.46357   0.00000  Uiso   1.00
N589   N     0.94493   0.38379   0.46358   0.00000  Uiso   1.00
N590   N     0.72174   0.61621   0.53642   0.00000  Uiso   1.00
O591   O     0.77226   0.53821   0.50000   0.00000  Uiso   1.00
O592   O     0.89441   0.46179   0.50000   0.00000  Uiso   1.00
O593   O     0.89441   0.53821   0.50000   0.00000  Uiso   1.00
O594   O     0.77226   0.46179   0.50000   0.00000  Uiso   1.00
O595   O     0.83334   0.53821   0.42845   0.00000  Uiso   1.00
O596   O     0.83333   0.46179   0.57155   0.00000  Uiso   1.00
O597   O     0.83333   0.53821   0.57155   0.00000  Uiso   1.00
O598   O     0.83334   0.46179   0.42845   0.00000  Uiso   1.00
Zn599  Zn    0.83333   0.55104   0.50000   0.00000  Uiso   1.00
Zn600  Zn    0.83333   0.44896   0.50000   0.00000  Uiso   1.00
C601   C     0.08697   0.83333   0.50437   0.00000  Uiso   1.00
C602   C     0.02086   0.87433   0.50687   0.00000  Uiso   1.00
C603   C     0.29085   0.83333   0.49121   0.00000  Uiso   1.00
C604   C     0.04249   0.83333   0.50879   0.00000  Uiso   1.00
C605   C     0.19213   0.69056   0.53322   0.00000  Uiso   1.00
C606   C     0.14121   0.97610   0.46678   0.00000  Uiso   1.00
C607   C     0.14121   0.69056   0.46678   0.00000  Uiso   1.00
C608   C     0.19213   0.97610   0.53322   0.00000  Uiso   1.00
C609   C     0.03997   0.75042   0.52312   0.00000  Uiso   1.00
C610   C     0.29336   0.91625   0.47688   0.00000  Uiso   1.00
C611   C     0.29336   0.75042   0.47690   0.00000  Uiso   1.00
C612   C     0.24636   0.83333   0.49563   0.00000  Uiso   1.00
C613   C     0.03997   0.91625   0.52311   0.00000  Uiso   1.00
C614   C     0.16661   0.83333   0.40635   0.00000  Uiso   1.00
C615   C     0.16673   0.83333   0.59365   0.00000  Uiso   1.00
C616   C     0.16665   0.83333   0.35517   0.00000  Uiso   1.00
C617   C     0.16668   0.83333   0.64483   0.00000  Uiso   1.00
C618   C     0.02086   0.79234   0.50687   0.00000  Uiso   1.00
C619   C     0.31248   0.87432   0.49313   0.00000  Uiso   1.00
C620   C     0.31248   0.79234   0.49313   0.00000  Uiso   1.00
I621   I     0.23265   0.72499   0.58599   0.00000  Uiso   1.00
I622   I     0.10069   0.94168   0.41401   0.00000  Uiso   1.00
I623   I     0.10068   0.72499   0.41401   0.00000  Uiso   1.00
I624   I     0.23265   0.94167   0.58599   0.00000  Uiso   1.00
N625   N     0.16667   0.95240   0.50000   0.00000  Uiso   1.00
N626   N     0.16667   0.71427   0.50000   0.00000  Uiso   1.00
N627   N     0.05508   0.71712   0.53644   0.00000  Uiso   1.00
N628   N     0.27825   0.94954   0.46357   0.00000  Uiso   1.00
N629   N     0.27826   0.71712   0.46358   0.00000  Uiso   1.00
N630   N     0.05508   0.94955   0.53642   0.00000  Uiso   1.00
O631   O     0.10559   0.87154   0.50000   0.00000  Uiso   1.00
O632   O     0.22774   0.79513   0.50000   0.00000  Uiso   1.00
O633   O     0.22774   0.87154   0.50000   0.00000  Uiso   1.00
O634   O     0.10559   0.79513   0.50000   0.00000  Uiso   1.00
O635   O     0.16667   0.87155   0.42845   0.00000  Uiso   1.00
O636   O     0.16666   0.79512   0.57155   0.00000  Uiso   1.00
O637   O     0.16666   0.87155   0.57155   0.00000  Uiso   1.00
O638   O     0.16667   0.79512   0.42845   0.00000  Uiso   1.00
Zn639  Zn    0.16667   0.88437   0.50000   0.00000  Uiso   1.00
Zn640  Zn    0.16667   0.78229   0.50000   0.00000  Uiso   1.00
C641   C     0.42030   0.83333   0.50437   0.00000  Uiso   1.00
C642   C     0.35419   0.87433   0.50687   0.00000  Uiso   1.00
C643   C     0.62418   0.83333   0.49121   0.00000  Uiso   1.00
C644   C     0.37582   0.83333   0.50879   0.00000  Uiso   1.00
C645   C     0.52546   0.69056   0.53322   0.00000  Uiso   1.00
C646   C     0.47454   0.97610   0.46678   0.00000  Uiso   1.00
C647   C     0.47454   0.69056   0.46678   0.00000  Uiso   1.00
C648   C     0.52546   0.97610   0.53322   0.00000  Uiso   1.00
C649   C     0.37331   0.75042   0.52312   0.00000  Uiso   1.00
C650   C     0.62669   0.91625   0.47688   0.00000  Uiso   1.00
C651   C     0.62670   0.75042   0.47690   0.00000  Uiso   1.00
C652   C     0.57970   0.83333   0.49563   0.00000  Uiso   1.00
C653   C     0.37330   0.91625   0.52311   0.00000  Uiso   1.00
C654   C     0.49994   0.83333   0.40635   0.00000  Uiso   1.00
C655   C     0.50006   0.83333   0.59365   0.00000  Uiso   1.00
C656   C     0.49998   0.83333   0.35517   0.00000  Uiso   1.00
C657   C     0.50002   0.83333   0.64483   0.00000  Uiso   1.00
C658   C     0.35419   0.79234   0.50687   0.00000  Uiso   1.00
C659   C     0.64581   0.87432   0.49313   0.00000  Uiso   1.00
C660   C     0.64581   0.79234   0.49313   0.00000  Uiso   1.00
I661   I     0.56598   0.72499   0.58599   0.00000  Uiso   1.00
I662   I     0.43402   0.94168   0.41401   0.00000  Uiso   1.00
I663   I     0.43402   0.72499   0.41401   0.00000  Uiso   1.00
I664   I     0.56598   0.94167   0.58599   0.00000  Uiso   1.00
N665   N     0.50000   0.95240   0.50000   0.00000  Uiso   1.00
N666   N     0.50000   0.71427   0.50000   0.00000  Uiso   1.00
N667   N     0.38841   0.71712   0.53644   0.00000  Uiso   1.00
N668   N     0.61159   0.94954   0.46357   0.00000  Uiso   1.00
N669   N     0.61159   0.71712   0.46358   0.00000  Uiso   1.00
N670   N     0.38841   0.94955   0.53642   0.00000  Uiso   1.00
O671   O     0.43892   0.87154   0.50000   0.00000  Uiso   1.00
O672   O     0.56108   0.79513   0.50000   0.00000  Uiso   1.00
O673   O     0.56108   0.87154   0.50000   0.00000  Uiso   1.00
O674   O     0.43892   0.79513   0.50000   0.00000  Uiso   1.00
O675   O     0.50000   0.87155   0.42845   0.00000  Uiso   1.00
O676   O     0.50000   0.79512   0.57155   0.00000  Uiso   1.00
O677   O     0.50000   0.87155   0.57155   0.00000  Uiso   1.00
O678   O     0.50000   0.79512   0.42845   0.00000  Uiso   1.00
Zn679  Zn    0.50000   0.88437   0.50000   0.00000  Uiso   1.00
Zn680  Zn    0.50000   0.78229   0.50000   0.00000  Uiso   1.00
C681   C     0.75364   0.83333   0.50437   0.00000  Uiso   1.00
C682   C     0.68752   0.87433   0.50687   0.00000  Uiso   1.00
C683   C     0.95751   0.83333   0.49121   0.00000  Uiso   1.00
C684   C     0.70915   0.83333   0.50879   0.00000  Uiso   1.00
C685   C     0.85879   0.69056   0.53322   0.00000  Uiso   1.00
C686   C     0.80787   0.97610   0.46678   0.00000  Uiso   1.00
C687   C     0.80787   0.69056   0.46678   0.00000  Uiso   1.00
C688   C     0.85879   0.97610   0.53322   0.00000  Uiso   1.00
C689   C     0.70664   0.75042   0.52312   0.00000  Uiso   1.00
C690   C     0.96003   0.91625   0.47688   0.00000  Uiso   1.00
C691   C     0.96003   0.75042   0.47690   0.00000  Uiso   1.00
C692   C     0.91303   0.83333   0.49563   0.00000  Uiso   1.00
C693   C     0.70664   0.91625   0.52311   0.00000  Uiso   1.00
C694   C     0.83327   0.83333   0.40635   0.00000  Uiso   1.00
C695   C     0.83339   0.83333   0.59365   0.00000  Uiso   1.00
C696   C     0.83332   0.83333   0.35517   0.00000  Uiso   1.00
C697   C     0.83335   0.83333   0.64483   0.00000  Uiso   1.00
C698   C     0.68753   0.79234   0.50687   0.00000  Uiso   1.00
C699   C     0.97914   0.87432   0.49313   0.00000  Uiso   1.00
C700   C     0.97914   0.79234   0.49313   0.00000  Uiso   1.00
I701   I     0.89931   0.72499   0.58599   0.00000  Uiso   1.00
I702   I     0.76735   0.94168   0.41401   0.00000  Uiso   1.00
I703   I     0.76735   0.72499   0.41401   0.00000  Uiso   1.00
I704   I     0.89932   0.94167   0.58599   0.00000  Uiso   1.00
N705   N     0.83333   0.95240   0.50000   0.00000  Uiso   1.00
N706   N     0.83333   0.71427   0.50000   0.00000  Uiso   1.00
N707   N     0.72175   0.71712   0.53644   0.00000  Uiso   1.00
N708   N     0.94492   0.94954   0.46357   0.00000  Uiso   1.00
N709   N     0.94493   0.71712   0.46358   0.00000  Uiso   1.00
N710   N     0.72174   0.94955   0.53642   0.00000  Uiso   1.00
O711   O     0.77226   0.87154   0.50000   0.00000  Uiso   1.00
O712   O     0.89441   0.79513   0.50000   0.00000  Uiso   1.00
O713   O     0.89441   0.87154   0.50000   0.00000  Uiso   1.00
O714   O     0.77226   0.79513   0.50000   0.00000  Uiso   1.00
O715   O     0.83334   0.87155   0.42845   0.00000  Uiso   1.00
O716   O     0.83333   0.79512   0.57155   0.00000  Uiso   1.00
O717   O     0.83333   0.87155   0.57155   0.00000  Uiso   1.00
O718   O     0.83334   0.79512   0.42845   0.00000  Uiso   1.00
Zn719  Zn    0.83333   0.88437   0.50000   0.00000  Uiso   1.00
Zn720  Zn    0.83333   0.78229   0.50000   0.00000  Uiso   1.00
C721   C     0.08697   0.16667   0.83770   0.00000  Uiso   1.00
C722   C     0.02086   0.20766   0.84020   0.00000  Uiso   1.00
C723   C     0.29085   0.16667   0.82455   0.00000  Uiso   1.00
C724   C     0.04249   0.16667   0.84212   0.00000  Uiso   1.00
C725   C     0.19213   0.02390   0.86655   0.00000  Uiso   1.00
C726   C     0.14121   0.30944   0.80012   0.00000  Uiso   1.00
C727   C     0.14121   0.02390   0.80012   0.00000  Uiso   1.00
C728   C     0.19213   0.30944   0.86655   0.00000  Uiso   1.00
C729   C     0.03997   0.08375   0.85645   0.00000  Uiso   1.00
C730   C     0.29336   0.24958   0.81022   0.00000  Uiso   1.00
C731   C     0.29336   0.08375   0.81023   0.00000  Uiso   1.00
C732   C     0.24636   0.16667   0.82897   0.00000  Uiso   1.00
C733   C     0.03997   0.24958   0.85644   0.00000  Uiso   1.00
C734   C     0.16661   0.16667   0.73968   0.00000  Uiso   1.00
C735   C     0.16673   0.16667   0.92699   0.00000  Uiso   1.00
C736   C     0.16665   0.16667   0.68850   0.00000  Uiso   1.00
C737   C     0.16668   0.16667   0.97816   0.00000  Uiso   1.00
C738   C     0.02086   0.12568   0.84021   0.00000  Uiso   1.00
C739   C     0.31248   0.20766   0.82646   0.00000  Uiso   1.00
C740   C     0.31248   0.12568   0.82647   0.00000  Uiso   1.00
I741   I     0.23265   0.05832   0.91932   0.00000  Uiso   1.00
I742   I     0.10069   0.27501   0.74734   0.00000  Uiso   1.00
I743   I     0.10068   0.05833   0.74734   0.00000  Uiso   1.00
I744   I     0.23265   0.27501   0.91932   0.00000  Uiso   1.00
N745   N     0.16667   0.28573   0.83333   0.00000  Uiso   1.00
N746   N     0.16667   0.04760   0.83333   0.00000  Uiso   1.00
N747   N     0.05508   0.05046   0.86977   0.00000  Uiso   1.00
N748   N     0.27825   0.28288   0.79690   0.00000  Uiso   1.00
N749   N     0.27826   0.05045   0.79692   0.00000  Uiso   1.00
N750   N     0.05508   0.28288   0.86975   0.00000  Uiso   1.00
O751   O     0.10559   0.20487   0.83333   0.00000  Uiso   1.00
O752   O     0.22774   0.12846   0.83334   0.00000  Uiso   1.00
O753   O     0.22774   0.20487   0.83334   0.00000  Uiso   1.00
O754   O     0.10559   0.12846   0.83333   0.00000  Uiso   1.00
O755   O     0.16667   0.20488   0.76178   0.00000  Uiso   1.00
O756   O     0.16666   0.12845   0.90489   0.00000  Uiso   1.00
O757   O     0.16666   0.20488   0.90489   0.00000  Uiso   1.00
O758   O     0.16667   0.12845   0.76178   0.00000  Uiso   1.00
Zn759  Zn    0.16667   0.21771   0.83333   0.00000  Uiso   1.00
Zn760  Zn    0.16667   0.11563   0.83333   0.00000  Uiso   1.00
C761   C     0.42030   0.16667   0.83770   0.00000  Uiso   1.00
C762   C     0.35419   0.20766   0.84020   0.00000  Uiso   1.00
C763   C     0.62418   0.16667   0.82455   0.00000  Uiso   1.00
C764   C     0.37582   0.16667   0.84212   0.00000  Uiso   1.00
C765   C     0.52546   0.02390   0.86655   0.00000  Uiso   1.00
C766   C     0.47454   0.30944   0.80012   0.00000  Uiso   1.00
C767   C     0.47454   0.02390   0.80012   0.00000  Uiso   1.00
C768   C     0.52546   0.30944   0.86655   0.00000  Uiso   1.00
C769   C     0.37331   0.08375   0.85645   0.00000  Uiso   1.00
C770   C     0.62669   0.24958   0.81022   0.00000  Uiso   1.00
C771   C     0.62670   0.08375   0.81023   0.00000  Uiso   1.00
C772   C     0.57970   0.16667   0.82897   0.00000  Uiso   1.00
C773   C     0.37330   0.24958   0.85644   0.00000  Uiso   1.00
C774   C     0.49994   0.16667   0.73968   0.00000  Uiso   1.00
C775   C     0.50006   0.16667   0.92699   0.00000  Uiso   1.00
C776   C     0.49998   0.16667   0.68850   0.00000  Uiso   1.00
C777   C     0.50002   0.16667   0.97816   0.00000  Uiso   1.00
C778   C     0.35419   0.12568   0.84021   0.00000  Uiso   1.00
C779   C     0.64581   0.20766   0.82646   0.00000  Uiso   1.00
C780   C     0.64581   0.12568   0.82647   0.00000  Uiso   1.00
I781   I     0.56598   0.05832   0.91932   0.00000  Uiso   1.00
I782   I     0.43402   0.27501   0.74734   0.00000  Uiso   1.00
I783   I     0.43402   0.05833   0.74734   0.00000  Uiso   1.00
I784   I     0.56598   0.27501   0.91932   0.00000  Uiso   1.00
N785   N     0.50000   0.28573   0.83333   0.00000  Uiso   1.00
N786   N     0.50000   0.04760   0.83333   0.00000  Uiso   1.00
N787   N     0.38841   0.05046   0.86977   0.00000  Uiso   1.00
N788   N     0.61159   0.28288   0.79690   0.00000  Uiso   1.00
N789   N     0.61159   0.05045   0.79692   0.00000  Uiso   1.00
N790   N     0.38841   0.28288   0.86975   0.00000  Uiso   1.00
O791   O     0.43892   0.20487   0.83333   0.00000  Uiso   1.00
O792   O     0.56108   0.12846   0.83334   0.00000  Uiso   1.00
O793   O     0.56108   0.20487   0.83334   0.00000  Uiso   1.00
O794   O     0.43892   0.12846   0.83333   0.00000  Uiso   1.00
O795   O     0.50000   0.20488   0.76178   0.00000  Uiso   1.00
O796   O     0.50000   0.12845   0.90489   0.00000  Uiso   1.00
O797   O     0.50000   0.20488   0.90489   0.00000  Uiso   1.00
O798   O     0.50000   0.12845   0.76178   0.00000  Uiso   1.00
Zn799  Zn    0.50000   0.21771   0.83333   0.00000  Uiso   1.00
Zn800  Zn    0.50000   0.11563   0.83333   0.00000  Uiso   1.00
C801   C     0.75364   0.16667   0.83770   0.00000  Uiso   1.00
C802   C     0.68752   0.20766   0.84020   0.00000  Uiso   1.00
C803   C     0.95751   0.16667   0.82455   0.00000  Uiso   1.00
C804   C     0.70915   0.16667   0.84212   0.00000  Uiso   1.00
C805   C     0.85879   0.02390   0.86655   0.00000  Uiso   1.00
C806   C     0.80787   0.30944   0.80012   0.00000  Uiso   1.00
C807   C     0.80787   0.02390   0.80012   0.00000  Uiso   1.00
C808   C     0.85879   0.30944   0.86655   0.00000  Uiso   1.00
C809   C     0.70664   0.08375   0.85645   0.00000  Uiso   1.00
C810   C     0.96003   0.24958   0.81022   0.00000  Uiso   1.00
C811   C     0.96003   0.08375   0.81023   0.00000  Uiso   1.00
C812   C     0.91303   0.16667   0.82897   0.00000  Uiso   1.00
C813   C     0.70664   0.24958   0.85644   0.00000  Uiso   1.00
C814   C     0.83327   0.16667   0.73968   0.00000  Uiso   1.00
C815   C     0.83339   0.16667   0.92699   0.00000  Uiso   1.00
C816   C     0.83332   0.16667   0.68850   0.00000  Uiso   1.00
C817   C     0.83335   0.16667   0.97816   0.00000  Uiso   1.00
C818   C     0.68753   0.12568   0.84021   0.00000  Uiso   1.00
C819   C     0.97914   0.20766   0.82646   0.00000  Uiso   1.00
C820   C     0.97914   0.12568   0.82647   0.00000  Uiso   1.00
I821   I     0.89931   0.05832   0.91932   0.00000  Uiso   1.00
I822   I     0.76735   0.27501   0.74734   0.00000  Uiso   1.00
I823   I     0.76735   0.05833   0.74734   0.00000  Uiso   1.00
I824   I     0.89932   0.27501   0.91932   0.00000  Uiso   1.00
N825   N     0.83333   0.28573   0.83333   0.00000  Uiso   1.00
N826   N     0.83333   0.04760   0.83333   0.00000  Uiso   1.00
N827   N     0.72175   0.05046   0.86977   0.00000  Uiso   1.00
N828   N     0.94492   0.28288   0.79690   0.00000  Uiso   1.00
N829   N     0.94493   0.05045   0.79692   0.00000  Uiso   1.00
N830   N     0.72174   0.28288   0.86975   0.00000  Uiso   1.00
O831   O     0.77226   0.20487   0.83333   0.00000  Uiso   1.00
O832   O     0.89441   0.12846   0.83334   0.00000  Uiso   1.00
O833   O     0.89441   0.20487   0.83334   0.00000  Uiso   1.00
O834   O     0.77226   0.12846   0.83333   0.00000  Uiso   1.00
O835   O     0.83334   0.20488   0.76178   0.00000  Uiso   1.00
O836   O     0.83333   0.12845   0.90489   0.00000  Uiso   1.00
O837   O     0.83333   0.20488   0.90489   0.00000  Uiso   1.00
O838   O     0.83334   0.12845   0.76178   0.00000  Uiso   1.00
Zn839  Zn    0.83333   0.21771   0.83333   0.00000  Uiso   1.00
Zn840  Zn    0.83333   0.11563   0.83333   0.00000  Uiso   1.00
C841   C     0.08697   0.50000   0.83770   0.00000  Uiso   1.00
C842   C     0.02086   0.54099   0.84020   0.00000  Uiso   1.00
C843   C     0.29085   0.50000   0.82455   0.00000  Uiso   1.00
C844   C     0.04249   0.50000   0.84212   0.00000  Uiso   1.00
C845   C     0.19213   0.35723   0.86655   0.00000  Uiso   1.00
C846   C     0.14121   0.64277   0.80012   0.00000  Uiso   1.00
C847   C     0.14121   0.35723   0.80012   0.00000  Uiso   1.00
C848   C     0.19213   0.64277   0.86655   0.00000  Uiso   1.00
C849   C     0.03997   0.41709   0.85645   0.00000  Uiso   1.00
C850   C     0.29336   0.58291   0.81022   0.00000  Uiso   1.00
C851   C     0.29336   0.41709   0.81023   0.00000  Uiso   1.00
C852   C     0.24636   0.50000   0.82897   0.00000  Uiso   1.00
C853   C     0.03997   0.58291   0.85644   0.00000  Uiso   1.00
C854   C     0.16661   0.50000   0.73968   0.00000  Uiso   1.00
C855   C     0.16673   0.50000   0.92699   0.00000  Uiso   1.00
C856   C     0.16665   0.50000   0.68850   0.00000  Uiso   1.00
C857   C     0.16668   0.50000   0.97816   0.00000  Uiso   1.00
C858   C     0.02086   0.45901   0.84021   0.00000  Uiso   1.00
C859   C     0.31248   0.54099   0.82646   0.00000  Uiso   1.00
C860   C     0.31248   0.45901   0.82647   0.00000  Uiso   1.00
I861   I     0.23265   0.39166   0.91932   0.00000  Uiso   1.00
I862   I     0.10069   0.60834   0.74734   0.00000  Uiso   1.00
I863   I     0.10068   0.39166   0.74734   0.00000  Uiso   1.00
I864   I     0.23265   0.60834   0.91932   0.00000  Uiso   1.00
N865   N     0.16667   0.61907   0.83333   0.00000  Uiso   1.00
N866   N     0.16667   0.38093   0.83333   0.00000  Uiso   1.00
N867   N     0.05508   0.38379   0.86977   0.00000  Uiso   1.00
N868   N     0.27825   0.61621   0.79690   0.00000  Uiso   1.00
N869   N     0.27826   0.38379   0.79692   0.00000  Uiso   1.00
N870   N     0.05508   0.61621   0.86975   0.00000  Uiso   1.00
O871   O     0.10559   0.53821   0.83333   0.00000  Uiso   1.00
O872   O     0.22774   0.46179   0.83334   0.00000  Uiso   1.00
O873   O     0.22774   0.53821   0.83334   0.00000  Uiso   1.00
O874   O     0.10559   0.46179   0.83333   0.00000  Uiso   1.00
O875   O     0.16667   0.53821   0.76178   0.00000  Uiso   1.00
O876   O     0.16666   0.46179   0.90489   0.00000  Uiso   1.00
O877   O     0.16666   0.53821   0.90489   0.00000  Uiso   1.00
O878   O     0.16667   0.46179   0.76178   0.00000  Uiso   1.00
Zn879  Zn    0.16667   0.55104   0.83333   0.00000  Uiso   1.00
Zn880  Zn    0.16667   0.44896   0.83333   0.00000  Uiso   1.00
C881   C     0.42030   0.50000   0.83770   0.00000  Uiso   1.00
C882   C     0.35419   0.54099   0.84020   0.00000  Uiso   1.00
C883   C     0.62418   0.50000   0.82455   0.00000  Uiso   1.00
C884   C     0.37582   0.50000   0.84212   0.00000  Uiso   1.00
C885   C     0.52546   0.35723   0.86655   0.00000  Uiso   1.00
C886   C     0.47454   0.64277   0.80012   0.00000  Uiso   1.00
C887   C     0.47454   0.35723   0.80012   0.00000  Uiso   1.00
C888   C     0.52546   0.64277   0.86655   0.00000  Uiso   1.00
C889   C     0.37331   0.41709   0.85645   0.00000  Uiso   1.00
C890   C     0.62669   0.58291   0.81022   0.00000  Uiso   1.00
C891   C     0.62670   0.41709   0.81023   0.00000  Uiso   1.00
C892   C     0.57970   0.50000   0.82897   0.00000  Uiso   1.00
C893   C     0.37330   0.58291   0.85644   0.00000  Uiso   1.00
C894   C     0.49994   0.50000   0.73968   0.00000  Uiso   1.00
C895   C     0.50006   0.50000   0.92699   0.00000  Uiso   1.00
C896   C     0.49998   0.50000   0.68850   0.00000  Uiso   1.00
C897   C     0.50002   0.50000   0.97816   0.00000  Uiso   1.00
C898   C     0.35419   0.45901   0.84021   0.00000  Uiso   1.00
C899   C     0.64581   0.54099   0.82646   0.00000  Uiso   1.00
C900   C     0.64581   0.45901   0.82647   0.00000  Uiso   1.00
I901   I     0.56598   0.39166   0.91932   0.00000  Uiso   1.00
I902   I     0.43402   0.60834   0.74734   0.00000  Uiso   1.00
I903   I     0.43402   0.39166   0.74734   0.00000  Uiso   1.00
I904   I     0.56598   0.60834   0.91932   0.00000  Uiso   1.00
N905   N     0.50000   0.61907   0.83333   0.00000  Uiso   1.00
N906   N     0.50000   0.38093   0.83333   0.00000  Uiso   1.00
N907   N     0.38841   0.38379   0.86977   0.00000  Uiso   1.00
N908   N     0.61159   0.61621   0.79690   0.00000  Uiso   1.00
N909   N     0.61159   0.38379   0.79692   0.00000  Uiso   1.00
N910   N     0.38841   0.61621   0.86975   0.00000  Uiso   1.00
O911   O     0.43892   0.53821   0.83333   0.00000  Uiso   1.00
O912   O     0.56108   0.46179   0.83334   0.00000  Uiso   1.00
O913   O     0.56108   0.53821   0.83334   0.00000  Uiso   1.00
O914   O     0.43892   0.46179   0.83333   0.00000  Uiso   1.00
O915   O     0.50000   0.53821   0.76178   0.00000  Uiso   1.00
O916   O     0.50000   0.46179   0.90489   0.00000  Uiso   1.00
O917   O     0.50000   0.53821   0.90489   0.00000  Uiso   1.00
O918   O     0.50000   0.46179   0.76178   0.00000  Uiso   1.00
Zn919  Zn    0.50000   0.55104   0.83333   0.00000  Uiso   1.00
Zn920  Zn    0.50000   0.44896   0.83333   0.00000  Uiso   1.00
C921   C     0.75364   0.50000   0.83770   0.00000  Uiso   1.00
C922   C     0.68752   0.54099   0.84020   0.00000  Uiso   1.00
C923   C     0.95751   0.50000   0.82455   0.00000  Uiso   1.00
C924   C     0.70915   0.50000   0.84212   0.00000  Uiso   1.00
C925   C     0.85879   0.35723   0.86655   0.00000  Uiso   1.00
C926   C     0.80787   0.64277   0.80012   0.00000  Uiso   1.00
C927   C     0.80787   0.35723   0.80012   0.00000  Uiso   1.00
C928   C     0.85879   0.64277   0.86655   0.00000  Uiso   1.00
C929   C     0.70664   0.41709   0.85645   0.00000  Uiso   1.00
C930   C     0.96003   0.58291   0.81022   0.00000  Uiso   1.00
C931   C     0.96003   0.41709   0.81023   0.00000  Uiso   1.00
C932   C     0.91303   0.50000   0.82897   0.00000  Uiso   1.00
C933   C     0.70664   0.58291   0.85644   0.00000  Uiso   1.00
C934   C     0.83327   0.50000   0.73968   0.00000  Uiso   1.00
C935   C     0.83339   0.50000   0.92699   0.00000  Uiso   1.00
C936   C     0.83332   0.50000   0.68850   0.00000  Uiso   1.00
C937   C     0.83335   0.50000   0.97816   0.00000  Uiso   1.00
C938   C     0.68753   0.45901   0.84021   0.00000  Uiso   1.00
C939   C     0.97914   0.54099   0.82646   0.00000  Uiso   1.00
C940   C     0.97914   0.45901   0.82647   0.00000  Uiso   1.00
I941   I     0.89931   0.39166   0.91932   0.00000  Uiso   1.00
I942   I     0.76735   0.60834   0.74734   0.00000  Uiso   1.00
I943   I     0.76735   0.39166   0.74734   0.00000  Uiso   1.00
I944   I     0.89932   0.60834   0.91932   0.00000  Uiso   1.00
N945   N     0.83333   0.61907   0.83333   0.00000  Uiso   1.00
N946   N     0.83333   0.38093   0.83333   0.00000  Uiso   1.00
N947   N     0.72175   0.38379   0.86977   0.00000  Uiso   1.00
N948   N     0.94492   0.61621   0.79690   0.00000  Uiso   1.00
N949   N     0.94493   0.38379   0.79692   0.00000  Uiso   1.00
N950   N     0.72174   0.61621   0.86975   0.00000  Uiso   1.00
O951   O     0.77226   0.53821   0.83333   0.00000  Uiso   1.00
O952   O     0.89441   0.46179   0.83334   0.00000  Uiso   1.00
O953   O     0.89441   0.53821   0.83334   0.00000  Uiso   1.00
O954   O     0.77226   0.46179   0.83333   0.00000  Uiso   1.00
O955   O     0.83334   0.53821   0.76178   0.00000  Uiso   1.00
O956   O     0.83333   0.46179   0.90489   0.00000  Uiso   1.00
O957   O     0.83333   0.53821   0.90489   0.00000  Uiso   1.00
O958   O     0.83334   0.46179   0.76178   0.00000  Uiso   1.00
Zn959  Zn    0.83333   0.55104   0.83333   0.00000  Uiso   1.00
Zn960  Zn    0.83333   0.44896   0.83333   0.00000  Uiso   1.00
C961   C     0.08697   0.83333   0.83770   0.00000  Uiso   1.00
C962   C     0.02086   0.87433   0.84020   0.00000  Uiso   1.00
C963   C     0.29085   0.83333   0.82455   0.00000  Uiso   1.00
C964   C     0.04249   0.83333   0.84212   0.00000  Uiso   1.00
C965   C     0.19213   0.69056   0.86655   0.00000  Uiso   1.00
C966   C     0.14121   0.97610   0.80012   0.00000  Uiso   1.00
C967   C     0.14121   0.69056   0.80012   0.00000  Uiso   1.00
C968   C     0.19213   0.97610   0.86655   0.00000  Uiso   1.00
C969   C     0.03997   0.75042   0.85645   0.00000  Uiso   1.00
C970   C     0.29336   0.91625   0.81022   0.00000  Uiso   1.00
C971   C     0.29336   0.75042   0.81023   0.00000  Uiso   1.00
C972   C     0.24636   0.83333   0.82897   0.00000  Uiso   1.00
C973   C     0.03997   0.91625   0.85644   0.00000  Uiso   1.00
C974   C     0.16661   0.83333   0.73968   0.00000  Uiso   1.00
C975   C     0.16673   0.83333   0.92699   0.00000  Uiso   1.00
C976   C     0.16665   0.83333   0.68850   0.00000  Uiso   1.00
C977   C     0.16668   0.83333   0.97816   0.00000  Uiso   1.00
C978   C     0.02086   0.79234   0.84021   0.00000  Uiso   1.00
C979   C     0.31248   0.87432   0.82646   0.00000  Uiso   1.00
C980   C     0.31248   0.79234   0.82647   0.00000  Uiso   1.00
I981   I     0.23265   0.72499   0.91932   0.00000  Uiso   1.00
I982   I     0.10069   0.94168   0.74734   0.00000  Uiso   1.00
I983   I     0.10068   0.72499   0.74734   0.00000  Uiso   1.00
I984   I     0.23265   0.94167   0.91932   0.00000  Uiso   1.00
N985   N     0.16667   0.95240   0.83333   0.00000  Uiso   1.00
N986   N     0.16667   0.71427   0.83333   0.00000  Uiso   1.00
N987   N     0.05508   0.71712   0.86977   0.00000  Uiso   1.00
N988   N     0.27825   0.94954   0.79690   0.00000  Uiso   1.00
N989   N     0.27826   0.71712   0.79692   0.00000  Uiso   1.00
N990   N     0.05508   0.94955   0.86975   0.00000  Uiso   1.00
O991   O     0.10559   0.87154   0.83333   0.00000  Uiso   1.00
O992   O     0.22774   0.79513   0.83334   0.00000  Uiso   1.00
O993   O     0.22774   0.87154   0.83334   0.00000  Uiso   1.00
O994   O     0.10559   0.79513   0.83333   0.00000  Uiso   1.00
O995   O     0.16667   0.87155   0.76178   0.00000  Uiso   1.00
O996   O     0.16666   0.79512   0.90489   0.00000  Uiso   1.00
O997   O     0.16666   0.87155   0.90489   0.00000  Uiso   1.00
O998   O     0.16667   0.79512   0.76178   0.00000  Uiso   1.00
Zn999  Zn    0.16667   0.88437   0.83333   0.00000  Uiso   1.00
Zn1000 Zn    0.16667   0.78229   0.83333   0.00000  Uiso   1.00
C1001  C     0.42030   0.83333   0.83770   0.00000  Uiso   1.00
C1002  C     0.35419   0.87433   0.84020   0.00000  Uiso   1.00
C1003  C     0.62418   0.83333   0.82455   0.00000  Uiso   1.00
C1004  C     0.37582   0.83333   0.84212   0.00000  Uiso   1.00
C1005  C     0.52546   0.69056   0.86655   0.00000  Uiso   1.00
C1006  C     0.47454   0.97610   0.80012   0.00000  Uiso   1.00
C1007  C     0.47454   0.69056   0.80012   0.00000  Uiso   1.00
C1008  C     0.52546   0.97610   0.86655   0.00000  Uiso   1.00
C1009  C     0.37331   0.75042   0.85645   0.00000  Uiso   1.00
C1010  C     0.62669   0.91625   0.81022   0.00000  Uiso   1.00
C1011  C     0.62670   0.75042   0.81023   0.00000  Uiso   1.00
C1012  C     0.57970   0.83333   0.82897   0.00000  Uiso   1.00
C1013  C     0.37330   0.91625   0.85644   0.00000  Uiso   1.00
C1014  C     0.49994   0.83333   0.73968   0.00000  Uiso   1.00
C1015  C     0.50006   0.83333   0.92699   0.00000  Uiso   1.00
C1016  C     0.49998   0.83333   0.68850   0.00000  Uiso   1.00
C1017  C     0.50002   0.83333   0.97816   0.00000  Uiso   1.00
C1018  C     0.35419   0.79234   0.84021   0.00000  Uiso   1.00
C1019  C     0.64581   0.87432   0.82646   0.00000  Uiso   1.00
C1020  C     0.64581   0.79234   0.82647   0.00000  Uiso   1.00
I1021  I     0.56598   0.72499   0.91932   0.00000  Uiso   1.00
I1022  I     0.43402   0.94168   0.74734   0.00000  Uiso   1.00
I1023  I     0.43402   0.72499   0.74734   0.00000  Uiso   1.00
I1024  I     0.56598   0.94167   0.91932   0.00000  Uiso   1.00
N1025  N     0.50000   0.95240   0.83333   0.00000  Uiso   1.00
N1026  N     0.50000   0.71427   0.83333   0.00000  Uiso   1.00
N1027  N     0.38841   0.71712   0.86977   0.00000  Uiso   1.00
N1028  N     0.61159   0.94954   0.79690   0.00000  Uiso   1.00
N1029  N     0.61159   0.71712   0.79692   0.00000  Uiso   1.00
N1030  N     0.38841   0.94955   0.86975   0.00000  Uiso   1.00
O1031  O     0.43892   0.87154   0.83333   0.00000  Uiso   1.00
O1032  O     0.56108   0.79513   0.83334   0.00000  Uiso   1.00
O1033  O     0.56108   0.87154   0.83334   0.00000  Uiso   1.00
O1034  O     0.43892   0.79513   0.83333   0.00000  Uiso   1.00
O1035  O     0.50000   0.87155   0.76178   0.00000  Uiso   1.00
O1036  O     0.50000   0.79512   0.90489   0.00000  Uiso   1.00
O1037  O     0.50000   0.87155   0.90489   0.00000  Uiso   1.00
O1038  O     0.50000   0.79512   0.76178   0.00000  Uiso   1.00
Zn1039 Zn    0.50000   0.88437   0.83333   0.00000  Uiso   1.00
Zn1040 Zn    0.50000   0.78229   0.83333   0.00000  Uiso   1.00
C1041  C     0.75364   0.83333   0.83770   0.00000  Uiso   1.00
C1042  C     0.68752   0.87433   0.84020   0.00000  Uiso   1.00
C1043  C     0.95751   0.83333   0.82455   0.00000  Uiso   1.00
C1044  C     0.70915   0.83333   0.84212   0.00000  Uiso   1.00
C1045  C     0.85879   0.69056   0.86655   0.00000  Uiso   1.00
C1046  C     0.80787   0.97610   0.80012   0.00000  Uiso   1.00
C1047  C     0.80787   0.69056   0.80012   0.00000  Uiso   1.00
C1048  C     0.85879   0.97610   0.86655   0.00000  Uiso   1.00
C1049  C     0.70664   0.75042   0.85645   0.00000  Uiso   1.00
C1050  C     0.96003   0.91625   0.81022   0.00000  Uiso   1.00
C1051  C     0.96003   0.75042   0.81023   0.00000  Uiso   1.00
C1052  C     0.91303   0.83333   0.82897   0.00000  Uiso   1.00
C1053  C     0.70664   0.91625   0.85644   0.00000  Uiso   1.00
C1054  C     0.83327   0.83333   0.73968   0.00000  Uiso   1.00
C1055  C     0.83339   0.83333   0.92699   0.00000  Uiso   1.00
C1056  C     0.83332   0.83333   0.68850   0.00000  Uiso   1.00
C1057  C     0.83335   0.83333   0.97816   0.00000  Uiso   1.00
C1058  C     0.68753   0.79234   0.84021   0.00000  Uiso   1.00
C1059  C     0.97914   0.87432   0.82646   0.00000  Uiso   1.00
C1060  C     0.97914   0.79234   0.82647   0.00000  Uiso   1.00
I1061  I     0.89931   0.72499   0.91932   0.00000  Uiso   1.00
I1062  I     0.76735   0.94168   0.74734   0.00000  Uiso   1.00
I1063  I     0.76735   0.72499   0.74734   0.00000  Uiso   1.00
I1064  I     0.89932   0.94167   0.91932   0.00000  Uiso   1.00
N1065  N     0.83333   0.95240   0.83333   0.00000  Uiso   1.00
N1066  N     0.83333   0.71427   0.83333   0.00000  Uiso   1.00
N1067  N     0.72175   0.71712   0.86977   0.00000  Uiso   1.00
N1068  N     0.94492   0.94954   0.79690   0.00000  Uiso   1.00
N1069  N     0.94493   0.71712   0.79692   0.00000  Uiso   1.00
N1070  N     0.72174   0.94955   0.86975   0.00000  Uiso   1.00
O1071  O     0.77226   0.87154   0.83333   0.00000  Uiso   1.00
O1072  O     0.89441   0.79513   0.83334   0.00000  Uiso   1.00
O1073  O     0.89441   0.87154   0.83334   0.00000  Uiso   1.00
O1074  O     0.77226   0.79513   0.83333   0.00000  Uiso   1.00
O1075  O     0.83334   0.87155   0.76178   0.00000  Uiso   1.00
O1076  O     0.83333   0.79512   0.90489   0.00000  Uiso   1.00
O1077  O     0.83333   0.87155   0.90489   0.00000  Uiso   1.00
O1078  O     0.83334   0.79512   0.76178   0.00000  Uiso   1.00
Zn1079 Zn    0.83333   0.88437   0.83333   0.00000  Uiso   1.00
Zn1080 Zn    0.83333   0.78229   0.83333   0.00000  Uiso   1.00
loop_
_geom_bond_atom_site_label_1
_geom_bond_atom_site_label_2
_geom_bond_distance
_geom_bond_site_symmetry_2
_ccdc_geom_bond_type
C1     C4      1.450   .     S
C1     O34     1.299   .     A
C1     O31     1.299   .     A
C2     C4      1.411   .     A
C2     C13     1.454   .     S
C2     C99     1.382   1_455 S
C3     C19     1.411   .     A
C3     C20     1.411   .     A
C3     C12     1.450   .     S
C4     C18     1.411   .     A
C5     N26     1.376   .     A
C5     I21     2.140   .     S
C5     C248    1.428   1_545 S
C6     N25     1.376   .     A
C6     I22     2.140   .     S
C6     C127    1.428   .     S
C7     N26     1.376   .     A
C7     I23     2.140   .     S
C7     C246    1.428   1_545 S
C8     N25     1.376   .     A
C8     I24     2.140   .     S
C8     C125    1.428   .     S
C9     C18     1.454   .     S
C9     N27     1.157   .     T
C10    C19     1.454   .     S
C10    N28     1.157   .     T
C11    N29     1.157   .     T
C11    C20     1.454   .     S
C12    O32     1.299   .     A
C12    O33     1.299   .     A
C13    N30     1.157   .     T
C14    O38     1.285   .     A
C14    C16     1.364   .     S
C14    O35     1.285   .     A
C15    O36     1.285   .     A
C15    C17     1.364   .     S
C15    O37     1.285   .     A
C16    C737    1.164   1_554 S
C17    C376    1.164   .     S
C18    C100    1.382   1_455 S
C19    C42     1.382   .     S
C20    C58     1.382   .     S
N25    Zn39    2.033   .     S
N26    Zn40    2.033   .     S
O31    Zn39    2.013   .     S
O32    Zn40    2.013   .     S
O33    Zn39    2.013   .     S
O34    Zn40    2.013   .     S
O35    Zn39    1.946   .     S
O36    Zn40    1.946   .     S
O37    Zn39    1.946   .     S
O38    Zn40    1.946   .     S
C41    C44     1.450   .     S
C41    O74     1.299   .     A
C41    O71     1.299   .     A
C42    C44     1.411   .     A
C42    C53     1.454   .     S
C43    C59     1.411   .     A
C43    C60     1.411   .     A
C43    C52     1.450   .     S
C44    C58     1.411   .     A
C45    N66     1.376   .     A
C45    I61     2.140   .     S
C45    C288    1.428   1_545 S
C46    N65     1.376   .     A
C46    I62     2.140   .     S
C46    C167    1.428   .     S
C47    N66     1.376   .     A
C47    I63     2.140   .     S
C47    C286    1.428   1_545 S
C48    N65     1.376   .     A
C48    I64     2.140   .     S
C48    C165    1.428   .     S
C49    C58     1.454   .     S
C49    N67     1.157   .     T
C50    C59     1.454   .     S
C50    N68     1.157   .     T
C51    N69     1.157   .     T
C51    C60     1.454   .     S
C52    O72     1.299   .     A
C52    O73     1.299   .     A
C53    N70     1.157   .     T
C54    O78     1.285   .     A
C54    C56     1.364   .     S
C54    O75     1.285   .     A
C55    O76     1.285   .     A
C55    C57     1.364   .     S
C55    O77     1.285   .     A
C56    C777    1.164   1_554 S
C57    C416    1.164   .     S
C59    C82     1.382   .     S
C60    C98     1.382   .     S
N65    Zn79    2.033   .     S
N66    Zn80    2.033   .     S
O71    Zn79    2.013   .     S
O72    Zn80    2.013   .     S
O73    Zn79    2.013   .     S
O74    Zn80    2.013   .     S
O75    Zn79    1.946   .     S
O76    Zn80    1.946   .     S
O77    Zn79    1.946   .     S
O78    Zn80    1.946   .     S
C81    C84     1.450   .     S
C81    O114    1.299   .     A
C81    O111    1.299   .     A
C82    C84     1.411   .     A
C82    C93     1.454   .     S
C83    C99     1.411   .     A
C83    C100    1.411   .     A
C83    C92     1.450   .     S
C84    C98     1.411   .     A
C85    N106    1.376   .     A
C85    I101    2.140   .     S
C85    C328    1.428   1_545 S
C86    N105    1.376   .     A
C86    I102    2.140   .     S
C86    C207    1.428   .     S
C87    N106    1.376   .     A
C87    I103    2.140   .     S
C87    C326    1.428   1_545 S
C88    N105    1.376   .     A
C88    I104    2.140   .     S
C88    C205    1.428   .     S
C89    C98     1.454   .     S
C89    N107    1.157   .     T
C90    C99     1.454   .     S
C90    N108    1.157   .     T
C91    N109    1.157   .     T
C91    C100    1.454   .     S
C92    O112    1.299   .     A
C92    O113    1.299   .     A
C93    N110    1.157   .     T
C94    O118    1.285   .     A
C94    C96     1.364   .     S
C94    O115    1.285   .     A
C95    O116    1.285   .     A
C95    C97     1.364   .     S
C95    O117    1.285   .     A
C96    C817    1.164   1_554 S
C97    C456    1.164   .     S
C99    C2      1.382   1_655 S
C100   C18     1.382   1_655 S
N105   Zn119   2.033   .     S
N106   Zn120   2.033   .     S
O111   Zn119   2.013   .     S
O112   Zn120   2.013   .     S
O113   Zn119   2.013   .     S
O114   Zn120   2.013   .     S
O115   Zn119   1.946   .     S
O116   Zn120   1.946   .     S
O117   Zn119   1.946   .     S
O118   Zn120   1.946   .     S
C121   C124    1.450   .     S
C121   O154    1.299   .     A
C121   O151    1.299   .     A
C122   C124    1.411   .     A
C122   C133    1.454   .     S
C122   C219    1.382   1_455 S
C123   C139    1.411   .     A
C123   C140    1.411   .     A
C123   C132    1.450   .     S
C124   C138    1.411   .     A
C125   N146    1.376   .     A
C125   I141    2.140   .     S
C126   N145    1.376   .     A
C126   I142    2.140   .     S
C126   C247    1.428   .     S
C127   N146    1.376   .     A
C127   I143    2.140   .     S
C128   N145    1.376   .     A
C128   I144    2.140   .     S
C128   C245    1.428   .     S
C129   C138    1.454   .     S
C129   N147    1.157   .     T
C130   C139    1.454   .     S
C130   N148    1.157   .     T
C131   N149    1.157   .     T
C131   C140    1.454   .     S
C132   O152    1.299   .     A
C132   O153    1.299   .     A
C133   N150    1.157   .     T
C134   O158    1.285   .     A
C134   C136    1.364   .     S
C134   O155    1.285   .     A
C135   O156    1.285   .     A
C135   C137    1.364   .     S
C135   O157    1.285   .     A
C136   C857    1.164   1_554 S
C137   C496    1.164   .     S
C138   C220    1.382   1_455 S
C139   C162    1.382   .     S
C140   C178    1.382   .     S
N145   Zn159   2.033   .     S
N146   Zn160   2.033   .     S
O151   Zn159   2.013   .     S
O152   Zn160   2.013   .     S
O153   Zn159   2.013   .     S
O154   Zn160   2.013   .     S
O155   Zn159   1.946   .     S
O156   Zn160   1.946   .     S
O157   Zn159   1.946   .     S
O158   Zn160   1.946   .     S
C161   C164    1.450   .     S
C161   O194    1.299   .     A
C161   O191    1.299   .     A
C162   C164    1.411   .     A
C162   C173    1.454   .     S
C163   C179    1.411   .     A
C163   C180    1.411   .     A
C163   C172    1.450   .     S
C164   C178    1.411   .     A
C165   N186    1.376   .     A
C165   I181    2.140   .     S
C166   N185    1.376   .     A
C166   I182    2.140   .     S
C166   C287    1.428   .     S
C167   N186    1.376   .     A
C167   I183    2.140   .     S
C168   N185    1.376   .     A
C168   I184    2.140   .     S
C168   C285    1.428   .     S
C169   C178    1.454   .     S
C169   N187    1.157   .     T
C170   C179    1.454   .     S
C170   N188    1.157   .     T
C171   N189    1.157   .     T
C171   C180    1.454   .     S
C172   O192    1.299   .     A
C172   O193    1.299   .     A
C173   N190    1.157   .     T
C174   O198    1.285   .     A
C174   C176    1.364   .     S
C174   O195    1.285   .     A
C175   O196    1.285   .     A
C175   C177    1.364   .     S
C175   O197    1.285   .     A
C176   C897    1.164   1_554 S
C177   C536    1.164   .     S
C179   C202    1.382   .     S
C180   C218    1.382   .     S
N185   Zn199   2.033   .     S
N186   Zn200   2.033   .     S
O191   Zn199   2.013   .     S
O192   Zn200   2.013   .     S
O193   Zn199   2.013   .     S
O194   Zn200   2.013   .     S
O195   Zn199   1.946   .     S
O196   Zn200   1.946   .     S
O197   Zn199   1.946   .     S
O198   Zn200   1.946   .     S
C201   C204    1.450   .     S
C201   O234    1.299   .     A
C201   O231    1.299   .     A
C202   C204    1.411   .     A
C202   C213    1.454   .     S
C203   C219    1.411   .     A
C203   C220    1.411   .     A
C203   C212    1.450   .     S
C204   C218    1.411   .     A
C205   N226    1.376   .     A
C205   I221    2.140   .     S
C206   N225    1.376   .     A
C206   I222    2.140   .     S
C206   C327    1.428   .     S
C207   N226    1.376   .     A
C207   I223    2.140   .     S
C208   N225    1.376   .     A
C208   I224    2.140   .     S
C208   C325    1.428   .     S
C209   C218    1.454   .     S
C209   N227    1.157   .     T
C210   C219    1.454   .     S
C210   N228    1.157   .     T
C211   N229    1.157   .     T
C211   C220    1.454   .     S
C212   O232    1.299   .     A
C212   O233    1.299   .     A
C213   N230    1.157   .     T
C214   O238    1.285   .     A
C214   C216    1.364   .     S
C214   O235    1.285   .     A
C215   O236    1.285   .     A
C215   C217    1.364   .     S
C215   O237    1.285   .     A
C216   C937    1.164   1_554 S
C217   C576    1.164   .     S
C219   C122    1.382   1_655 S
C220   C138    1.382   1_655 S
N225   Zn239   2.033   .     S
N226   Zn240   2.033   .     S
O231   Zn239   2.013   .     S
O232   Zn240   2.013   .     S
O233   Zn239   2.013   .     S
O234   Zn240   2.013   .     S
O235   Zn239   1.946   .     S
O236   Zn240   1.946   .     S
O237   Zn239   1.946   .     S
O238   Zn240   1.946   .     S
C241   C244    1.450   .     S
C241   O274    1.299   .     A
C241   O271    1.299   .     A
C242   C244    1.411   .     A
C242   C253    1.454   .     S
C242   C339    1.382   1_455 S
C243   C259    1.411   .     A
C243   C260    1.411   .     A
C243   C252    1.450   .     S
C244   C258    1.411   .     A
C245   N266    1.376   .     A
C245   I261    2.140   .     S
C246   N265    1.376   .     A
C246   I262    2.140   .     S
C246   C7      1.428   1_565 S
C247   N266    1.376   .     A
C247   I263    2.140   .     S
C248   N265    1.376   .     A
C248   I264    2.140   .     S
C248   C5      1.428   1_565 S
C249   C258    1.454   .     S
C249   N267    1.157   .     T
C250   C259    1.454   .     S
C250   N268    1.157   .     T
C251   N269    1.157   .     T
C251   C260    1.454   .     S
C252   O272    1.299   .     A
C252   O273    1.299   .     A
C253   N270    1.157   .     T
C254   O278    1.285   .     A
C254   C256    1.364   .     S
C254   O275    1.285   .     A
C255   O276    1.285   .     A
C255   C257    1.364   .     S
C255   O277    1.285   .     A
C256   C977    1.164   1_554 S
C257   C616    1.164   .     S
C258   C340    1.382   1_455 S
C259   C282    1.382   .     S
C260   C298    1.382   .     S
N265   Zn279   2.033   .     S
N266   Zn280   2.033   .     S
O271   Zn279   2.013   .     S
O272   Zn280   2.013   .     S
O273   Zn279   2.013   .     S
O274   Zn280   2.013   .     S
O275   Zn279   1.946   .     S
O276   Zn280   1.946   .     S
O277   Zn279   1.946   .     S
O278   Zn280   1.946   .     S
C281   C284    1.450   .     S
C281   O314    1.299   .     A
C281   O311    1.299   .     A
C282   C284    1.411   .     A
C282   C293    1.454   .     S
C283   C299    1.411   .     A
C283   C300    1.411   .     A
C283   C292    1.450   .     S
C284   C298    1.411   .     A
C285   N306    1.376   .     A
C285   I301    2.140   .     S
C286   N305    1.376   .     A
C286   I302    2.140   .     S
C286   C47     1.428   1_565 S
C287   N306    1.376   .     A
C287   I303    2.140   .     S
C288   N305    1.376   .     A
C288   I304    2.140   .     S
C288   C45     1.428   1_565 S
C289   C298    1.454   .     S
C289   N307    1.157   .     T
C290   C299    1.454   .     S
C290   N308    1.157   .     T
C291   N309    1.157   .     T
C291   C300    1.454   .     S
C292   O312    1.299   .     A
C292   O313    1.299   .     A
C293   N310    1.157   .     T
C294   O318    1.285   .     A
C294   C296    1.364   .     S
C294   O315    1.285   .     A
C295   O316    1.285   .     A
C295   C297    1.364   .     S
C295   O317    1.285   .     A
C296   C1017   1.164   1_554 S
C297   C656    1.164   .     S
C299   C322    1.382   .     S
C300   C338    1.382   .     S
N305   Zn319   2.033   .     S
N306   Zn320   2.033   .     S
O311   Zn319   2.013   .     S
O312   Zn320   2.013   .     S
O313   Zn319   2.013   .     S
O314   Zn320   2.013   .     S
O315   Zn319   1.946   .     S
O316   Zn320   1.946   .     S
O317   Zn319   1.946   .     S
O318   Zn320   1.946   .     S
C321   C324    1.450   .     S
C321   O354    1.299   .     A
C321   O351    1.299   .     A
C322   C324    1.411   .     A
C322   C333    1.454   .     S
C323   C339    1.411   .     A
C323   C340    1.411   .     A
C323   C332    1.450   .     S
C324   C338    1.411   .     A
C325   N346    1.376   .     A
C325   I341    2.140   .     S
C326   N345    1.376   .     A
C326   I342    2.140   .     S
C326   C87     1.428   1_565 S
C327   N346    1.376   .     A
C327   I343    2.140   .     S
C328   N345    1.376   .     A
C328   I344    2.140   .     S
C328   C85     1.428   1_565 S
C329   C338    1.454   .     S
C329   N347    1.157   .     T
C330   C339    1.454   .     S
C330   N348    1.157   .     T
C331   N349    1.157   .     T
C331   C340    1.454   .     S
C332   O352    1.299   .     A
C332   O353    1.299   .     A
C333   N350    1.157   .     T
C334   O358    1.285   .     A
C334   C336    1.364   .     S
C334   O355    1.285   .     A
C335   O356    1.285   .     A
C335   C337    1.364   .     S
C335   O357    1.285   .     A
C336   C1057   1.164   1_554 S
C337   C696    1.164   .     S
C339   C242    1.382   1_655 S
C340   C258    1.382   1_655 S
N345   Zn359   2.033   .     S
N346   Zn360   2.033   .     S
O351   Zn359   2.013   .     S
O352   Zn360   2.013   .     S
O353   Zn359   2.013   .     S
O354   Zn360   2.013   .     S
O355   Zn359   1.946   .     S
O356   Zn360   1.946   .     S
O357   Zn359   1.946   .     S
O358   Zn360   1.946   .     S
C361   C364    1.450   .     S
C361   O394    1.299   .     A
C361   O391    1.299   .     A
C362   C364    1.411   .     A
C362   C373    1.454   .     S
C362   C459    1.382   1_455 S
C363   C379    1.411   .     A
C363   C380    1.411   .     A
C363   C372    1.450   .     S
C364   C378    1.411   .     A
C365   N386    1.376   .     A
C365   I381    2.140   .     S
C365   C608    1.428   1_545 S
C366   N385    1.376   .     A
C366   I382    2.140   .     S
C366   C487    1.428   .     S
C367   N386    1.376   .     A
C367   I383    2.140   .     S
C367   C606    1.428   1_545 S
C368   N385    1.376   .     A
C368   I384    2.140   .     S
C368   C485    1.428   .     S
C369   C378    1.454   .     S
C369   N387    1.157   .     T
C370   C379    1.454   .     S
C370   N388    1.157   .     T
C371   N389    1.157   .     T
C371   C380    1.454   .     S
C372   O392    1.299   .     A
C372   O393    1.299   .     A
C373   N390    1.157   .     T
C374   O398    1.285   .     A
C374   C376    1.364   .     S
C374   O395    1.285   .     A
C375   O396    1.285   .     A
C375   C377    1.364   .     S
C375   O397    1.285   .     A
C377   C736    1.164   .     S
C378   C460    1.382   1_455 S
C379   C402    1.382   .     S
C380   C418    1.382   .     S
N385   Zn399   2.033   .     S
N386   Zn400   2.033   .     S
O391   Zn399   2.013   .     S
O392   Zn400   2.013   .     S
O393   Zn399   2.013   .     S
O394   Zn400   2.013   .     S
O395   Zn399   1.946   .     S
O396   Zn400   1.946   .     S
O397   Zn399   1.946   .     S
O398   Zn400   1.946   .     S
C401   C404    1.450   .     S
C401   O434    1.299   .     A
C401   O431    1.299   .     A
C402   C404    1.411   .     A
C402   C413    1.454   .     S
C403   C419    1.411   .     A
C403   C420    1.411   .     A
C403   C412    1.450   .     S
C404   C418    1.411   .     A
C405   N426    1.376   .     A
C405   I421    2.140   .     S
C405   C648    1.428   1_545 S
C406   N425    1.376   .     A
C406   I422    2.140   .     S
C406   C527    1.428   .     S
C407   N426    1.376   .     A
C407   I423    2.140   .     S
C407   C646    1.428   1_545 S
C408   N425    1.376   .     A
C408   I424    2.140   .     S
C408   C525    1.428   .     S
C409   C418    1.454   .     S
C409   N427    1.157   .     T
C410   C419    1.454   .     S
C410   N428    1.157   .     T
C411   N429    1.157   .     T
C411   C420    1.454   .     S
C412   O432    1.299   .     A
C412   O433    1.299   .     A
C413   N430    1.157   .     T
C414   O438    1.285   .     A
C414   C416    1.364   .     S
C414   O435    1.285   .     A
C415   O436    1.285   .     A
C415   C417    1.364   .     S
C415   O437    1.285   .     A
C417   C776    1.164   .     S
C419   C442    1.382   .     S
C420   C458    1.382   .     S
N425   Zn439   2.033   .     S
N426   Zn440   2.033   .     S
O431   Zn439   2.013   .     S
O432   Zn440   2.013   .     S
O433   Zn439   2.013   .     S
O434   Zn440   2.013   .     S
O435   Zn439   1.946   .     S
O436   Zn440   1.946   .     S
O437   Zn439   1.946   .     S
O438   Zn440   1.946   .     S
C441   C444    1.450   .     S
C441   O474    1.299   .     A
C441   O471    1.299   .     A
C442   C444    1.411   .     A
C442   C453    1.454   .     S
C443   C459    1.411   .     A
C443   C460    1.411   .     A
C443   C452    1.450   .     S
C444   C458    1.411   .     A
C445   N466    1.376   .     A
C445   I461    2.140   .     S
C445   C688    1.428   1_545 S
C446   N465    1.376   .     A
C446   I462    2.140   .     S
C446   C567    1.428   .     S
C447   N466    1.376   .     A
C447   I463    2.140   .     S
C447   C686    1.428   1_545 S
C448   N465    1.376   .     A
C448   I464    2.140   .     S
C448   C565    1.428   .     S
C449   C458    1.454   .     S
C449   N467    1.157   .     T
C450   C459    1.454   .     S
C450   N468    1.157   .     T
C451   N469    1.157   .     T
C451   C460    1.454   .     S
C452   O472    1.299   .     A
C452   O473    1.299   .     A
C453   N470    1.157   .     T
C454   O478    1.285   .     A
C454   C456    1.364   .     S
C454   O475    1.285   .     A
C455   O476    1.285   .     A
C455   C457    1.364   .     S
C455   O477    1.285   .     A
C457   C816    1.164   .     S
C459   C362    1.382   1_655 S
C460   C378    1.382   1_655 S
N465   Zn479   2.033   .     S
N466   Zn480   2.033   .     S
O471   Zn479   2.013   .     S
O472   Zn480   2.013   .     S
O473   Zn479   2.013   .     S
O474   Zn480   2.013   .     S
O475   Zn479   1.946   .     S
O476   Zn480   1.946   .     S
O477   Zn479   1.946   .     S
O478   Zn480   1.946   .     S
C481   C484    1.450   .     S
C481   O514    1.299   .     A
C481   O511    1.299   .     A
C482   C484    1.411   .     A
C482   C493    1.454   .     S
C482   C579    1.382   1_455 S
C483   C499    1.411   .     A
C483   C500    1.411   .     A
C483   C492    1.450   .     S
C484   C498    1.411   .     A
C485   N506    1.376   .     A
C485   I501    2.140   .     S
C486   N505    1.376   .     A
C486   I502    2.140   .     S
C486   C607    1.428   .     S
C487   N506    1.376   .     A
C487   I503    2.140   .     S
C488   N505    1.376   .     A
C488   I504    2.140   .     S
C488   C605    1.428   .     S
C489   C498    1.454   .     S
C489   N507    1.157   .     T
C490   C499    1.454   .     S
C490   N508    1.157   .     T
C491   N509    1.157   .     T
C491   C500    1.454   .     S
C492   O512    1.299   .     A
C492   O513    1.299   .     A
C493   N510    1.157   .     T
C494   O518    1.285   .     A
C494   C496    1.364   .     S
C494   O515    1.285   .     A
C495   O516    1.285   .     A
C495   C497    1.364   .     S
C495   O517    1.285   .     A
C497   C856    1.164   .     S
C498   C580    1.382   1_455 S
C499   C522    1.382   .     S
C500   C538    1.382   .     S
N505   Zn519   2.033   .     S
N506   Zn520   2.033   .     S
O511   Zn519   2.013   .     S
O512   Zn520   2.013   .     S
O513   Zn519   2.013   .     S
O514   Zn520   2.013   .     S
O515   Zn519   1.946   .     S
O516   Zn520   1.946   .     S
O517   Zn519   1.946   .     S
O518   Zn520   1.946   .     S
C521   C524    1.450   .     S
C521   O554    1.299   .     A
C521   O551    1.299   .     A
C522   C524    1.411   .     A
C522   C533    1.454   .     S
C523   C539    1.411   .     A
C523   C540    1.411   .     A
C523   C532    1.450   .     S
C524   C538    1.411   .     A
C525   N546    1.376   .     A
C525   I541    2.140   .     S
C526   N545    1.376   .     A
C526   I542    2.140   .     S
C526   C647    1.428   .     S
C527   N546    1.376   .     A
C527   I543    2.140   .     S
C528   N545    1.376   .     A
C528   I544    2.140   .     S
C528   C645    1.428   .     S
C529   C538    1.454   .     S
C529   N547    1.157   .     T
C530   C539    1.454   .     S
C530   N548    1.157   .     T
C531   N549    1.157   .     T
C531   C540    1.454   .     S
C532   O552    1.299   .     A
C532   O553    1.299   .     A
C533   N550    1.157   .     T
C534   O558    1.285   .     A
C534   C536    1.364   .     S
C534   O555    1.285   .     A
C535   O556    1.285   .     A
C535   C537    1.364   .     S
C535   O557    1.285   .     A
C537   C896    1.164   .     S
C539   C562    1.382   .     S
C540   C578    1.382   .     S
N545   Zn559   2.033   .     S
N546   Zn560   2.033   .     S
O551   Zn559   2.013   .     S
O552   Zn560   2.013   .     S
O553   Zn559   2.013   .     S
O554   Zn560   2.013   .     S
O555   Zn559   1.946   .     S
O556   Zn560   1.946   .     S
O557   Zn559   1.946   .     S
O558   Zn560   1.946   .     S
C561   C564    1.450   .     S
C561   O594    1.299   .     A
C561   O591    1.299   .     A
C562   C564    1.411   .     A
C562   C573    1.454   .     S
C563   C579    1.411   .     A
C563   C580    1.411   .     A
C563   C572    1.450   .     S
C564   C578    1.411   .     A
C565   N586    1.376   .     A
C565   I581    2.140   .     S
C566   N585    1.376   .     A
C566   I582    2.140   .     S
C566   C687    1.428   .     S
C567   N586    1.376   .     A
C567   I583    2.140   .     S
C568   N585    1.376   .     A
C568   I584    2.140   .     S
C568   C685    1.428   .     S
C569   C578    1.454   .     S
C569   N587    1.157   .     T
C570   C579    1.454   .     S
C570   N588    1.157   .     T
C571   N589    1.157   .     T
C571   C580    1.454   .     S
C572   O592    1.299   .     A
C572   O593    1.299   .     A
C573   N590    1.157   .     T
C574   O598    1.285   .     A
C574   C576    1.364   .     S
C574   O595    1.285   .     A
C575   O596    1.285   .     A
C575   C577    1.364   .     S
C575   O597    1.285   .     A
C577   C936    1.164   .     S
C579   C482    1.382   1_655 S
C580   C498    1.382   1_655 S
N585   Zn599   2.033   .     S
N586   Zn600   2.033   .     S
O591   Zn599   2.013   .     S
O592   Zn600   2.013   .     S
O593   Zn599   2.013   .     S
O594   Zn600   2.013   .     S
O595   Zn599   1.946   .     S
O596   Zn600   1.946   .     S
O597   Zn599   1.946   .     S
O598   Zn600   1.946   .     S
C601   C604    1.450   .     S
C601   O634    1.299   .     A
C601   O631    1.299   .     A
C602   C604    1.411   .     A
C602   C613    1.454   .     S
C602   C699    1.382   1_455 S
C603   C619    1.411   .     A
C603   C620    1.411   .     A
C603   C612    1.450   .     S
C604   C618    1.411   .     A
C605   N626    1.376   .     A
C605   I621    2.140   .     S
C606   N625    1.376   .     A
C606   I622    2.140   .     S
C606   C367    1.428   1_565 S
C607   N626    1.376   .     A
C607   I623    2.140   .     S
C608   N625    1.376   .     A
C608   I624    2.140   .     S
C608   C365    1.428   1_565 S
C609   C618    1.454   .     S
C609   N627    1.157   .     T
C610   C619    1.454   .     S
C610   N628    1.157   .     T
C611   N629    1.157   .     T
C611   C620    1.454   .     S
C612   O632    1.299   .     A
C612   O633    1.299   .     A
C613   N630    1.157   .     T
C614   O638    1.285   .     A
C614   C616    1.364   .     S
C614   O635    1.285   .     A
C615   O636    1.285   .     A
C615   C617    1.364   .     S
C615   O637    1.285   .     A
C617   C976    1.164   .     S
C618   C700    1.382   1_455 S
C619   C642    1.382   .     S
C620   C658    1.382   .     S
N625   Zn639   2.033   .     S
N626   Zn640   2.033   .     S
O631   Zn639   2.013   .     S
O632   Zn640   2.013   .     S
O633   Zn639   2.013   .     S
O634   Zn640   2.013   .     S
O635   Zn639   1.946   .     S
O636   Zn640   1.946   .     S
O637   Zn639   1.946   .     S
O638   Zn640   1.946   .     S
C641   C644    1.450   .     S
C641   O674    1.299   .     A
C641   O671    1.299   .     A
C642   C644    1.411   .     A
C642   C653    1.454   .     S
C643   C659    1.411   .     A
C643   C660    1.411   .     A
C643   C652    1.450   .     S
C644   C658    1.411   .     A
C645   N666    1.376   .     A
C645   I661    2.140   .     S
C646   N665    1.376   .     A
C646   I662    2.140   .     S
C646   C407    1.428   1_565 S
C647   N666    1.376   .     A
C647   I663    2.140   .     S
C648   N665    1.376   .     A
C648   I664    2.140   .     S
C648   C405    1.428   1_565 S
C649   C658    1.454   .     S
C649   N667    1.157   .     T
C650   C659    1.454   .     S
C650   N668    1.157   .     T
C651   N669    1.157   .     T
C651   C660    1.454   .     S
C652   O672    1.299   .     A
C652   O673    1.299   .     A
C653   N670    1.157   .     T
C654   O678    1.285   .     A
C654   C656    1.364   .     S
C654   O675    1.285   .     A
C655   O676    1.285   .     A
C655   C657    1.364   .     S
C655   O677    1.285   .     A
C657   C1016   1.164   .     S
C659   C682    1.382   .     S
C660   C698    1.382   .     S
N665   Zn679   2.033   .     S
N666   Zn680   2.033   .     S
O671   Zn679   2.013   .     S
O672   Zn680   2.013   .     S
O673   Zn679   2.013   .     S
O674   Zn680   2.013   .     S
O675   Zn679   1.946   .     S
O676   Zn680   1.946   .     S
O677   Zn679   1.946   .     S
O678   Zn680   1.946   .     S
C681   C684    1.450   .     S
C681   O714    1.299   .     A
C681   O711    1.299   .     A
C682   C684    1.411   .     A
C682   C693    1.454   .     S
C683   C699    1.411   .     A
C683   C700    1.411   .     A
C683   C692    1.450   .     S
C684   C698    1.411   .     A
C685   N706    1.376   .     A
C685   I701    2.140   .     S
C686   N705    1.376   .     A
C686   I702    2.140   .     S
C686   C447    1.428   1_565 S
C687   N706    1.376   .     A
C687   I703    2.140   .     S
C688   N705    1.376   .     A
C688   I704    2.140   .     S
C688   C445    1.428   1_565 S
C689   C698    1.454   .     S
C689   N707    1.157   .     T
C690   C699    1.454   .     S
C690   N708    1.157   .     T
C691   N709    1.157   .     T
C691   C700    1.454   .     S
C692   O712    1.299   .     A
C692   O713    1.299   .     A
C693   N710    1.157   .     T
C694   O718    1.285   .     A
C694   C696    1.364   .     S
C694   O715    1.285   .     A
C695   O716    1.285   .     A
C695   C697    1.364   .     S
C695   O717    1.285   .     A
C697   C1056   1.164   .     S
C699   C602    1.382   1_655 S
C700   C618    1.382   1_655 S
N705   Zn719   2.033   .     S
N706   Zn720   2.033   .     S
O711   Zn719   2.013   .     S
O712   Zn720   2.013   .     S
O713   Zn719   2.013   .     S
O714   Zn720   2.013   .     S
O715   Zn719   1.946   .     S
O716   Zn720   1.946   .     S
O717   Zn719   1.946   .     S
O718   Zn720   1.946   .     S
C721   C724    1.450   .     S
C721   O754    1.299   .     A
C721   O751    1.299   .     A
C722   C724    1.411   .     A
C722   C733    1.454   .     S
C722   C819    1.382   1_455 S
C723   C739    1.411   .     A
C723   C740    1.411   .     A
C723   C732    1.450   .     S
C724   C738    1.411   .     A
C725   N746    1.376   .     A
C725   I741    2.140   .     S
C725   C968    1.428   1_545 S
C726   N745    1.376   .     A
C726   I742    2.140   .     S
C726   C847    1.428   .     S
C727   N746    1.376   .     A
C727   I743    2.140   .     S
C727   C966    1.428   1_545 S
C728   N745    1.376   .     A
C728   I744    2.140   .     S
C728   C845    1.428   .     S
C729   C738    1.454   .     S
C729   N747    1.157   .     T
C730   C739    1.454   .     S
C730   N748    1.157   .     T
C731   N749    1.157   .     T
C731   C740    1.454   .     S
C732   O752    1.299   .     A
C732   O753    1.299   .     A
C733   N750    1.157   .     T
C734   O758    1.285   .     A
C734   C736    1.364   .     S
C734   O755    1.285   .     A
C735   O756    1.285   .     A
C735   C737    1.364   .     S
C735   O757    1.285   .     A
C737   C16     1.164   1_556 S
C738   C820    1.382   1_455 S
C739   C762    1.382   .     S
C740   C778    1.382   .     S
N745   Zn759   2.033   .     S
N746   Zn760   2.033   .     S
O751   Zn759   2.013   .     S
O752   Zn760   2.013   .     S
O753   Zn759   2.013   .     S
O754   Zn760   2.013   .     S
O755   Zn759   1.946   .     S
O756   Zn760   1.946   .     S
O757   Zn759   1.946   .     S
O758   Zn760   1.946   .     S
C761   C764    1.450   .     S
C761   O794    1.299   .     A
C761   O791    1.299   .     A
C762   C764    1.411   .     A
C762   C773    1.454   .     S
C763   C779    1.411   .     A
C763   C780    1.411   .     A
C763   C772    1.450   .     S
C764   C778    1.411   .     A
C765   N786    1.376   .     A
C765   I781    2.140   .     S
C765   C1008   1.428   1_545 S
C766   N785    1.376   .     A
C766   I782    2.140   .     S
C766   C887    1.428   .     S
C767   N786    1.376   .     A
C767   I783    2.140   .     S
C767   C1006   1.428   1_545 S
C768   N785    1.376   .     A
C768   I784    2.140   .     S
C768   C885    1.428   .     S
C769   C778    1.454   .     S
C769   N787    1.157   .     T
C770   C779    1.454   .     S
C770   N788    1.157   .     T
C771   N789    1.157   .     T
C771   C780    1.454   .     S
C772   O792    1.299   .     A
C772   O793    1.299   .     A
C773   N790    1.157   .     T
C774   O798    1.285   .     A
C774   C776    1.364   .     S
C774   O795    1.285   .     A
C775   O796    1.285   .     A
C775   C777    1.364   .     S
C775   O797    1.285   .     A
C777   C56     1.164   1_556 S
C779   C802    1.382   .     S
C780   C818    1.382   .     S
N785   Zn799   2.033   .     S
N786   Zn800   2.033   .     S
O791   Zn799   2.013   .     S
O792   Zn800   2.013   .     S
O793   Zn799   2.013   .     S
O794   Zn800   2.013   .     S
O795   Zn799   1.946   .     S
O796   Zn800   1.946   .     S
O797   Zn799   1.946   .     S
O798   Zn800   1.946   .     S
C801   C804    1.450   .     S
C801   O834    1.299   .     A
C801   O831    1.299   .     A
C802   C804    1.411   .     A
C802   C813    1.454   .     S
C803   C819    1.411   .     A
C803   C820    1.411   .     A
C803   C812    1.450   .     S
C804   C818    1.411   .     A
C805   N826    1.376   .     A
C805   I821    2.140   .     S
C805   C1048   1.428   1_545 S
C806   N825    1.376   .     A
C806   I822    2.140   .     S
C806   C927    1.428   .     S
C807   N826    1.376   .     A
C807   I823    2.140   .     S
C807   C1046   1.428   1_545 S
C808   N825    1.376   .     A
C808   I824    2.140   .     S
C808   C925    1.428   .     S
C809   C818    1.454   .     S
C809   N827    1.157   .     T
C810   C819    1.454   .     S
C810   N828    1.157   .     T
C811   N829    1.157   .     T
C811   C820    1.454   .     S
C812   O832    1.299   .     A
C812   O833    1.299   .     A
C813   N830    1.157   .     T
C814   O838    1.285   .     A
C814   C816    1.364   .     S
C814   O835    1.285   .     A
C815   O836    1.285   .     A
C815   C817    1.364   .     S
C815   O837    1.285   .     A
C817   C96     1.164   1_556 S
C819   C722    1.382   1_655 S
C820   C738    1.382   1_655 S
N825   Zn839   2.033   .     S
N826   Zn840   2.033   .     S
O831   Zn839   2.013   .     S
O832   Zn840   2.013   .     S
O833   Zn839   2.013   .     S
O834   Zn840   2.013   .     S
O835   Zn839   1.946   .     S
O836   Zn840   1.946   .     S
O837   Zn839   1.946   .     S
O838   Zn840   1.946   .     S
C841   C844    1.450   .     S
C841   O874    1.299   .     A
C841   O871    1.299   .     A
C842   C844    1.411   .     A
C842   C853    1.454   .     S
C842   C939    1.382   1_455 S
C843   C859    1.411   .     A
C843   C860    1.411   .     A
C843   C852    1.450   .     S
C844   C858    1.411   .     A
C845   N866    1.376   .     A
C845   I861    2.140   .     S
C846   N865    1.376   .     A
C846   I862    2.140   .     S
C846   C967    1.428   .     S
C847   N866    1.376   .     A
C847   I863    2.140   .     S
C848   N865    1.376   .     A
C848   I864    2.140   .     S
C848   C965    1.428   .     S
C849   C858    1.454   .     S
C849   N867    1.157   .     T
C850   C859    1.454   .     S
C850   N868    1.157   .     T
C851   N869    1.157   .     T
C851   C860    1.454   .     S
C852   O872    1.299   .     A
C852   O873    1.299   .     A
C853   N870    1.157   .     T
C854   O878    1.285   .     A
C854   C856    1.364   .     S
C854   O875    1.285   .     A
C855   O876    1.285   .     A
C855   C857    1.364   .     S
C855   O877    1.285   .     A
C857   C136    1.164   1_556 S
C858   C940    1.382   1_455 S
C859   C882    1.382   .     S
C860   C898    1.382   .     S
N865   Zn879   2.033   .     S
N866   Zn880   2.033   .     S
O871   Zn879   2.013   .     S
O872   Zn880   2.013   .     S
O873   Zn879   2.013   .     S
O874   Zn880   2.013   .     S
O875   Zn879   1.946   .     S
O876   Zn880   1.946   .     S
O877   Zn879   1.946   .     S
O878   Zn880   1.946   .     S
C881   C884    1.450   .     S
C881   O914    1.299   .     A
C881   O911    1.299   .     A
C882   C884    1.411   .     A
C882   C893    1.454   .     S
C883   C899    1.411   .     A
C883   C900    1.411   .     A
C883   C892    1.450   .     S
C884   C898    1.411   .     A
C885   N906    1.376   .     A
C885   I901    2.140   .     S
C886   N905    1.376   .     A
C886   I902    2.140   .     S
C886   C1007   1.428   .     S
C887   N906    1.376   .     A
C887   I903    2.140   .     S
C888   N905    1.376   .     A
C888   I904    2.140   .     S
C888   C1005   1.428   .     S
C889   C898    1.454   .     S
C889   N907    1.157   .     T
C890   C899    1.454   .     S
C890   N908    1.157   .     T
C891   N909    1.157   .     T
C891   C900    1.454   .     S
C892   O912    1.299   .     A
C892   O913    1.299   .     A
C893   N910    1.157   .     T
C894   O918    1.285   .     A
C894   C896    1.364   .     S
C894   O915    1.285   .     A
C895   O916    1.285   .     A
C895   C897    1.364   .     S
C895   O917    1.285   .     A
C897   C176    1.164   1_556 S
C899   C922    1.382   .     S
C900   C938    1.382   .     S
N905   Zn919   2.033   .     S
N906   Zn920   2.033   .     S
O911   Zn919   2.013   .     S
O912   Zn920   2.013   .     S
O913   Zn919   2.013   .     S
O914   Zn920   2.013   .     S
O915   Zn919   1.946   .     S
O916   Zn920   1.946   .     S
O917   Zn919   1.946   .     S
O918   Zn920   1.946   .     S
C921   C924    1.450   .     S
C921   O954    1.299   .     A
C921   O951    1.299   .     A
C922   C924    1.411   .     A
C922   C933    1.454   .     S
C923   C939    1.411   .     A
C923   C940    1.411   .     A
C923   C932    1.450   .     S
C924   C938    1.411   .     A
C925   N946    1.376   .     A
C925   I941    2.140   .     S
C926   N945    1.376   .     A
C926   I942    2.140   .     S
C926   C1047   1.428   .     S
C927   N946    1.376   .     A
C927   I943    2.140   .     S
C928   N945    1.376   .     A
C928   I944    2.140   .     S
C928   C1045   1.428   .     S
C929   C938    1.454   .     S
C929   N947    1.157   .     T
C930   C939    1.454   .     S
C930   N948    1.157   .     T
C931   N949    1.157   .     T
C931   C940    1.454   .     S
C932   O952    1.299   .     A
C932   O953    1.299   .     A
C933   N950    1.157   .     T
C934   O958    1.285   .     A
C934   C936    1.364   .     S
C934   O955    1.285   .     A
C935   O956    1.285   .     A
C935   C937    1.364   .     S
C935   O957    1.285   .     A
C937   C216    1.164   1_556 S
C939   C842    1.382   1_655 S
C940   C858    1.382   1_655 S
N945   Zn959   2.033   .     S
N946   Zn960   2.033   .     S
O951   Zn959   2.013   .     S
O952   Zn960   2.013   .     S
O953   Zn959   2.013   .     S
O954   Zn960   2.013   .     S
O955   Zn959   1.946   .     S
O956   Zn960   1.946   .     S
O957   Zn959   1.946   .     S
O958   Zn960   1.946   .     S
C961   C964    1.450   .     S
C961   O994    1.299   .     A
C961   O991    1.299   .     A
C962   C964    1.411   .     A
C962   C973    1.454   .     S
C962   C1059   1.382   1_455 S
C963   C979    1.411   .     A
C963   C980    1.411   .     A
C963   C972    1.450   .     S
C964   C978    1.411   .     A
C965   N986    1.376   .     A
C965   I981    2.140   .     S
C966   N985    1.376   .     A
C966   I982    2.140   .     S
C966   C727    1.428   1_565 S
C967   N986    1.376   .     A
C967   I983    2.140   .     S
C968   N985    1.376   .     A
C968   I984    2.140   .     S
C968   C725    1.428   1_565 S
C969   C978    1.454   .     S
C969   N987    1.157   .     T
C970   C979    1.454   .     S
C970   N988    1.157   .     T
C971   N989    1.157   .     T
C971   C980    1.454   .     S
C972   O992    1.299   .     A
C972   O993    1.299   .     A
C973   N990    1.157   .     T
C974   O998    1.285   .     A
C974   C976    1.364   .     S
C974   O995    1.285   .     A
C975   O996    1.285   .     A
C975   C977    1.364   .     S
C975   O997    1.285   .     A
C977   C256    1.164   1_556 S
C978   C1060   1.382   1_455 S
C979   C1002   1.382   .     S
C980   C1018   1.382   .     S
N985   Zn999   2.033   .     S
N986   Zn1000  2.033   .     S
O991   Zn999   2.013   .     S
O992   Zn1000  2.013   .     S
O993   Zn999   2.013   .     S
O994   Zn1000  2.013   .     S
O995   Zn999   1.946   .     S
O996   Zn1000  1.946   .     S
O997   Zn999   1.946   .     S
O998   Zn1000  1.946   .     S
C1001  C1004   1.450   .     S
C1001  O1034   1.299   .     A
C1001  O1031   1.299   .     A
C1002  C1004   1.411   .     A
C1002  C1013   1.454   .     S
C1003  C1019   1.411   .     A
C1003  C1020   1.411   .     A
C1003  C1012   1.450   .     S
C1004  C1018   1.411   .     A
C1005  N1026   1.376   .     A
C1005  I1021   2.140   .     S
C1006  N1025   1.376   .     A
C1006  I1022   2.140   .     S
C1006  C767    1.428   1_565 S
C1007  N1026   1.376   .     A
C1007  I1023   2.140   .     S
C1008  N1025   1.376   .     A
C1008  I1024   2.140   .     S
C1008  C765    1.428   1_565 S
C1009  C1018   1.454   .     S
C1009  N1027   1.157   .     T
C1010  C1019   1.454   .     S
C1010  N1028   1.157   .     T
C1011  N1029   1.157   .     T
C1011  C1020   1.454   .     S
C1012  O1032   1.299   .     A
C1012  O1033   1.299   .     A
C1013  N1030   1.157   .     T
C1014  O1038   1.285   .     A
C1014  C1016   1.364   .     S
C1014  O1035   1.285   .     A
C1015  O1036   1.285   .     A
C1015  C1017   1.364   .     S
C1015  O1037   1.285   .     A
C1017  C296    1.164   1_556 S
C1019  C1042   1.382   .     S
C1020  C1058   1.382   .     S
N1025  Zn1039  2.033   .     S
N1026  Zn1040  2.033   .     S
O1031  Zn1039  2.013   .     S
O1032  Zn1040  2.013   .     S
O1033  Zn1039  2.013   .     S
O1034  Zn1040  2.013   .     S
O1035  Zn1039  1.946   .     S
O1036  Zn1040  1.946   .     S
O1037  Zn1039  1.946   .     S
O1038  Zn1040  1.946   .     S
C1041  C1044   1.450   .     S
C1041  O1074   1.299   .     A
C1041  O1071   1.299   .     A
C1042  C1044   1.411   .     A
C1042  C1053   1.454   .     S
C1043  C1059   1.411   .     A
C1043  C1060   1.411   .     A
C1043  C1052   1.450   .     S
C1044  C1058   1.411   .     A
C1045  N1066   1.376   .     A
C1045  I1061   2.140   .     S
C1046  N1065   1.376   .     A
C1046  I1062   2.140   .     S
C1046  C807    1.428   1_565 S
C1047  N1066   1.376   .     A
C1047  I1063   2.140   .     S
C1048  N1065   1.376   .     A
C1048  I1064   2.140   .     S
C1048  C805    1.428   1_565 S
C1049  C1058   1.454   .     S
C1049  N1067   1.157   .     T
C1050  C1059   1.454   .     S
C1050  N1068   1.157   .     T
C1051  N1069   1.157   .     T
C1051  C1060   1.454   .     S
C1052  O1072   1.299   .     A
C1052  O1073   1.299   .     A
C1053  N1070   1.157   .     T
C1054  O1078   1.285   .     A
C1054  C1056   1.364   .     S
C1054  O1075   1.285   .     A
C1055  O1076   1.285   .     A
C1055  C1057   1.364   .     S
C1055  O1077   1.285   .     A
C1057  C336    1.164   1_556 S
C1059  C962    1.382   1_655 S
C1060  C978    1.382   1_655 S
N1065  Zn1079  2.033   .     S
N1066  Zn1080  2.033   .     S
O1071  Zn1079  2.013   .     S
O1072  Zn1080  2.013   .     S
O1073  Zn1079  2.013   .     S
O1074  Zn1080  2.013   .     S
O1075  Zn1079  1.946   .     S
O1076  Zn1080  1.946   .     S
O1077  Zn1079  1.946   .     S
O1078  Zn1080  1.946   .     S
