data_str_m2_o1_o18_pcu_sym.151
_audit_creation_date              2020-01-03
_audit_creation_method            'Materials Studio'
_symmetry_space_group_name_H-M    'P1'
_symmetry_Int_Tables_number       1
_symmetry_cell_setting            triclinic
loop_
_symmetry_equiv_pos_as_xyz
  x,y,z
_cell_length_a                    28.5259
_cell_length_b                    32.4800
_cell_length_c                    31.5722
_cell_angle_alpha                 89.7183
_cell_angle_beta                  73.3959
_cell_angle_gamma                 90.0524
loop_
_atom_site_label
_atom_site_type_symbol
_atom_site_fract_x
_atom_site_fract_y
_atom_site_fract_z
_atom_site_U_iso_or_equiv
_atom_site_adp_type
_atom_site_occupancy
C1     C     0.33330   0.08735   0.25004   0.00000  Uiso   1.00
C2     C     0.00003   0.24598   0.24998   0.00000  Uiso   1.00
C3     C     0.19088   0.14343   0.04373   0.00000  Uiso   1.00
C4     C     0.14179   0.18615   0.45565   0.00000  Uiso   1.00
C5     C     0.23967   0.13683   0.02108   0.00000  Uiso   1.00
C6     C     0.09291   0.19240   0.47833   0.00000  Uiso   1.00
C7     C     0.29058   0.02125   0.25042   0.00000  Uiso   1.00
C8     C     0.04272   0.31209   0.24968   0.00000  Uiso   1.00
C9     C     0.29062   0.31200   0.25037   0.00000  Uiso   1.00
C10    C     0.04268   0.02133   0.24973   0.00000  Uiso   1.00
C11    C     0.00002   0.29059   0.25000   0.00000  Uiso   1.00
C12    C     0.33329   0.04274   0.25008   0.00000  Uiso   1.00
C13    C     0.18643   0.13352   0.26565   0.00000  Uiso   1.00
C14    C     0.14693   0.19977   0.23423   0.00000  Uiso   1.00
C15    C     0.13680   0.13364   0.26593   0.00000  Uiso   1.00
C16    C     0.19655   0.19969   0.23404   0.00000  Uiso   1.00
C17    C     0.30548   0.16373   0.33569   0.00000  Uiso   1.00
C18    C     0.02786   0.16933   0.16428   0.00000  Uiso   1.00
C19    C     0.28878   0.15670   0.38390   0.00000  Uiso   1.00
C20    C     0.04456   0.17526   0.11593   0.00000  Uiso   1.00
C21    C     0.30686   0.13959   0.45282   0.00000  Uiso   1.00
C22    C     0.02622   0.18981   0.04689   0.00000  Uiso   1.00
C23    C     0.32282   0.15023   0.40762   0.00000  Uiso   1.00
C24    C     0.01041   0.18100   0.09218   0.00000  Uiso   1.00
C25    C     0.23843   0.15376   0.40633   0.00000  Uiso   1.00
C26    C     0.09497   0.17729   0.09318   0.00000  Uiso   1.00
C27    C     0.22296   0.15631   0.45262   0.00000  Uiso   1.00
C28    C     0.11016   0.17402   0.04687   0.00000  Uiso   1.00
C29    C     0.25689   0.14485   0.47575   0.00000  Uiso   1.00
C30    C     0.07608   0.18490   0.02374   0.00000  Uiso   1.00
C31    C     0.17434   0.16771   0.47651   0.00000  Uiso   1.00
C32    C     0.15860   0.16227   0.02290   0.00000  Uiso   1.00
Cu33   Cu    0.04689   0.16667   0.25000   0.00000  Uiso   1.00
Cu34   Cu    0.28645   0.16666   0.25000   0.00000  Uiso   1.00
H35    H     0.26367   0.12474   0.03923   0.00000  Uiso   1.00
H36    H     0.06856   0.20394   0.46025   0.00000  Uiso   1.00
H37    H     0.30490   0.18121   0.10902   0.00000  Uiso   1.00
H38    H     0.02817   0.15119   0.39045   0.00000  Uiso   1.00
H39    H     0.17896   0.13351   0.07784   0.00000  Uiso   1.00
H40    H     0.15347   0.19595   0.42151   0.00000  Uiso   1.00
H41    H     0.25718   0.03723   0.25072   0.00000  Uiso   1.00
H42    H     0.07612   0.29611   0.24939   0.00000  Uiso   1.00
H43    H     0.25723   0.29595   0.25064   0.00000  Uiso   1.00
H44    H     0.07607   0.03738   0.24946   0.00000  Uiso   1.00
H45    H     0.20089   0.10691   0.27828   0.00000  Uiso   1.00
H46    H     0.13253   0.22630   0.22142   0.00000  Uiso   1.00
H47    H     0.11411   0.10724   0.27908   0.00000  Uiso   1.00
H48    H     0.21924   0.22607   0.22086   0.00000  Uiso   1.00
N49    N     0.11736   0.16668   0.24999   0.00000  Uiso   1.00
N50    N     0.21597   0.16666   0.25001   0.00000  Uiso   1.00
O51    O     0.03958   0.10655   0.25000   0.00000  Uiso   1.00
O52    O     0.29375   0.22678   0.25000   0.00000  Uiso   1.00
O53    O     0.29372   0.10654   0.25001   0.00000  Uiso   1.00
O54    O     0.03961   0.22679   0.24999   0.00000  Uiso   1.00
O55    O     0.01852   0.16668   0.31491   0.00000  Uiso   1.00
O56    O     0.31481   0.16666   0.18509   0.00000  Uiso   1.00
O57    O     0.27267   0.16667   0.31492   0.00000  Uiso   1.00
O58    O     0.06067   0.16667   0.18508   0.00000  Uiso   1.00
C59    C     0.12966   0.19289   0.11512   0.00000  Uiso   1.00
N60    N     0.15765   0.20557   0.13207   0.00000  Uiso   1.00
C61    C     0.20436   0.13771   0.38396   0.00000  Uiso   1.00
N62    N     0.17688   0.12467   0.36667   0.00000  Uiso   1.00
O63    O     0.00580   0.12772   0.47640   0.00000  Uiso   1.00
C64    C     0.04190   0.10013   0.45244   0.00000  Uiso   1.00
H65    H     0.07230   0.11773   0.42959   0.00000  Uiso   1.00
H66    H     0.02659   0.07754   0.43337   0.00000  Uiso   1.00
C67    C     0.06240   0.07625   0.48500   0.00000  Uiso   1.00
H68    H     0.07629   0.09815   0.00553   0.00000  Uiso   1.00
H69    H     0.03270   0.05756   0.00730   0.00000  Uiso   1.00
C70    C     0.10404   0.04788   0.46106   0.00000  Uiso   1.00
H71    H     0.09108   0.02544   0.44043   0.00000  Uiso   1.00
H72    H     0.11752   0.03064   0.48569   0.00000  Uiso   1.00
H73    H     0.13483   0.06616   0.43975   0.00000  Uiso   1.00
O74    O     0.32561   0.19914   0.02464   0.00000  Uiso   1.00
C75    C     0.31170   0.24073   0.03220   0.00000  Uiso   1.00
H76    H     0.01088   0.26129   0.02032   0.00000  Uiso   1.00
H77    H     0.29398   0.24629   0.06802   0.00000  Uiso   1.00
C78    C     0.27498   0.25106   0.00671   0.00000  Uiso   1.00
H79    H     0.29147   0.24428   0.47106   0.00000  Uiso   1.00
H80    H     0.24181   0.23155   0.01919   0.00000  Uiso   1.00
C81    C     0.26008   0.29628   0.01186   0.00000  Uiso   1.00
H82    H     0.24285   0.30357   0.04723   0.00000  Uiso   1.00
H83    H     0.23325   0.30264   0.49319   0.00000  Uiso   1.00
H84    H     0.29253   0.31643   0.49866   0.00000  Uiso   1.00
C85    C     0.66663   0.08735   0.25004   0.00000  Uiso   1.00
C86    C     0.33336   0.24598   0.24998   0.00000  Uiso   1.00
C87    C     0.52421   0.14343   0.04373   0.00000  Uiso   1.00
C88    C     0.47513   0.18615   0.45565   0.00000  Uiso   1.00
C89    C     0.57301   0.13683   0.02108   0.00000  Uiso   1.00
C90    C     0.42625   0.19240   0.47833   0.00000  Uiso   1.00
C91    C     0.62392   0.02125   0.25042   0.00000  Uiso   1.00
C92    C     0.37605   0.31209   0.24968   0.00000  Uiso   1.00
C93    C     0.62395   0.31200   0.25037   0.00000  Uiso   1.00
C94    C     0.37601   0.02133   0.24973   0.00000  Uiso   1.00
C95    C     0.33335   0.29059   0.25000   0.00000  Uiso   1.00
C96    C     0.66662   0.04274   0.25008   0.00000  Uiso   1.00
C97    C     0.51976   0.13352   0.26565   0.00000  Uiso   1.00
C98    C     0.48027   0.19977   0.23423   0.00000  Uiso   1.00
C99    C     0.47013   0.13364   0.26593   0.00000  Uiso   1.00
C100   C     0.52988   0.19969   0.23404   0.00000  Uiso   1.00
C101   C     0.63882   0.16373   0.33569   0.00000  Uiso   1.00
C102   C     0.36120   0.16933   0.16428   0.00000  Uiso   1.00
C103   C     0.62211   0.15670   0.38390   0.00000  Uiso   1.00
C104   C     0.37789   0.17526   0.11593   0.00000  Uiso   1.00
C105   C     0.64019   0.13959   0.45282   0.00000  Uiso   1.00
C106   C     0.35955   0.18981   0.04689   0.00000  Uiso   1.00
C107   C     0.65616   0.15023   0.40762   0.00000  Uiso   1.00
C108   C     0.34374   0.18100   0.09218   0.00000  Uiso   1.00
C109   C     0.57176   0.15376   0.40633   0.00000  Uiso   1.00
C110   C     0.42830   0.17729   0.09318   0.00000  Uiso   1.00
C111   C     0.55630   0.15631   0.45262   0.00000  Uiso   1.00
C112   C     0.44349   0.17402   0.04687   0.00000  Uiso   1.00
C113   C     0.59023   0.14485   0.47575   0.00000  Uiso   1.00
C114   C     0.40941   0.18490   0.02374   0.00000  Uiso   1.00
C115   C     0.50768   0.16771   0.47651   0.00000  Uiso   1.00
C116   C     0.49193   0.16227   0.02290   0.00000  Uiso   1.00
Cu117  Cu    0.38022   0.16667   0.25000   0.00000  Uiso   1.00
Cu118  Cu    0.61978   0.16666   0.25000   0.00000  Uiso   1.00
H119   H     0.59700   0.12474   0.03923   0.00000  Uiso   1.00
H120   H     0.40189   0.20394   0.46025   0.00000  Uiso   1.00
H121   H     0.63823   0.18121   0.10902   0.00000  Uiso   1.00
H122   H     0.36150   0.15119   0.39045   0.00000  Uiso   1.00
H123   H     0.51229   0.13351   0.07784   0.00000  Uiso   1.00
H124   H     0.48681   0.19595   0.42151   0.00000  Uiso   1.00
H125   H     0.59051   0.03723   0.25072   0.00000  Uiso   1.00
H126   H     0.40945   0.29611   0.24939   0.00000  Uiso   1.00
H127   H     0.59057   0.29595   0.25064   0.00000  Uiso   1.00
H128   H     0.40940   0.03738   0.24946   0.00000  Uiso   1.00
H129   H     0.53422   0.10691   0.27828   0.00000  Uiso   1.00
H130   H     0.46586   0.22630   0.22142   0.00000  Uiso   1.00
H131   H     0.44744   0.10724   0.27908   0.00000  Uiso   1.00
H132   H     0.55258   0.22607   0.22086   0.00000  Uiso   1.00
N133   N     0.45069   0.16668   0.24999   0.00000  Uiso   1.00
N134   N     0.54931   0.16666   0.25001   0.00000  Uiso   1.00
O135   O     0.37291   0.10655   0.25000   0.00000  Uiso   1.00
O136   O     0.62709   0.22678   0.25000   0.00000  Uiso   1.00
O137   O     0.62706   0.10654   0.25001   0.00000  Uiso   1.00
O138   O     0.37294   0.22679   0.24999   0.00000  Uiso   1.00
O139   O     0.35186   0.16668   0.31491   0.00000  Uiso   1.00
O140   O     0.64814   0.16666   0.18509   0.00000  Uiso   1.00
O141   O     0.60600   0.16667   0.31492   0.00000  Uiso   1.00
O142   O     0.39400   0.16667   0.18508   0.00000  Uiso   1.00
C143   C     0.46300   0.19289   0.11512   0.00000  Uiso   1.00
N144   N     0.49098   0.20557   0.13207   0.00000  Uiso   1.00
C145   C     0.53770   0.13771   0.38396   0.00000  Uiso   1.00
N146   N     0.51021   0.12467   0.36667   0.00000  Uiso   1.00
O147   O     0.33913   0.12772   0.47640   0.00000  Uiso   1.00
C148   C     0.37524   0.10013   0.45244   0.00000  Uiso   1.00
H149   H     0.40563   0.11773   0.42959   0.00000  Uiso   1.00
H150   H     0.35992   0.07754   0.43337   0.00000  Uiso   1.00
C151   C     0.39573   0.07625   0.48500   0.00000  Uiso   1.00
H152   H     0.40962   0.09815   0.00553   0.00000  Uiso   1.00
H153   H     0.36604   0.05756   0.00730   0.00000  Uiso   1.00
C154   C     0.43738   0.04788   0.46106   0.00000  Uiso   1.00
H155   H     0.42442   0.02544   0.44043   0.00000  Uiso   1.00
H156   H     0.45085   0.03064   0.48569   0.00000  Uiso   1.00
H157   H     0.46816   0.06616   0.43975   0.00000  Uiso   1.00
O158   O     0.65894   0.19914   0.02464   0.00000  Uiso   1.00
C159   C     0.64503   0.24073   0.03220   0.00000  Uiso   1.00
H160   H     0.34421   0.26129   0.02032   0.00000  Uiso   1.00
H161   H     0.62732   0.24629   0.06802   0.00000  Uiso   1.00
C162   C     0.60832   0.25106   0.00671   0.00000  Uiso   1.00
H163   H     0.62481   0.24428   0.47106   0.00000  Uiso   1.00
H164   H     0.57514   0.23155   0.01919   0.00000  Uiso   1.00
C165   C     0.59341   0.29628   0.01186   0.00000  Uiso   1.00
H166   H     0.57619   0.30357   0.04723   0.00000  Uiso   1.00
H167   H     0.56658   0.30264   0.49319   0.00000  Uiso   1.00
H168   H     0.62586   0.31643   0.49866   0.00000  Uiso   1.00
C169   C     0.99996   0.08735   0.25004   0.00000  Uiso   1.00
C170   C     0.66670   0.24598   0.24998   0.00000  Uiso   1.00
C171   C     0.85754   0.14343   0.04373   0.00000  Uiso   1.00
C172   C     0.80846   0.18615   0.45565   0.00000  Uiso   1.00
C173   C     0.90634   0.13683   0.02108   0.00000  Uiso   1.00
C174   C     0.75958   0.19240   0.47833   0.00000  Uiso   1.00
C175   C     0.95725   0.02125   0.25042   0.00000  Uiso   1.00
C176   C     0.70938   0.31209   0.24968   0.00000  Uiso   1.00
C177   C     0.95729   0.31200   0.25037   0.00000  Uiso   1.00
C178   C     0.70935   0.02133   0.24973   0.00000  Uiso   1.00
C179   C     0.66669   0.29059   0.25000   0.00000  Uiso   1.00
C180   C     0.99995   0.04274   0.25008   0.00000  Uiso   1.00
C181   C     0.85310   0.13352   0.26565   0.00000  Uiso   1.00
C182   C     0.81360   0.19977   0.23423   0.00000  Uiso   1.00
C183   C     0.80346   0.13364   0.26593   0.00000  Uiso   1.00
C184   C     0.86321   0.19969   0.23404   0.00000  Uiso   1.00
C185   C     0.97215   0.16373   0.33569   0.00000  Uiso   1.00
C186   C     0.69453   0.16933   0.16428   0.00000  Uiso   1.00
C187   C     0.95544   0.15670   0.38390   0.00000  Uiso   1.00
C188   C     0.71122   0.17526   0.11593   0.00000  Uiso   1.00
C189   C     0.97353   0.13959   0.45282   0.00000  Uiso   1.00
C190   C     0.69288   0.18981   0.04689   0.00000  Uiso   1.00
C191   C     0.98949   0.15023   0.40762   0.00000  Uiso   1.00
C192   C     0.67707   0.18100   0.09218   0.00000  Uiso   1.00
C193   C     0.90509   0.15376   0.40633   0.00000  Uiso   1.00
C194   C     0.76163   0.17729   0.09318   0.00000  Uiso   1.00
C195   C     0.88963   0.15631   0.45262   0.00000  Uiso   1.00
C196   C     0.77683   0.17402   0.04687   0.00000  Uiso   1.00
C197   C     0.92356   0.14485   0.47575   0.00000  Uiso   1.00
C198   C     0.74274   0.18490   0.02374   0.00000  Uiso   1.00
C199   C     0.84101   0.16771   0.47651   0.00000  Uiso   1.00
C200   C     0.82526   0.16227   0.02290   0.00000  Uiso   1.00
Cu201  Cu    0.71355   0.16667   0.25000   0.00000  Uiso   1.00
Cu202  Cu    0.95311   0.16666   0.25000   0.00000  Uiso   1.00
H203   H     0.93034   0.12474   0.03923   0.00000  Uiso   1.00
H204   H     0.73523   0.20394   0.46025   0.00000  Uiso   1.00
H205   H     0.97156   0.18121   0.10902   0.00000  Uiso   1.00
H206   H     0.69483   0.15119   0.39045   0.00000  Uiso   1.00
H207   H     0.84563   0.13351   0.07784   0.00000  Uiso   1.00
H208   H     0.82014   0.19595   0.42151   0.00000  Uiso   1.00
H209   H     0.92385   0.03723   0.25072   0.00000  Uiso   1.00
H210   H     0.74279   0.29611   0.24939   0.00000  Uiso   1.00
H211   H     0.92390   0.29595   0.25064   0.00000  Uiso   1.00
H212   H     0.74274   0.03738   0.24946   0.00000  Uiso   1.00
H213   H     0.86756   0.10691   0.27828   0.00000  Uiso   1.00
H214   H     0.79919   0.22630   0.22142   0.00000  Uiso   1.00
H215   H     0.78078   0.10724   0.27908   0.00000  Uiso   1.00
H216   H     0.88591   0.22607   0.22086   0.00000  Uiso   1.00
N217   N     0.78403   0.16668   0.24999   0.00000  Uiso   1.00
N218   N     0.88264   0.16666   0.25001   0.00000  Uiso   1.00
O219   O     0.70625   0.10655   0.25000   0.00000  Uiso   1.00
O220   O     0.96042   0.22678   0.25000   0.00000  Uiso   1.00
O221   O     0.96039   0.10654   0.25001   0.00000  Uiso   1.00
O222   O     0.70628   0.22679   0.24999   0.00000  Uiso   1.00
O223   O     0.68519   0.16668   0.31491   0.00000  Uiso   1.00
O224   O     0.98148   0.16666   0.18509   0.00000  Uiso   1.00
O225   O     0.93933   0.16667   0.31492   0.00000  Uiso   1.00
O226   O     0.72733   0.16667   0.18508   0.00000  Uiso   1.00
C227   C     0.79633   0.19289   0.11512   0.00000  Uiso   1.00
N228   N     0.82432   0.20557   0.13207   0.00000  Uiso   1.00
C229   C     0.87103   0.13771   0.38396   0.00000  Uiso   1.00
N230   N     0.84354   0.12467   0.36667   0.00000  Uiso   1.00
O231   O     0.67246   0.12772   0.47640   0.00000  Uiso   1.00
C232   C     0.70857   0.10013   0.45244   0.00000  Uiso   1.00
H233   H     0.73896   0.11773   0.42959   0.00000  Uiso   1.00
H234   H     0.69325   0.07754   0.43337   0.00000  Uiso   1.00
C235   C     0.72907   0.07625   0.48500   0.00000  Uiso   1.00
H236   H     0.74295   0.09815   0.00553   0.00000  Uiso   1.00
H237   H     0.69937   0.05756   0.00730   0.00000  Uiso   1.00
C238   C     0.77071   0.04788   0.46106   0.00000  Uiso   1.00
H239   H     0.75775   0.02544   0.44043   0.00000  Uiso   1.00
H240   H     0.78419   0.03064   0.48569   0.00000  Uiso   1.00
H241   H     0.80149   0.06616   0.43975   0.00000  Uiso   1.00
O242   O     0.99228   0.19914   0.02464   0.00000  Uiso   1.00
C243   C     0.97836   0.24073   0.03220   0.00000  Uiso   1.00
H244   H     0.67754   0.26129   0.02032   0.00000  Uiso   1.00
H245   H     0.96065   0.24629   0.06802   0.00000  Uiso   1.00
C246   C     0.94165   0.25106   0.00671   0.00000  Uiso   1.00
H247   H     0.95814   0.24428   0.47106   0.00000  Uiso   1.00
H248   H     0.90847   0.23155   0.01919   0.00000  Uiso   1.00
C249   C     0.92675   0.29628   0.01186   0.00000  Uiso   1.00
H250   H     0.90952   0.30357   0.04723   0.00000  Uiso   1.00
H251   H     0.89991   0.30264   0.49319   0.00000  Uiso   1.00
H252   H     0.95920   0.31643   0.49866   0.00000  Uiso   1.00
C253   C     0.33330   0.42068   0.25004   0.00000  Uiso   1.00
C254   C     0.00003   0.57932   0.24998   0.00000  Uiso   1.00
C255   C     0.19088   0.47676   0.04373   0.00000  Uiso   1.00
C256   C     0.14179   0.51948   0.45565   0.00000  Uiso   1.00
C257   C     0.23967   0.47016   0.02108   0.00000  Uiso   1.00
C258   C     0.09291   0.52573   0.47833   0.00000  Uiso   1.00
C259   C     0.29058   0.35458   0.25042   0.00000  Uiso   1.00
C260   C     0.04272   0.64542   0.24968   0.00000  Uiso   1.00
C261   C     0.29062   0.64533   0.25037   0.00000  Uiso   1.00
C262   C     0.04268   0.35467   0.24973   0.00000  Uiso   1.00
C263   C     0.00002   0.62393   0.25000   0.00000  Uiso   1.00
C264   C     0.33329   0.37607   0.25008   0.00000  Uiso   1.00
C265   C     0.18643   0.46686   0.26565   0.00000  Uiso   1.00
C266   C     0.14693   0.53310   0.23423   0.00000  Uiso   1.00
C267   C     0.13680   0.46697   0.26593   0.00000  Uiso   1.00
C268   C     0.19655   0.53302   0.23404   0.00000  Uiso   1.00
C269   C     0.30548   0.49706   0.33569   0.00000  Uiso   1.00
C270   C     0.02786   0.50267   0.16428   0.00000  Uiso   1.00
C271   C     0.28878   0.49004   0.38390   0.00000  Uiso   1.00
C272   C     0.04456   0.50860   0.11593   0.00000  Uiso   1.00
C273   C     0.30686   0.47292   0.45282   0.00000  Uiso   1.00
C274   C     0.02622   0.52314   0.04689   0.00000  Uiso   1.00
C275   C     0.32282   0.48357   0.40762   0.00000  Uiso   1.00
C276   C     0.01041   0.51434   0.09218   0.00000  Uiso   1.00
C277   C     0.23843   0.48710   0.40633   0.00000  Uiso   1.00
C278   C     0.09497   0.51062   0.09318   0.00000  Uiso   1.00
C279   C     0.22296   0.48965   0.45262   0.00000  Uiso   1.00
C280   C     0.11016   0.50736   0.04687   0.00000  Uiso   1.00
C281   C     0.25689   0.47818   0.47575   0.00000  Uiso   1.00
C282   C     0.07608   0.51824   0.02374   0.00000  Uiso   1.00
C283   C     0.17434   0.50105   0.47651   0.00000  Uiso   1.00
C284   C     0.15860   0.49561   0.02290   0.00000  Uiso   1.00
Cu285  Cu    0.04689   0.50001   0.25000   0.00000  Uiso   1.00
Cu286  Cu    0.28645   0.49999   0.25000   0.00000  Uiso   1.00
H287   H     0.26367   0.45807   0.03923   0.00000  Uiso   1.00
H288   H     0.06856   0.53727   0.46025   0.00000  Uiso   1.00
H289   H     0.30490   0.51454   0.10902   0.00000  Uiso   1.00
H290   H     0.02817   0.48452   0.39045   0.00000  Uiso   1.00
H291   H     0.17896   0.46684   0.07784   0.00000  Uiso   1.00
H292   H     0.15347   0.52928   0.42151   0.00000  Uiso   1.00
H293   H     0.25718   0.37056   0.25072   0.00000  Uiso   1.00
H294   H     0.07612   0.62944   0.24939   0.00000  Uiso   1.00
H295   H     0.25723   0.62929   0.25064   0.00000  Uiso   1.00
H296   H     0.07607   0.37071   0.24946   0.00000  Uiso   1.00
H297   H     0.20089   0.44025   0.27828   0.00000  Uiso   1.00
H298   H     0.13253   0.55964   0.22142   0.00000  Uiso   1.00
H299   H     0.11411   0.44058   0.27908   0.00000  Uiso   1.00
H300   H     0.21924   0.55940   0.22086   0.00000  Uiso   1.00
N301   N     0.11736   0.50001   0.24999   0.00000  Uiso   1.00
N302   N     0.21597   0.49999   0.25001   0.00000  Uiso   1.00
O303   O     0.03958   0.43989   0.25000   0.00000  Uiso   1.00
O304   O     0.29375   0.56011   0.25000   0.00000  Uiso   1.00
O305   O     0.29372   0.43988   0.25001   0.00000  Uiso   1.00
O306   O     0.03961   0.56012   0.24999   0.00000  Uiso   1.00
O307   O     0.01852   0.50001   0.31491   0.00000  Uiso   1.00
O308   O     0.31481   0.49999   0.18509   0.00000  Uiso   1.00
O309   O     0.27267   0.50000   0.31492   0.00000  Uiso   1.00
O310   O     0.06067   0.50000   0.18508   0.00000  Uiso   1.00
C311   C     0.12966   0.52622   0.11512   0.00000  Uiso   1.00
N312   N     0.15765   0.53890   0.13207   0.00000  Uiso   1.00
C313   C     0.20436   0.47105   0.38396   0.00000  Uiso   1.00
N314   N     0.17688   0.45801   0.36667   0.00000  Uiso   1.00
O315   O     0.00580   0.46105   0.47640   0.00000  Uiso   1.00
C316   C     0.04190   0.43346   0.45244   0.00000  Uiso   1.00
H317   H     0.07230   0.45106   0.42959   0.00000  Uiso   1.00
H318   H     0.02659   0.41087   0.43337   0.00000  Uiso   1.00
C319   C     0.06240   0.40958   0.48500   0.00000  Uiso   1.00
H320   H     0.07629   0.43148   0.00553   0.00000  Uiso   1.00
H321   H     0.03270   0.39089   0.00730   0.00000  Uiso   1.00
C322   C     0.10404   0.38121   0.46106   0.00000  Uiso   1.00
H323   H     0.09108   0.35877   0.44043   0.00000  Uiso   1.00
H324   H     0.11752   0.36397   0.48569   0.00000  Uiso   1.00
H325   H     0.13483   0.39949   0.43975   0.00000  Uiso   1.00
O326   O     0.32561   0.53247   0.02464   0.00000  Uiso   1.00
C327   C     0.31170   0.57407   0.03220   0.00000  Uiso   1.00
H328   H     0.01088   0.59462   0.02032   0.00000  Uiso   1.00
H329   H     0.29398   0.57962   0.06802   0.00000  Uiso   1.00
C330   C     0.27498   0.58439   0.00671   0.00000  Uiso   1.00
H331   H     0.29147   0.57762   0.47106   0.00000  Uiso   1.00
H332   H     0.24181   0.56489   0.01919   0.00000  Uiso   1.00
C333   C     0.26008   0.62961   0.01186   0.00000  Uiso   1.00
H334   H     0.24285   0.63690   0.04723   0.00000  Uiso   1.00
H335   H     0.23325   0.63597   0.49319   0.00000  Uiso   1.00
H336   H     0.29253   0.64976   0.49866   0.00000  Uiso   1.00
C337   C     0.66663   0.42068   0.25004   0.00000  Uiso   1.00
C338   C     0.33336   0.57932   0.24998   0.00000  Uiso   1.00
C339   C     0.52421   0.47676   0.04373   0.00000  Uiso   1.00
C340   C     0.47513   0.51948   0.45565   0.00000  Uiso   1.00
C341   C     0.57301   0.47016   0.02108   0.00000  Uiso   1.00
C342   C     0.42625   0.52573   0.47833   0.00000  Uiso   1.00
C343   C     0.62392   0.35458   0.25042   0.00000  Uiso   1.00
C344   C     0.37605   0.64542   0.24968   0.00000  Uiso   1.00
C345   C     0.62395   0.64533   0.25037   0.00000  Uiso   1.00
C346   C     0.37601   0.35467   0.24973   0.00000  Uiso   1.00
C347   C     0.33335   0.62393   0.25000   0.00000  Uiso   1.00
C348   C     0.66662   0.37607   0.25008   0.00000  Uiso   1.00
C349   C     0.51976   0.46686   0.26565   0.00000  Uiso   1.00
C350   C     0.48027   0.53310   0.23423   0.00000  Uiso   1.00
C351   C     0.47013   0.46697   0.26593   0.00000  Uiso   1.00
C352   C     0.52988   0.53302   0.23404   0.00000  Uiso   1.00
C353   C     0.63882   0.49706   0.33569   0.00000  Uiso   1.00
C354   C     0.36120   0.50267   0.16428   0.00000  Uiso   1.00
C355   C     0.62211   0.49004   0.38390   0.00000  Uiso   1.00
C356   C     0.37789   0.50860   0.11593   0.00000  Uiso   1.00
C357   C     0.64019   0.47292   0.45282   0.00000  Uiso   1.00
C358   C     0.35955   0.52314   0.04689   0.00000  Uiso   1.00
C359   C     0.65616   0.48357   0.40762   0.00000  Uiso   1.00
C360   C     0.34374   0.51434   0.09218   0.00000  Uiso   1.00
C361   C     0.57176   0.48710   0.40633   0.00000  Uiso   1.00
C362   C     0.42830   0.51062   0.09318   0.00000  Uiso   1.00
C363   C     0.55630   0.48965   0.45262   0.00000  Uiso   1.00
C364   C     0.44349   0.50736   0.04687   0.00000  Uiso   1.00
C365   C     0.59023   0.47818   0.47575   0.00000  Uiso   1.00
C366   C     0.40941   0.51824   0.02374   0.00000  Uiso   1.00
C367   C     0.50768   0.50105   0.47651   0.00000  Uiso   1.00
C368   C     0.49193   0.49561   0.02290   0.00000  Uiso   1.00
Cu369  Cu    0.38022   0.50001   0.25000   0.00000  Uiso   1.00
Cu370  Cu    0.61978   0.49999   0.25000   0.00000  Uiso   1.00
H371   H     0.59700   0.45807   0.03923   0.00000  Uiso   1.00
H372   H     0.40189   0.53727   0.46025   0.00000  Uiso   1.00
H373   H     0.63823   0.51454   0.10902   0.00000  Uiso   1.00
H374   H     0.36150   0.48452   0.39045   0.00000  Uiso   1.00
H375   H     0.51229   0.46684   0.07784   0.00000  Uiso   1.00
H376   H     0.48681   0.52928   0.42151   0.00000  Uiso   1.00
H377   H     0.59051   0.37056   0.25072   0.00000  Uiso   1.00
H378   H     0.40945   0.62944   0.24939   0.00000  Uiso   1.00
H379   H     0.59057   0.62929   0.25064   0.00000  Uiso   1.00
H380   H     0.40940   0.37071   0.24946   0.00000  Uiso   1.00
H381   H     0.53422   0.44025   0.27828   0.00000  Uiso   1.00
H382   H     0.46586   0.55964   0.22142   0.00000  Uiso   1.00
H383   H     0.44744   0.44058   0.27908   0.00000  Uiso   1.00
H384   H     0.55258   0.55940   0.22086   0.00000  Uiso   1.00
N385   N     0.45069   0.50001   0.24999   0.00000  Uiso   1.00
N386   N     0.54931   0.49999   0.25001   0.00000  Uiso   1.00
O387   O     0.37291   0.43989   0.25000   0.00000  Uiso   1.00
O388   O     0.62709   0.56011   0.25000   0.00000  Uiso   1.00
O389   O     0.62706   0.43988   0.25001   0.00000  Uiso   1.00
O390   O     0.37294   0.56012   0.24999   0.00000  Uiso   1.00
O391   O     0.35186   0.50001   0.31491   0.00000  Uiso   1.00
O392   O     0.64814   0.49999   0.18509   0.00000  Uiso   1.00
O393   O     0.60600   0.50000   0.31492   0.00000  Uiso   1.00
O394   O     0.39400   0.50000   0.18508   0.00000  Uiso   1.00
C395   C     0.46300   0.52622   0.11512   0.00000  Uiso   1.00
N396   N     0.49098   0.53890   0.13207   0.00000  Uiso   1.00
C397   C     0.53770   0.47105   0.38396   0.00000  Uiso   1.00
N398   N     0.51021   0.45801   0.36667   0.00000  Uiso   1.00
O399   O     0.33913   0.46105   0.47640   0.00000  Uiso   1.00
C400   C     0.37524   0.43346   0.45244   0.00000  Uiso   1.00
H401   H     0.40563   0.45106   0.42959   0.00000  Uiso   1.00
H402   H     0.35992   0.41087   0.43337   0.00000  Uiso   1.00
C403   C     0.39573   0.40958   0.48500   0.00000  Uiso   1.00
H404   H     0.40962   0.43148   0.00553   0.00000  Uiso   1.00
H405   H     0.36604   0.39089   0.00730   0.00000  Uiso   1.00
C406   C     0.43738   0.38121   0.46106   0.00000  Uiso   1.00
H407   H     0.42442   0.35877   0.44043   0.00000  Uiso   1.00
H408   H     0.45085   0.36397   0.48569   0.00000  Uiso   1.00
H409   H     0.46816   0.39949   0.43975   0.00000  Uiso   1.00
O410   O     0.65894   0.53247   0.02464   0.00000  Uiso   1.00
C411   C     0.64503   0.57407   0.03220   0.00000  Uiso   1.00
H412   H     0.34421   0.59462   0.02032   0.00000  Uiso   1.00
H413   H     0.62732   0.57962   0.06802   0.00000  Uiso   1.00
C414   C     0.60832   0.58439   0.00671   0.00000  Uiso   1.00
H415   H     0.62481   0.57762   0.47106   0.00000  Uiso   1.00
H416   H     0.57514   0.56489   0.01919   0.00000  Uiso   1.00
C417   C     0.59341   0.62961   0.01186   0.00000  Uiso   1.00
H418   H     0.57619   0.63690   0.04723   0.00000  Uiso   1.00
H419   H     0.56658   0.63597   0.49319   0.00000  Uiso   1.00
H420   H     0.62586   0.64976   0.49866   0.00000  Uiso   1.00
C421   C     0.99996   0.42068   0.25004   0.00000  Uiso   1.00
C422   C     0.66670   0.57932   0.24998   0.00000  Uiso   1.00
C423   C     0.85754   0.47676   0.04373   0.00000  Uiso   1.00
C424   C     0.80846   0.51948   0.45565   0.00000  Uiso   1.00
C425   C     0.90634   0.47016   0.02108   0.00000  Uiso   1.00
C426   C     0.75958   0.52573   0.47833   0.00000  Uiso   1.00
C427   C     0.95725   0.35458   0.25042   0.00000  Uiso   1.00
C428   C     0.70938   0.64542   0.24968   0.00000  Uiso   1.00
C429   C     0.95729   0.64533   0.25037   0.00000  Uiso   1.00
C430   C     0.70935   0.35467   0.24973   0.00000  Uiso   1.00
C431   C     0.66669   0.62393   0.25000   0.00000  Uiso   1.00
C432   C     0.99995   0.37607   0.25008   0.00000  Uiso   1.00
C433   C     0.85310   0.46686   0.26565   0.00000  Uiso   1.00
C434   C     0.81360   0.53310   0.23423   0.00000  Uiso   1.00
C435   C     0.80346   0.46697   0.26593   0.00000  Uiso   1.00
C436   C     0.86321   0.53302   0.23404   0.00000  Uiso   1.00
C437   C     0.97215   0.49706   0.33569   0.00000  Uiso   1.00
C438   C     0.69453   0.50267   0.16428   0.00000  Uiso   1.00
C439   C     0.95544   0.49004   0.38390   0.00000  Uiso   1.00
C440   C     0.71122   0.50860   0.11593   0.00000  Uiso   1.00
C441   C     0.97353   0.47292   0.45282   0.00000  Uiso   1.00
C442   C     0.69288   0.52314   0.04689   0.00000  Uiso   1.00
C443   C     0.98949   0.48357   0.40762   0.00000  Uiso   1.00
C444   C     0.67707   0.51434   0.09218   0.00000  Uiso   1.00
C445   C     0.90509   0.48710   0.40633   0.00000  Uiso   1.00
C446   C     0.76163   0.51062   0.09318   0.00000  Uiso   1.00
C447   C     0.88963   0.48965   0.45262   0.00000  Uiso   1.00
C448   C     0.77683   0.50736   0.04687   0.00000  Uiso   1.00
C449   C     0.92356   0.47818   0.47575   0.00000  Uiso   1.00
C450   C     0.74274   0.51824   0.02374   0.00000  Uiso   1.00
C451   C     0.84101   0.50105   0.47651   0.00000  Uiso   1.00
C452   C     0.82526   0.49561   0.02290   0.00000  Uiso   1.00
Cu453  Cu    0.71355   0.50001   0.25000   0.00000  Uiso   1.00
Cu454  Cu    0.95311   0.49999   0.25000   0.00000  Uiso   1.00
H455   H     0.93034   0.45807   0.03923   0.00000  Uiso   1.00
H456   H     0.73523   0.53727   0.46025   0.00000  Uiso   1.00
H457   H     0.97156   0.51454   0.10902   0.00000  Uiso   1.00
H458   H     0.69483   0.48452   0.39045   0.00000  Uiso   1.00
H459   H     0.84563   0.46684   0.07784   0.00000  Uiso   1.00
H460   H     0.82014   0.52928   0.42151   0.00000  Uiso   1.00
H461   H     0.92385   0.37056   0.25072   0.00000  Uiso   1.00
H462   H     0.74279   0.62944   0.24939   0.00000  Uiso   1.00
H463   H     0.92390   0.62929   0.25064   0.00000  Uiso   1.00
H464   H     0.74274   0.37071   0.24946   0.00000  Uiso   1.00
H465   H     0.86756   0.44025   0.27828   0.00000  Uiso   1.00
H466   H     0.79919   0.55964   0.22142   0.00000  Uiso   1.00
H467   H     0.78078   0.44058   0.27908   0.00000  Uiso   1.00
H468   H     0.88591   0.55940   0.22086   0.00000  Uiso   1.00
N469   N     0.78403   0.50001   0.24999   0.00000  Uiso   1.00
N470   N     0.88264   0.49999   0.25001   0.00000  Uiso   1.00
O471   O     0.70625   0.43989   0.25000   0.00000  Uiso   1.00
O472   O     0.96042   0.56011   0.25000   0.00000  Uiso   1.00
O473   O     0.96039   0.43988   0.25001   0.00000  Uiso   1.00
O474   O     0.70628   0.56012   0.24999   0.00000  Uiso   1.00
O475   O     0.68519   0.50001   0.31491   0.00000  Uiso   1.00
O476   O     0.98148   0.49999   0.18509   0.00000  Uiso   1.00
O477   O     0.93933   0.50000   0.31492   0.00000  Uiso   1.00
O478   O     0.72733   0.50000   0.18508   0.00000  Uiso   1.00
C479   C     0.79633   0.52622   0.11512   0.00000  Uiso   1.00
N480   N     0.82432   0.53890   0.13207   0.00000  Uiso   1.00
C481   C     0.87103   0.47105   0.38396   0.00000  Uiso   1.00
N482   N     0.84354   0.45801   0.36667   0.00000  Uiso   1.00
O483   O     0.67246   0.46105   0.47640   0.00000  Uiso   1.00
C484   C     0.70857   0.43346   0.45244   0.00000  Uiso   1.00
H485   H     0.73896   0.45106   0.42959   0.00000  Uiso   1.00
H486   H     0.69325   0.41087   0.43337   0.00000  Uiso   1.00
C487   C     0.72907   0.40958   0.48500   0.00000  Uiso   1.00
H488   H     0.74295   0.43148   0.00553   0.00000  Uiso   1.00
H489   H     0.69937   0.39089   0.00730   0.00000  Uiso   1.00
C490   C     0.77071   0.38121   0.46106   0.00000  Uiso   1.00
H491   H     0.75775   0.35877   0.44043   0.00000  Uiso   1.00
H492   H     0.78419   0.36397   0.48569   0.00000  Uiso   1.00
H493   H     0.80149   0.39949   0.43975   0.00000  Uiso   1.00
O494   O     0.99228   0.53247   0.02464   0.00000  Uiso   1.00
C495   C     0.97836   0.57407   0.03220   0.00000  Uiso   1.00
H496   H     0.67754   0.59462   0.02032   0.00000  Uiso   1.00
H497   H     0.96065   0.57962   0.06802   0.00000  Uiso   1.00
C498   C     0.94165   0.58439   0.00671   0.00000  Uiso   1.00
H499   H     0.95814   0.57762   0.47106   0.00000  Uiso   1.00
H500   H     0.90847   0.56489   0.01919   0.00000  Uiso   1.00
C501   C     0.92675   0.62961   0.01186   0.00000  Uiso   1.00
H502   H     0.90952   0.63690   0.04723   0.00000  Uiso   1.00
H503   H     0.89991   0.63597   0.49319   0.00000  Uiso   1.00
H504   H     0.95920   0.64976   0.49866   0.00000  Uiso   1.00
C505   C     0.33330   0.75402   0.25004   0.00000  Uiso   1.00
C506   C     0.00003   0.91265   0.24998   0.00000  Uiso   1.00
C507   C     0.19088   0.81010   0.04373   0.00000  Uiso   1.00
C508   C     0.14179   0.85282   0.45565   0.00000  Uiso   1.00
C509   C     0.23967   0.80349   0.02108   0.00000  Uiso   1.00
C510   C     0.09291   0.85907   0.47833   0.00000  Uiso   1.00
C511   C     0.29058   0.68791   0.25042   0.00000  Uiso   1.00
C512   C     0.04272   0.97875   0.24968   0.00000  Uiso   1.00
C513   C     0.29062   0.97867   0.25037   0.00000  Uiso   1.00
C514   C     0.04268   0.68800   0.24973   0.00000  Uiso   1.00
C515   C     0.00002   0.95726   0.25000   0.00000  Uiso   1.00
C516   C     0.33329   0.70941   0.25008   0.00000  Uiso   1.00
C517   C     0.18643   0.80019   0.26565   0.00000  Uiso   1.00
C518   C     0.14693   0.86643   0.23423   0.00000  Uiso   1.00
C519   C     0.13680   0.80030   0.26593   0.00000  Uiso   1.00
C520   C     0.19655   0.86635   0.23404   0.00000  Uiso   1.00
C521   C     0.30548   0.83039   0.33569   0.00000  Uiso   1.00
C522   C     0.02786   0.83600   0.16428   0.00000  Uiso   1.00
C523   C     0.28878   0.82337   0.38390   0.00000  Uiso   1.00
C524   C     0.04456   0.84193   0.11593   0.00000  Uiso   1.00
C525   C     0.30686   0.80625   0.45282   0.00000  Uiso   1.00
C526   C     0.02622   0.85648   0.04689   0.00000  Uiso   1.00
C527   C     0.32282   0.81690   0.40762   0.00000  Uiso   1.00
C528   C     0.01041   0.84767   0.09218   0.00000  Uiso   1.00
C529   C     0.23843   0.82043   0.40633   0.00000  Uiso   1.00
C530   C     0.09497   0.84395   0.09318   0.00000  Uiso   1.00
C531   C     0.22296   0.82298   0.45262   0.00000  Uiso   1.00
C532   C     0.11016   0.84069   0.04687   0.00000  Uiso   1.00
C533   C     0.25689   0.81152   0.47575   0.00000  Uiso   1.00
C534   C     0.07608   0.85157   0.02374   0.00000  Uiso   1.00
C535   C     0.17434   0.83438   0.47651   0.00000  Uiso   1.00
C536   C     0.15860   0.82894   0.02290   0.00000  Uiso   1.00
Cu537  Cu    0.04689   0.83334   0.25000   0.00000  Uiso   1.00
Cu538  Cu    0.28645   0.83333   0.25000   0.00000  Uiso   1.00
H539   H     0.26367   0.79141   0.03923   0.00000  Uiso   1.00
H540   H     0.06856   0.87061   0.46025   0.00000  Uiso   1.00
H541   H     0.30490   0.84787   0.10902   0.00000  Uiso   1.00
H542   H     0.02817   0.81785   0.39045   0.00000  Uiso   1.00
H543   H     0.17896   0.80018   0.07784   0.00000  Uiso   1.00
H544   H     0.15347   0.86262   0.42151   0.00000  Uiso   1.00
H545   H     0.25718   0.70389   0.25072   0.00000  Uiso   1.00
H546   H     0.07612   0.96277   0.24939   0.00000  Uiso   1.00
H547   H     0.25723   0.96262   0.25064   0.00000  Uiso   1.00
H548   H     0.07607   0.70405   0.24946   0.00000  Uiso   1.00
H549   H     0.20089   0.77358   0.27828   0.00000  Uiso   1.00
H550   H     0.13253   0.89297   0.22142   0.00000  Uiso   1.00
H551   H     0.11411   0.77391   0.27908   0.00000  Uiso   1.00
H552   H     0.21924   0.89273   0.22086   0.00000  Uiso   1.00
N553   N     0.11736   0.83334   0.24999   0.00000  Uiso   1.00
N554   N     0.21597   0.83332   0.25001   0.00000  Uiso   1.00
O555   O     0.03958   0.77322   0.25000   0.00000  Uiso   1.00
O556   O     0.29375   0.89345   0.25000   0.00000  Uiso   1.00
O557   O     0.29372   0.77321   0.25001   0.00000  Uiso   1.00
O558   O     0.03961   0.89346   0.24999   0.00000  Uiso   1.00
O559   O     0.01852   0.83334   0.31491   0.00000  Uiso   1.00
O560   O     0.31481   0.83332   0.18509   0.00000  Uiso   1.00
O561   O     0.27267   0.83333   0.31492   0.00000  Uiso   1.00
O562   O     0.06067   0.83333   0.18508   0.00000  Uiso   1.00
C563   C     0.12966   0.85955   0.11512   0.00000  Uiso   1.00
N564   N     0.15765   0.87223   0.13207   0.00000  Uiso   1.00
C565   C     0.20436   0.80438   0.38396   0.00000  Uiso   1.00
N566   N     0.17688   0.79134   0.36667   0.00000  Uiso   1.00
O567   O     0.00580   0.79439   0.47640   0.00000  Uiso   1.00
C568   C     0.04190   0.76680   0.45244   0.00000  Uiso   1.00
H569   H     0.07230   0.78439   0.42959   0.00000  Uiso   1.00
H570   H     0.02659   0.74421   0.43337   0.00000  Uiso   1.00
C571   C     0.06240   0.74292   0.48500   0.00000  Uiso   1.00
H572   H     0.07629   0.76482   0.00553   0.00000  Uiso   1.00
H573   H     0.03270   0.72422   0.00730   0.00000  Uiso   1.00
C574   C     0.10404   0.71454   0.46106   0.00000  Uiso   1.00
H575   H     0.09108   0.69211   0.44043   0.00000  Uiso   1.00
H576   H     0.11752   0.69730   0.48569   0.00000  Uiso   1.00
H577   H     0.13483   0.73282   0.43975   0.00000  Uiso   1.00
O578   O     0.32561   0.86581   0.02464   0.00000  Uiso   1.00
C579   C     0.31170   0.90740   0.03220   0.00000  Uiso   1.00
H580   H     0.01088   0.92796   0.02032   0.00000  Uiso   1.00
H581   H     0.29398   0.91296   0.06802   0.00000  Uiso   1.00
C582   C     0.27498   0.91772   0.00671   0.00000  Uiso   1.00
H583   H     0.29147   0.91095   0.47106   0.00000  Uiso   1.00
H584   H     0.24181   0.89822   0.01919   0.00000  Uiso   1.00
C585   C     0.26008   0.96295   0.01186   0.00000  Uiso   1.00
H586   H     0.24285   0.97024   0.04723   0.00000  Uiso   1.00
H587   H     0.23325   0.96930   0.49319   0.00000  Uiso   1.00
H588   H     0.29253   0.98310   0.49866   0.00000  Uiso   1.00
C589   C     0.66663   0.75402   0.25004   0.00000  Uiso   1.00
C590   C     0.33336   0.91265   0.24998   0.00000  Uiso   1.00
C591   C     0.52421   0.81010   0.04373   0.00000  Uiso   1.00
C592   C     0.47513   0.85282   0.45565   0.00000  Uiso   1.00
C593   C     0.57301   0.80349   0.02108   0.00000  Uiso   1.00
C594   C     0.42625   0.85907   0.47833   0.00000  Uiso   1.00
C595   C     0.62392   0.68791   0.25042   0.00000  Uiso   1.00
C596   C     0.37605   0.97875   0.24968   0.00000  Uiso   1.00
C597   C     0.62395   0.97867   0.25037   0.00000  Uiso   1.00
C598   C     0.37601   0.68800   0.24973   0.00000  Uiso   1.00
C599   C     0.33335   0.95726   0.25000   0.00000  Uiso   1.00
C600   C     0.66662   0.70941   0.25008   0.00000  Uiso   1.00
C601   C     0.51976   0.80019   0.26565   0.00000  Uiso   1.00
C602   C     0.48027   0.86643   0.23423   0.00000  Uiso   1.00
C603   C     0.47013   0.80030   0.26593   0.00000  Uiso   1.00
C604   C     0.52988   0.86635   0.23404   0.00000  Uiso   1.00
C605   C     0.63882   0.83039   0.33569   0.00000  Uiso   1.00
C606   C     0.36120   0.83600   0.16428   0.00000  Uiso   1.00
C607   C     0.62211   0.82337   0.38390   0.00000  Uiso   1.00
C608   C     0.37789   0.84193   0.11593   0.00000  Uiso   1.00
C609   C     0.64019   0.80625   0.45282   0.00000  Uiso   1.00
C610   C     0.35955   0.85648   0.04689   0.00000  Uiso   1.00
C611   C     0.65616   0.81690   0.40762   0.00000  Uiso   1.00
C612   C     0.34374   0.84767   0.09218   0.00000  Uiso   1.00
C613   C     0.57176   0.82043   0.40633   0.00000  Uiso   1.00
C614   C     0.42830   0.84395   0.09318   0.00000  Uiso   1.00
C615   C     0.55630   0.82298   0.45262   0.00000  Uiso   1.00
C616   C     0.44349   0.84069   0.04687   0.00000  Uiso   1.00
C617   C     0.59023   0.81152   0.47575   0.00000  Uiso   1.00
C618   C     0.40941   0.85157   0.02374   0.00000  Uiso   1.00
C619   C     0.50768   0.83438   0.47651   0.00000  Uiso   1.00
C620   C     0.49193   0.82894   0.02290   0.00000  Uiso   1.00
Cu621  Cu    0.38022   0.83334   0.25000   0.00000  Uiso   1.00
Cu622  Cu    0.61978   0.83333   0.25000   0.00000  Uiso   1.00
H623   H     0.59700   0.79141   0.03923   0.00000  Uiso   1.00
H624   H     0.40189   0.87061   0.46025   0.00000  Uiso   1.00
H625   H     0.63823   0.84787   0.10902   0.00000  Uiso   1.00
H626   H     0.36150   0.81785   0.39045   0.00000  Uiso   1.00
H627   H     0.51229   0.80018   0.07784   0.00000  Uiso   1.00
H628   H     0.48681   0.86262   0.42151   0.00000  Uiso   1.00
H629   H     0.59051   0.70389   0.25072   0.00000  Uiso   1.00
H630   H     0.40945   0.96277   0.24939   0.00000  Uiso   1.00
H631   H     0.59057   0.96262   0.25064   0.00000  Uiso   1.00
H632   H     0.40940   0.70405   0.24946   0.00000  Uiso   1.00
H633   H     0.53422   0.77358   0.27828   0.00000  Uiso   1.00
H634   H     0.46586   0.89297   0.22142   0.00000  Uiso   1.00
H635   H     0.44744   0.77391   0.27908   0.00000  Uiso   1.00
H636   H     0.55258   0.89273   0.22086   0.00000  Uiso   1.00
N637   N     0.45069   0.83334   0.24999   0.00000  Uiso   1.00
N638   N     0.54931   0.83332   0.25001   0.00000  Uiso   1.00
O639   O     0.37291   0.77322   0.25000   0.00000  Uiso   1.00
O640   O     0.62709   0.89345   0.25000   0.00000  Uiso   1.00
O641   O     0.62706   0.77321   0.25001   0.00000  Uiso   1.00
O642   O     0.37294   0.89346   0.24999   0.00000  Uiso   1.00
O643   O     0.35186   0.83334   0.31491   0.00000  Uiso   1.00
O644   O     0.64814   0.83332   0.18509   0.00000  Uiso   1.00
O645   O     0.60600   0.83333   0.31492   0.00000  Uiso   1.00
O646   O     0.39400   0.83333   0.18508   0.00000  Uiso   1.00
C647   C     0.46300   0.85955   0.11512   0.00000  Uiso   1.00
N648   N     0.49098   0.87223   0.13207   0.00000  Uiso   1.00
C649   C     0.53770   0.80438   0.38396   0.00000  Uiso   1.00
N650   N     0.51021   0.79134   0.36667   0.00000  Uiso   1.00
O651   O     0.33913   0.79439   0.47640   0.00000  Uiso   1.00
C652   C     0.37524   0.76680   0.45244   0.00000  Uiso   1.00
H653   H     0.40563   0.78439   0.42959   0.00000  Uiso   1.00
H654   H     0.35992   0.74421   0.43337   0.00000  Uiso   1.00
C655   C     0.39573   0.74292   0.48500   0.00000  Uiso   1.00
H656   H     0.40962   0.76482   0.00553   0.00000  Uiso   1.00
H657   H     0.36604   0.72422   0.00730   0.00000  Uiso   1.00
C658   C     0.43738   0.71454   0.46106   0.00000  Uiso   1.00
H659   H     0.42442   0.69211   0.44043   0.00000  Uiso   1.00
H660   H     0.45085   0.69730   0.48569   0.00000  Uiso   1.00
H661   H     0.46816   0.73282   0.43975   0.00000  Uiso   1.00
O662   O     0.65894   0.86581   0.02464   0.00000  Uiso   1.00
C663   C     0.64503   0.90740   0.03220   0.00000  Uiso   1.00
H664   H     0.34421   0.92796   0.02032   0.00000  Uiso   1.00
H665   H     0.62732   0.91296   0.06802   0.00000  Uiso   1.00
C666   C     0.60832   0.91772   0.00671   0.00000  Uiso   1.00
H667   H     0.62481   0.91095   0.47106   0.00000  Uiso   1.00
H668   H     0.57514   0.89822   0.01919   0.00000  Uiso   1.00
C669   C     0.59341   0.96295   0.01186   0.00000  Uiso   1.00
H670   H     0.57619   0.97024   0.04723   0.00000  Uiso   1.00
H671   H     0.56658   0.96930   0.49319   0.00000  Uiso   1.00
H672   H     0.62586   0.98310   0.49866   0.00000  Uiso   1.00
C673   C     0.99996   0.75402   0.25004   0.00000  Uiso   1.00
C674   C     0.66670   0.91265   0.24998   0.00000  Uiso   1.00
C675   C     0.85754   0.81010   0.04373   0.00000  Uiso   1.00
C676   C     0.80846   0.85282   0.45565   0.00000  Uiso   1.00
C677   C     0.90634   0.80349   0.02108   0.00000  Uiso   1.00
C678   C     0.75958   0.85907   0.47833   0.00000  Uiso   1.00
C679   C     0.95725   0.68791   0.25042   0.00000  Uiso   1.00
C680   C     0.70938   0.97875   0.24968   0.00000  Uiso   1.00
C681   C     0.95729   0.97867   0.25037   0.00000  Uiso   1.00
C682   C     0.70935   0.68800   0.24973   0.00000  Uiso   1.00
C683   C     0.66669   0.95726   0.25000   0.00000  Uiso   1.00
C684   C     0.99995   0.70941   0.25008   0.00000  Uiso   1.00
C685   C     0.85310   0.80019   0.26565   0.00000  Uiso   1.00
C686   C     0.81360   0.86643   0.23423   0.00000  Uiso   1.00
C687   C     0.80346   0.80030   0.26593   0.00000  Uiso   1.00
C688   C     0.86321   0.86635   0.23404   0.00000  Uiso   1.00
C689   C     0.97215   0.83039   0.33569   0.00000  Uiso   1.00
C690   C     0.69453   0.83600   0.16428   0.00000  Uiso   1.00
C691   C     0.95544   0.82337   0.38390   0.00000  Uiso   1.00
C692   C     0.71122   0.84193   0.11593   0.00000  Uiso   1.00
C693   C     0.97353   0.80625   0.45282   0.00000  Uiso   1.00
C694   C     0.69288   0.85648   0.04689   0.00000  Uiso   1.00
C695   C     0.98949   0.81690   0.40762   0.00000  Uiso   1.00
C696   C     0.67707   0.84767   0.09218   0.00000  Uiso   1.00
C697   C     0.90509   0.82043   0.40633   0.00000  Uiso   1.00
C698   C     0.76163   0.84395   0.09318   0.00000  Uiso   1.00
C699   C     0.88963   0.82298   0.45262   0.00000  Uiso   1.00
C700   C     0.77683   0.84069   0.04687   0.00000  Uiso   1.00
C701   C     0.92356   0.81152   0.47575   0.00000  Uiso   1.00
C702   C     0.74274   0.85157   0.02374   0.00000  Uiso   1.00
C703   C     0.84101   0.83438   0.47651   0.00000  Uiso   1.00
C704   C     0.82526   0.82894   0.02290   0.00000  Uiso   1.00
Cu705  Cu    0.71355   0.83334   0.25000   0.00000  Uiso   1.00
Cu706  Cu    0.95311   0.83333   0.25000   0.00000  Uiso   1.00
H707   H     0.93034   0.79141   0.03923   0.00000  Uiso   1.00
H708   H     0.73523   0.87061   0.46025   0.00000  Uiso   1.00
H709   H     0.97156   0.84787   0.10902   0.00000  Uiso   1.00
H710   H     0.69483   0.81785   0.39045   0.00000  Uiso   1.00
H711   H     0.84563   0.80018   0.07784   0.00000  Uiso   1.00
H712   H     0.82014   0.86262   0.42151   0.00000  Uiso   1.00
H713   H     0.92385   0.70389   0.25072   0.00000  Uiso   1.00
H714   H     0.74279   0.96277   0.24939   0.00000  Uiso   1.00
H715   H     0.92390   0.96262   0.25064   0.00000  Uiso   1.00
H716   H     0.74274   0.70405   0.24946   0.00000  Uiso   1.00
H717   H     0.86756   0.77358   0.27828   0.00000  Uiso   1.00
H718   H     0.79919   0.89297   0.22142   0.00000  Uiso   1.00
H719   H     0.78078   0.77391   0.27908   0.00000  Uiso   1.00
H720   H     0.88591   0.89273   0.22086   0.00000  Uiso   1.00
N721   N     0.78403   0.83334   0.24999   0.00000  Uiso   1.00
N722   N     0.88264   0.83332   0.25001   0.00000  Uiso   1.00
O723   O     0.70625   0.77322   0.25000   0.00000  Uiso   1.00
O724   O     0.96042   0.89345   0.25000   0.00000  Uiso   1.00
O725   O     0.96039   0.77321   0.25001   0.00000  Uiso   1.00
O726   O     0.70628   0.89346   0.24999   0.00000  Uiso   1.00
O727   O     0.68519   0.83334   0.31491   0.00000  Uiso   1.00
O728   O     0.98148   0.83332   0.18509   0.00000  Uiso   1.00
O729   O     0.93933   0.83333   0.31492   0.00000  Uiso   1.00
O730   O     0.72733   0.83333   0.18508   0.00000  Uiso   1.00
C731   C     0.79633   0.85955   0.11512   0.00000  Uiso   1.00
N732   N     0.82432   0.87223   0.13207   0.00000  Uiso   1.00
C733   C     0.87103   0.80438   0.38396   0.00000  Uiso   1.00
N734   N     0.84354   0.79134   0.36667   0.00000  Uiso   1.00
O735   O     0.67246   0.79439   0.47640   0.00000  Uiso   1.00
C736   C     0.70857   0.76680   0.45244   0.00000  Uiso   1.00
H737   H     0.73896   0.78439   0.42959   0.00000  Uiso   1.00
H738   H     0.69325   0.74421   0.43337   0.00000  Uiso   1.00
C739   C     0.72907   0.74292   0.48500   0.00000  Uiso   1.00
H740   H     0.74295   0.76482   0.00553   0.00000  Uiso   1.00
H741   H     0.69937   0.72422   0.00730   0.00000  Uiso   1.00
C742   C     0.77071   0.71454   0.46106   0.00000  Uiso   1.00
H743   H     0.75775   0.69211   0.44043   0.00000  Uiso   1.00
H744   H     0.78419   0.69730   0.48569   0.00000  Uiso   1.00
H745   H     0.80149   0.73282   0.43975   0.00000  Uiso   1.00
O746   O     0.99228   0.86581   0.02464   0.00000  Uiso   1.00
C747   C     0.97836   0.90740   0.03220   0.00000  Uiso   1.00
H748   H     0.67754   0.92796   0.02032   0.00000  Uiso   1.00
H749   H     0.96065   0.91296   0.06802   0.00000  Uiso   1.00
C750   C     0.94165   0.91772   0.00671   0.00000  Uiso   1.00
H751   H     0.95814   0.91095   0.47106   0.00000  Uiso   1.00
H752   H     0.90847   0.89822   0.01919   0.00000  Uiso   1.00
C753   C     0.92675   0.96295   0.01186   0.00000  Uiso   1.00
H754   H     0.90952   0.97024   0.04723   0.00000  Uiso   1.00
H755   H     0.89991   0.96930   0.49319   0.00000  Uiso   1.00
H756   H     0.95920   0.98310   0.49866   0.00000  Uiso   1.00
C757   C     0.33330   0.08735   0.75004   0.00000  Uiso   1.00
C758   C     0.00003   0.24598   0.74998   0.00000  Uiso   1.00
C759   C     0.19088   0.14343   0.54373   0.00000  Uiso   1.00
C760   C     0.14179   0.18615   0.95565   0.00000  Uiso   1.00
C761   C     0.23967   0.13683   0.52108   0.00000  Uiso   1.00
C762   C     0.09291   0.19240   0.97833   0.00000  Uiso   1.00
C763   C     0.29058   0.02125   0.75042   0.00000  Uiso   1.00
C764   C     0.04272   0.31209   0.74968   0.00000  Uiso   1.00
C765   C     0.29062   0.31200   0.75037   0.00000  Uiso   1.00
C766   C     0.04268   0.02133   0.74973   0.00000  Uiso   1.00
C767   C     0.00002   0.29059   0.75000   0.00000  Uiso   1.00
C768   C     0.33329   0.04274   0.75008   0.00000  Uiso   1.00
C769   C     0.18643   0.13352   0.76565   0.00000  Uiso   1.00
C770   C     0.14693   0.19977   0.73423   0.00000  Uiso   1.00
C771   C     0.13680   0.13364   0.76593   0.00000  Uiso   1.00
C772   C     0.19655   0.19969   0.73404   0.00000  Uiso   1.00
C773   C     0.30548   0.16373   0.83569   0.00000  Uiso   1.00
C774   C     0.02786   0.16933   0.66428   0.00000  Uiso   1.00
C775   C     0.28878   0.15670   0.88390   0.00000  Uiso   1.00
C776   C     0.04456   0.17526   0.61593   0.00000  Uiso   1.00
C777   C     0.30686   0.13959   0.95282   0.00000  Uiso   1.00
C778   C     0.02622   0.18981   0.54689   0.00000  Uiso   1.00
C779   C     0.32282   0.15023   0.90762   0.00000  Uiso   1.00
C780   C     0.01041   0.18100   0.59218   0.00000  Uiso   1.00
C781   C     0.23843   0.15376   0.90633   0.00000  Uiso   1.00
C782   C     0.09497   0.17729   0.59318   0.00000  Uiso   1.00
C783   C     0.22296   0.15631   0.95262   0.00000  Uiso   1.00
C784   C     0.11016   0.17402   0.54687   0.00000  Uiso   1.00
C785   C     0.25689   0.14485   0.97575   0.00000  Uiso   1.00
C786   C     0.07608   0.18490   0.52374   0.00000  Uiso   1.00
C787   C     0.17434   0.16771   0.97651   0.00000  Uiso   1.00
C788   C     0.15860   0.16227   0.52290   0.00000  Uiso   1.00
Cu789  Cu    0.04689   0.16667   0.75000   0.00000  Uiso   1.00
Cu790  Cu    0.28645   0.16666   0.75000   0.00000  Uiso   1.00
H791   H     0.26367   0.12474   0.53923   0.00000  Uiso   1.00
H792   H     0.06856   0.20394   0.96025   0.00000  Uiso   1.00
H793   H     0.30490   0.18121   0.60902   0.00000  Uiso   1.00
H794   H     0.02817   0.15119   0.89045   0.00000  Uiso   1.00
H795   H     0.17896   0.13351   0.57784   0.00000  Uiso   1.00
H796   H     0.15347   0.19595   0.92151   0.00000  Uiso   1.00
H797   H     0.25718   0.03723   0.75072   0.00000  Uiso   1.00
H798   H     0.07612   0.29611   0.74939   0.00000  Uiso   1.00
H799   H     0.25723   0.29595   0.75064   0.00000  Uiso   1.00
H800   H     0.07607   0.03738   0.74946   0.00000  Uiso   1.00
H801   H     0.20089   0.10691   0.77828   0.00000  Uiso   1.00
H802   H     0.13253   0.22630   0.72142   0.00000  Uiso   1.00
H803   H     0.11411   0.10724   0.77908   0.00000  Uiso   1.00
H804   H     0.21924   0.22607   0.72086   0.00000  Uiso   1.00
N805   N     0.11736   0.16668   0.74999   0.00000  Uiso   1.00
N806   N     0.21597   0.16666   0.75001   0.00000  Uiso   1.00
O807   O     0.03958   0.10655   0.75000   0.00000  Uiso   1.00
O808   O     0.29375   0.22678   0.75000   0.00000  Uiso   1.00
O809   O     0.29372   0.10654   0.75001   0.00000  Uiso   1.00
O810   O     0.03961   0.22679   0.74999   0.00000  Uiso   1.00
O811   O     0.01852   0.16668   0.81491   0.00000  Uiso   1.00
O812   O     0.31481   0.16666   0.68509   0.00000  Uiso   1.00
O813   O     0.27267   0.16667   0.81492   0.00000  Uiso   1.00
O814   O     0.06067   0.16667   0.68508   0.00000  Uiso   1.00
C815   C     0.12966   0.19289   0.61512   0.00000  Uiso   1.00
N816   N     0.15765   0.20557   0.63207   0.00000  Uiso   1.00
C817   C     0.20436   0.13771   0.88396   0.00000  Uiso   1.00
N818   N     0.17688   0.12467   0.86667   0.00000  Uiso   1.00
O819   O     0.00580   0.12772   0.97640   0.00000  Uiso   1.00
C820   C     0.04190   0.10013   0.95244   0.00000  Uiso   1.00
H821   H     0.07230   0.11773   0.92959   0.00000  Uiso   1.00
H822   H     0.02659   0.07754   0.93337   0.00000  Uiso   1.00
C823   C     0.06240   0.07625   0.98500   0.00000  Uiso   1.00
H824   H     0.07629   0.09815   0.50553   0.00000  Uiso   1.00
H825   H     0.03270   0.05756   0.50730   0.00000  Uiso   1.00
C826   C     0.10404   0.04788   0.96106   0.00000  Uiso   1.00
H827   H     0.09108   0.02544   0.94043   0.00000  Uiso   1.00
H828   H     0.11752   0.03064   0.98569   0.00000  Uiso   1.00
H829   H     0.13483   0.06616   0.93975   0.00000  Uiso   1.00
O830   O     0.32561   0.19914   0.52464   0.00000  Uiso   1.00
C831   C     0.31170   0.24073   0.53220   0.00000  Uiso   1.00
H832   H     0.01088   0.26129   0.52032   0.00000  Uiso   1.00
H833   H     0.29398   0.24629   0.56802   0.00000  Uiso   1.00
C834   C     0.27498   0.25106   0.50671   0.00000  Uiso   1.00
H835   H     0.29147   0.24428   0.97106   0.00000  Uiso   1.00
H836   H     0.24181   0.23155   0.51919   0.00000  Uiso   1.00
C837   C     0.26008   0.29628   0.51186   0.00000  Uiso   1.00
H838   H     0.24285   0.30357   0.54723   0.00000  Uiso   1.00
H839   H     0.23325   0.30264   0.99319   0.00000  Uiso   1.00
H840   H     0.29253   0.31643   0.99866   0.00000  Uiso   1.00
C841   C     0.66663   0.08735   0.75004   0.00000  Uiso   1.00
C842   C     0.33336   0.24598   0.74998   0.00000  Uiso   1.00
C843   C     0.52421   0.14343   0.54373   0.00000  Uiso   1.00
C844   C     0.47513   0.18615   0.95565   0.00000  Uiso   1.00
C845   C     0.57301   0.13683   0.52108   0.00000  Uiso   1.00
C846   C     0.42625   0.19240   0.97833   0.00000  Uiso   1.00
C847   C     0.62392   0.02125   0.75042   0.00000  Uiso   1.00
C848   C     0.37605   0.31209   0.74968   0.00000  Uiso   1.00
C849   C     0.62395   0.31200   0.75037   0.00000  Uiso   1.00
C850   C     0.37601   0.02133   0.74973   0.00000  Uiso   1.00
C851   C     0.33335   0.29059   0.75000   0.00000  Uiso   1.00
C852   C     0.66662   0.04274   0.75008   0.00000  Uiso   1.00
C853   C     0.51976   0.13352   0.76565   0.00000  Uiso   1.00
C854   C     0.48027   0.19977   0.73423   0.00000  Uiso   1.00
C855   C     0.47013   0.13364   0.76593   0.00000  Uiso   1.00
C856   C     0.52988   0.19969   0.73404   0.00000  Uiso   1.00
C857   C     0.63882   0.16373   0.83569   0.00000  Uiso   1.00
C858   C     0.36120   0.16933   0.66428   0.00000  Uiso   1.00
C859   C     0.62211   0.15670   0.88390   0.00000  Uiso   1.00
C860   C     0.37789   0.17526   0.61593   0.00000  Uiso   1.00
C861   C     0.64019   0.13959   0.95282   0.00000  Uiso   1.00
C862   C     0.35955   0.18981   0.54689   0.00000  Uiso   1.00
C863   C     0.65616   0.15023   0.90762   0.00000  Uiso   1.00
C864   C     0.34374   0.18100   0.59218   0.00000  Uiso   1.00
C865   C     0.57176   0.15376   0.90633   0.00000  Uiso   1.00
C866   C     0.42830   0.17729   0.59318   0.00000  Uiso   1.00
C867   C     0.55630   0.15631   0.95262   0.00000  Uiso   1.00
C868   C     0.44349   0.17402   0.54687   0.00000  Uiso   1.00
C869   C     0.59023   0.14485   0.97575   0.00000  Uiso   1.00
C870   C     0.40941   0.18490   0.52374   0.00000  Uiso   1.00
C871   C     0.50768   0.16771   0.97651   0.00000  Uiso   1.00
C872   C     0.49193   0.16227   0.52290   0.00000  Uiso   1.00
Cu873  Cu    0.38022   0.16667   0.75000   0.00000  Uiso   1.00
Cu874  Cu    0.61978   0.16666   0.75000   0.00000  Uiso   1.00
H875   H     0.59700   0.12474   0.53923   0.00000  Uiso   1.00
H876   H     0.40189   0.20394   0.96025   0.00000  Uiso   1.00
H877   H     0.63823   0.18121   0.60902   0.00000  Uiso   1.00
H878   H     0.36150   0.15119   0.89045   0.00000  Uiso   1.00
H879   H     0.51229   0.13351   0.57784   0.00000  Uiso   1.00
H880   H     0.48681   0.19595   0.92151   0.00000  Uiso   1.00
H881   H     0.59051   0.03723   0.75072   0.00000  Uiso   1.00
H882   H     0.40945   0.29611   0.74939   0.00000  Uiso   1.00
H883   H     0.59057   0.29595   0.75064   0.00000  Uiso   1.00
H884   H     0.40940   0.03738   0.74946   0.00000  Uiso   1.00
H885   H     0.53422   0.10691   0.77828   0.00000  Uiso   1.00
H886   H     0.46586   0.22630   0.72142   0.00000  Uiso   1.00
H887   H     0.44744   0.10724   0.77908   0.00000  Uiso   1.00
H888   H     0.55258   0.22607   0.72086   0.00000  Uiso   1.00
N889   N     0.45069   0.16668   0.74999   0.00000  Uiso   1.00
N890   N     0.54931   0.16666   0.75001   0.00000  Uiso   1.00
O891   O     0.37291   0.10655   0.75000   0.00000  Uiso   1.00
O892   O     0.62709   0.22678   0.75000   0.00000  Uiso   1.00
O893   O     0.62706   0.10654   0.75001   0.00000  Uiso   1.00
O894   O     0.37294   0.22679   0.74999   0.00000  Uiso   1.00
O895   O     0.35186   0.16668   0.81491   0.00000  Uiso   1.00
O896   O     0.64814   0.16666   0.68509   0.00000  Uiso   1.00
O897   O     0.60600   0.16667   0.81492   0.00000  Uiso   1.00
O898   O     0.39400   0.16667   0.68508   0.00000  Uiso   1.00
C899   C     0.46300   0.19289   0.61512   0.00000  Uiso   1.00
N900   N     0.49098   0.20557   0.63207   0.00000  Uiso   1.00
C901   C     0.53770   0.13771   0.88396   0.00000  Uiso   1.00
N902   N     0.51021   0.12467   0.86667   0.00000  Uiso   1.00
O903   O     0.33913   0.12772   0.97640   0.00000  Uiso   1.00
C904   C     0.37524   0.10013   0.95244   0.00000  Uiso   1.00
H905   H     0.40563   0.11773   0.92959   0.00000  Uiso   1.00
H906   H     0.35992   0.07754   0.93337   0.00000  Uiso   1.00
C907   C     0.39573   0.07625   0.98500   0.00000  Uiso   1.00
H908   H     0.40962   0.09815   0.50553   0.00000  Uiso   1.00
H909   H     0.36604   0.05756   0.50730   0.00000  Uiso   1.00
C910   C     0.43738   0.04788   0.96106   0.00000  Uiso   1.00
H911   H     0.42442   0.02544   0.94043   0.00000  Uiso   1.00
H912   H     0.45085   0.03064   0.98569   0.00000  Uiso   1.00
H913   H     0.46816   0.06616   0.93975   0.00000  Uiso   1.00
O914   O     0.65894   0.19914   0.52464   0.00000  Uiso   1.00
C915   C     0.64503   0.24073   0.53220   0.00000  Uiso   1.00
H916   H     0.34421   0.26129   0.52032   0.00000  Uiso   1.00
H917   H     0.62732   0.24629   0.56802   0.00000  Uiso   1.00
C918   C     0.60832   0.25106   0.50671   0.00000  Uiso   1.00
H919   H     0.62481   0.24428   0.97106   0.00000  Uiso   1.00
H920   H     0.57514   0.23155   0.51919   0.00000  Uiso   1.00
C921   C     0.59341   0.29628   0.51186   0.00000  Uiso   1.00
H922   H     0.57619   0.30357   0.54723   0.00000  Uiso   1.00
H923   H     0.56658   0.30264   0.99319   0.00000  Uiso   1.00
H924   H     0.62586   0.31643   0.99866   0.00000  Uiso   1.00
C925   C     0.99996   0.08735   0.75004   0.00000  Uiso   1.00
C926   C     0.66670   0.24598   0.74998   0.00000  Uiso   1.00
C927   C     0.85754   0.14343   0.54373   0.00000  Uiso   1.00
C928   C     0.80846   0.18615   0.95565   0.00000  Uiso   1.00
C929   C     0.90634   0.13683   0.52108   0.00000  Uiso   1.00
C930   C     0.75958   0.19240   0.97833   0.00000  Uiso   1.00
C931   C     0.95725   0.02125   0.75042   0.00000  Uiso   1.00
C932   C     0.70938   0.31209   0.74968   0.00000  Uiso   1.00
C933   C     0.95729   0.31200   0.75037   0.00000  Uiso   1.00
C934   C     0.70935   0.02133   0.74973   0.00000  Uiso   1.00
C935   C     0.66669   0.29059   0.75000   0.00000  Uiso   1.00
C936   C     0.99995   0.04274   0.75008   0.00000  Uiso   1.00
C937   C     0.85310   0.13352   0.76565   0.00000  Uiso   1.00
C938   C     0.81360   0.19977   0.73423   0.00000  Uiso   1.00
C939   C     0.80346   0.13364   0.76593   0.00000  Uiso   1.00
C940   C     0.86321   0.19969   0.73404   0.00000  Uiso   1.00
C941   C     0.97215   0.16373   0.83569   0.00000  Uiso   1.00
C942   C     0.69453   0.16933   0.66428   0.00000  Uiso   1.00
C943   C     0.95544   0.15670   0.88390   0.00000  Uiso   1.00
C944   C     0.71122   0.17526   0.61593   0.00000  Uiso   1.00
C945   C     0.97353   0.13959   0.95282   0.00000  Uiso   1.00
C946   C     0.69288   0.18981   0.54689   0.00000  Uiso   1.00
C947   C     0.98949   0.15023   0.90762   0.00000  Uiso   1.00
C948   C     0.67707   0.18100   0.59218   0.00000  Uiso   1.00
C949   C     0.90509   0.15376   0.90633   0.00000  Uiso   1.00
C950   C     0.76163   0.17729   0.59318   0.00000  Uiso   1.00
C951   C     0.88963   0.15631   0.95262   0.00000  Uiso   1.00
C952   C     0.77683   0.17402   0.54687   0.00000  Uiso   1.00
C953   C     0.92356   0.14485   0.97575   0.00000  Uiso   1.00
C954   C     0.74274   0.18490   0.52374   0.00000  Uiso   1.00
C955   C     0.84101   0.16771   0.97651   0.00000  Uiso   1.00
C956   C     0.82526   0.16227   0.52290   0.00000  Uiso   1.00
Cu957  Cu    0.71355   0.16667   0.75000   0.00000  Uiso   1.00
Cu958  Cu    0.95311   0.16666   0.75000   0.00000  Uiso   1.00
H959   H     0.93034   0.12474   0.53923   0.00000  Uiso   1.00
H960   H     0.73523   0.20394   0.96025   0.00000  Uiso   1.00
H961   H     0.97156   0.18121   0.60902   0.00000  Uiso   1.00
H962   H     0.69483   0.15119   0.89045   0.00000  Uiso   1.00
H963   H     0.84563   0.13351   0.57784   0.00000  Uiso   1.00
H964   H     0.82014   0.19595   0.92151   0.00000  Uiso   1.00
H965   H     0.92385   0.03723   0.75072   0.00000  Uiso   1.00
H966   H     0.74279   0.29611   0.74939   0.00000  Uiso   1.00
H967   H     0.92390   0.29595   0.75064   0.00000  Uiso   1.00
H968   H     0.74274   0.03738   0.74946   0.00000  Uiso   1.00
H969   H     0.86756   0.10691   0.77828   0.00000  Uiso   1.00
H970   H     0.79919   0.22630   0.72142   0.00000  Uiso   1.00
H971   H     0.78078   0.10724   0.77908   0.00000  Uiso   1.00
H972   H     0.88591   0.22607   0.72086   0.00000  Uiso   1.00
N973   N     0.78403   0.16668   0.74999   0.00000  Uiso   1.00
N974   N     0.88264   0.16666   0.75001   0.00000  Uiso   1.00
O975   O     0.70625   0.10655   0.75000   0.00000  Uiso   1.00
O976   O     0.96042   0.22678   0.75000   0.00000  Uiso   1.00
O977   O     0.96039   0.10654   0.75001   0.00000  Uiso   1.00
O978   O     0.70628   0.22679   0.74999   0.00000  Uiso   1.00
O979   O     0.68519   0.16668   0.81491   0.00000  Uiso   1.00
O980   O     0.98148   0.16666   0.68509   0.00000  Uiso   1.00
O981   O     0.93933   0.16667   0.81492   0.00000  Uiso   1.00
O982   O     0.72733   0.16667   0.68508   0.00000  Uiso   1.00
C983   C     0.79633   0.19289   0.61512   0.00000  Uiso   1.00
N984   N     0.82432   0.20557   0.63207   0.00000  Uiso   1.00
C985   C     0.87103   0.13771   0.88396   0.00000  Uiso   1.00
N986   N     0.84354   0.12467   0.86667   0.00000  Uiso   1.00
O987   O     0.67246   0.12772   0.97640   0.00000  Uiso   1.00
C988   C     0.70857   0.10013   0.95244   0.00000  Uiso   1.00
H989   H     0.73896   0.11773   0.92959   0.00000  Uiso   1.00
H990   H     0.69325   0.07754   0.93337   0.00000  Uiso   1.00
C991   C     0.72907   0.07625   0.98500   0.00000  Uiso   1.00
H992   H     0.74295   0.09815   0.50553   0.00000  Uiso   1.00
H993   H     0.69937   0.05756   0.50730   0.00000  Uiso   1.00
C994   C     0.77071   0.04788   0.96106   0.00000  Uiso   1.00
H995   H     0.75775   0.02544   0.94043   0.00000  Uiso   1.00
H996   H     0.78419   0.03064   0.98569   0.00000  Uiso   1.00
H997   H     0.80149   0.06616   0.93975   0.00000  Uiso   1.00
O998   O     0.99228   0.19914   0.52464   0.00000  Uiso   1.00
C999   C     0.97836   0.24073   0.53220   0.00000  Uiso   1.00
H1000  H     0.67754   0.26129   0.52032   0.00000  Uiso   1.00
H1001  H     0.96065   0.24629   0.56802   0.00000  Uiso   1.00
C1002  C     0.94165   0.25106   0.50671   0.00000  Uiso   1.00
H1003  H     0.95814   0.24428   0.97106   0.00000  Uiso   1.00
H1004  H     0.90847   0.23155   0.51919   0.00000  Uiso   1.00
C1005  C     0.92675   0.29628   0.51186   0.00000  Uiso   1.00
H1006  H     0.90952   0.30357   0.54723   0.00000  Uiso   1.00
H1007  H     0.89991   0.30264   0.99319   0.00000  Uiso   1.00
H1008  H     0.95920   0.31643   0.99866   0.00000  Uiso   1.00
C1009  C     0.33330   0.42068   0.75004   0.00000  Uiso   1.00
C1010  C     0.00003   0.57932   0.74998   0.00000  Uiso   1.00
C1011  C     0.19088   0.47676   0.54373   0.00000  Uiso   1.00
C1012  C     0.14179   0.51948   0.95565   0.00000  Uiso   1.00
C1013  C     0.23967   0.47016   0.52108   0.00000  Uiso   1.00
C1014  C     0.09291   0.52573   0.97833   0.00000  Uiso   1.00
C1015  C     0.29058   0.35458   0.75042   0.00000  Uiso   1.00
C1016  C     0.04272   0.64542   0.74968   0.00000  Uiso   1.00
C1017  C     0.29062   0.64533   0.75037   0.00000  Uiso   1.00
C1018  C     0.04268   0.35467   0.74973   0.00000  Uiso   1.00
C1019  C     0.00002   0.62393   0.75000   0.00000  Uiso   1.00
C1020  C     0.33329   0.37607   0.75008   0.00000  Uiso   1.00
C1021  C     0.18643   0.46686   0.76565   0.00000  Uiso   1.00
C1022  C     0.14693   0.53310   0.73423   0.00000  Uiso   1.00
C1023  C     0.13680   0.46697   0.76593   0.00000  Uiso   1.00
C1024  C     0.19655   0.53302   0.73404   0.00000  Uiso   1.00
C1025  C     0.30548   0.49706   0.83569   0.00000  Uiso   1.00
C1026  C     0.02786   0.50267   0.66428   0.00000  Uiso   1.00
C1027  C     0.28878   0.49004   0.88390   0.00000  Uiso   1.00
C1028  C     0.04456   0.50860   0.61593   0.00000  Uiso   1.00
C1029  C     0.30686   0.47292   0.95282   0.00000  Uiso   1.00
C1030  C     0.02622   0.52314   0.54689   0.00000  Uiso   1.00
C1031  C     0.32282   0.48357   0.90762   0.00000  Uiso   1.00
C1032  C     0.01041   0.51434   0.59218   0.00000  Uiso   1.00
C1033  C     0.23843   0.48710   0.90633   0.00000  Uiso   1.00
C1034  C     0.09497   0.51062   0.59318   0.00000  Uiso   1.00
C1035  C     0.22296   0.48965   0.95262   0.00000  Uiso   1.00
C1036  C     0.11016   0.50736   0.54687   0.00000  Uiso   1.00
C1037  C     0.25689   0.47818   0.97575   0.00000  Uiso   1.00
C1038  C     0.07608   0.51824   0.52374   0.00000  Uiso   1.00
C1039  C     0.17434   0.50105   0.97651   0.00000  Uiso   1.00
C1040  C     0.15860   0.49561   0.52290   0.00000  Uiso   1.00
Cu1041 Cu    0.04689   0.50001   0.75000   0.00000  Uiso   1.00
Cu1042 Cu    0.28645   0.49999   0.75000   0.00000  Uiso   1.00
H1043  H     0.26367   0.45807   0.53923   0.00000  Uiso   1.00
H1044  H     0.06856   0.53727   0.96025   0.00000  Uiso   1.00
H1045  H     0.30490   0.51454   0.60902   0.00000  Uiso   1.00
H1046  H     0.02817   0.48452   0.89045   0.00000  Uiso   1.00
H1047  H     0.17896   0.46684   0.57784   0.00000  Uiso   1.00
H1048  H     0.15347   0.52928   0.92151   0.00000  Uiso   1.00
H1049  H     0.25718   0.37056   0.75072   0.00000  Uiso   1.00
H1050  H     0.07612   0.62944   0.74939   0.00000  Uiso   1.00
H1051  H     0.25723   0.62929   0.75064   0.00000  Uiso   1.00
H1052  H     0.07607   0.37071   0.74946   0.00000  Uiso   1.00
H1053  H     0.20089   0.44025   0.77828   0.00000  Uiso   1.00
H1054  H     0.13253   0.55964   0.72142   0.00000  Uiso   1.00
H1055  H     0.11411   0.44058   0.77908   0.00000  Uiso   1.00
H1056  H     0.21924   0.55940   0.72086   0.00000  Uiso   1.00
N1057  N     0.11736   0.50001   0.74999   0.00000  Uiso   1.00
N1058  N     0.21597   0.49999   0.75001   0.00000  Uiso   1.00
O1059  O     0.03958   0.43989   0.75000   0.00000  Uiso   1.00
O1060  O     0.29375   0.56011   0.75000   0.00000  Uiso   1.00
O1061  O     0.29372   0.43988   0.75001   0.00000  Uiso   1.00
O1062  O     0.03961   0.56012   0.74999   0.00000  Uiso   1.00
O1063  O     0.01852   0.50001   0.81491   0.00000  Uiso   1.00
O1064  O     0.31481   0.49999   0.68509   0.00000  Uiso   1.00
O1065  O     0.27267   0.50000   0.81492   0.00000  Uiso   1.00
O1066  O     0.06067   0.50000   0.68508   0.00000  Uiso   1.00
C1067  C     0.12966   0.52622   0.61512   0.00000  Uiso   1.00
N1068  N     0.15765   0.53890   0.63207   0.00000  Uiso   1.00
C1069  C     0.20436   0.47105   0.88396   0.00000  Uiso   1.00
N1070  N     0.17688   0.45801   0.86667   0.00000  Uiso   1.00
O1071  O     0.00580   0.46105   0.97640   0.00000  Uiso   1.00
C1072  C     0.04190   0.43346   0.95244   0.00000  Uiso   1.00
H1073  H     0.07230   0.45106   0.92959   0.00000  Uiso   1.00
H1074  H     0.02659   0.41087   0.93337   0.00000  Uiso   1.00
C1075  C     0.06240   0.40958   0.98500   0.00000  Uiso   1.00
H1076  H     0.07629   0.43148   0.50553   0.00000  Uiso   1.00
H1077  H     0.03270   0.39089   0.50730   0.00000  Uiso   1.00
C1078  C     0.10404   0.38121   0.96106   0.00000  Uiso   1.00
H1079  H     0.09108   0.35877   0.94043   0.00000  Uiso   1.00
H1080  H     0.11752   0.36397   0.98569   0.00000  Uiso   1.00
H1081  H     0.13483   0.39949   0.93975   0.00000  Uiso   1.00
O1082  O     0.32561   0.53247   0.52464   0.00000  Uiso   1.00
C1083  C     0.31170   0.57407   0.53220   0.00000  Uiso   1.00
H1084  H     0.01088   0.59462   0.52032   0.00000  Uiso   1.00
H1085  H     0.29398   0.57962   0.56802   0.00000  Uiso   1.00
C1086  C     0.27498   0.58439   0.50671   0.00000  Uiso   1.00
H1087  H     0.29147   0.57762   0.97106   0.00000  Uiso   1.00
H1088  H     0.24181   0.56489   0.51919   0.00000  Uiso   1.00
C1089  C     0.26008   0.62961   0.51186   0.00000  Uiso   1.00
H1090  H     0.24285   0.63690   0.54723   0.00000  Uiso   1.00
H1091  H     0.23325   0.63597   0.99319   0.00000  Uiso   1.00
H1092  H     0.29253   0.64976   0.99866   0.00000  Uiso   1.00
C1093  C     0.66663   0.42068   0.75004   0.00000  Uiso   1.00
C1094  C     0.33336   0.57932   0.74998   0.00000  Uiso   1.00
C1095  C     0.52421   0.47676   0.54373   0.00000  Uiso   1.00
C1096  C     0.47513   0.51948   0.95565   0.00000  Uiso   1.00
C1097  C     0.57301   0.47016   0.52108   0.00000  Uiso   1.00
C1098  C     0.42625   0.52573   0.97833   0.00000  Uiso   1.00
C1099  C     0.62392   0.35458   0.75042   0.00000  Uiso   1.00
C1100  C     0.37605   0.64542   0.74968   0.00000  Uiso   1.00
C1101  C     0.62395   0.64533   0.75037   0.00000  Uiso   1.00
C1102  C     0.37601   0.35467   0.74973   0.00000  Uiso   1.00
C1103  C     0.33335   0.62393   0.75000   0.00000  Uiso   1.00
C1104  C     0.66662   0.37607   0.75008   0.00000  Uiso   1.00
C1105  C     0.51976   0.46686   0.76565   0.00000  Uiso   1.00
C1106  C     0.48027   0.53310   0.73423   0.00000  Uiso   1.00
C1107  C     0.47013   0.46697   0.76593   0.00000  Uiso   1.00
C1108  C     0.52988   0.53302   0.73404   0.00000  Uiso   1.00
C1109  C     0.63882   0.49706   0.83569   0.00000  Uiso   1.00
C1110  C     0.36120   0.50267   0.66428   0.00000  Uiso   1.00
C1111  C     0.62211   0.49004   0.88390   0.00000  Uiso   1.00
C1112  C     0.37789   0.50860   0.61593   0.00000  Uiso   1.00
C1113  C     0.64019   0.47292   0.95282   0.00000  Uiso   1.00
C1114  C     0.35955   0.52314   0.54689   0.00000  Uiso   1.00
C1115  C     0.65616   0.48357   0.90762   0.00000  Uiso   1.00
C1116  C     0.34374   0.51434   0.59218   0.00000  Uiso   1.00
C1117  C     0.57176   0.48710   0.90633   0.00000  Uiso   1.00
C1118  C     0.42830   0.51062   0.59318   0.00000  Uiso   1.00
C1119  C     0.55630   0.48965   0.95262   0.00000  Uiso   1.00
C1120  C     0.44349   0.50736   0.54687   0.00000  Uiso   1.00
C1121  C     0.59023   0.47818   0.97575   0.00000  Uiso   1.00
C1122  C     0.40941   0.51824   0.52374   0.00000  Uiso   1.00
C1123  C     0.50768   0.50105   0.97651   0.00000  Uiso   1.00
C1124  C     0.49193   0.49561   0.52290   0.00000  Uiso   1.00
Cu1125 Cu    0.38022   0.50001   0.75000   0.00000  Uiso   1.00
Cu1126 Cu    0.61978   0.49999   0.75000   0.00000  Uiso   1.00
H1127  H     0.59700   0.45807   0.53923   0.00000  Uiso   1.00
H1128  H     0.40189   0.53727   0.96025   0.00000  Uiso   1.00
H1129  H     0.63823   0.51454   0.60902   0.00000  Uiso   1.00
H1130  H     0.36150   0.48452   0.89045   0.00000  Uiso   1.00
H1131  H     0.51229   0.46684   0.57784   0.00000  Uiso   1.00
H1132  H     0.48681   0.52928   0.92151   0.00000  Uiso   1.00
H1133  H     0.59051   0.37056   0.75072   0.00000  Uiso   1.00
H1134  H     0.40945   0.62944   0.74939   0.00000  Uiso   1.00
H1135  H     0.59057   0.62929   0.75064   0.00000  Uiso   1.00
H1136  H     0.40940   0.37071   0.74946   0.00000  Uiso   1.00
H1137  H     0.53422   0.44025   0.77828   0.00000  Uiso   1.00
H1138  H     0.46586   0.55964   0.72142   0.00000  Uiso   1.00
H1139  H     0.44744   0.44058   0.77908   0.00000  Uiso   1.00
H1140  H     0.55258   0.55940   0.72086   0.00000  Uiso   1.00
N1141  N     0.45069   0.50001   0.74999   0.00000  Uiso   1.00
N1142  N     0.54931   0.49999   0.75001   0.00000  Uiso   1.00
O1143  O     0.37291   0.43989   0.75000   0.00000  Uiso   1.00
O1144  O     0.62709   0.56011   0.75000   0.00000  Uiso   1.00
O1145  O     0.62706   0.43988   0.75001   0.00000  Uiso   1.00
O1146  O     0.37294   0.56012   0.74999   0.00000  Uiso   1.00
O1147  O     0.35186   0.50001   0.81491   0.00000  Uiso   1.00
O1148  O     0.64814   0.49999   0.68509   0.00000  Uiso   1.00
O1149  O     0.60600   0.50000   0.81492   0.00000  Uiso   1.00
O1150  O     0.39400   0.50000   0.68508   0.00000  Uiso   1.00
C1151  C     0.46300   0.52622   0.61512   0.00000  Uiso   1.00
N1152  N     0.49098   0.53890   0.63207   0.00000  Uiso   1.00
C1153  C     0.53770   0.47105   0.88396   0.00000  Uiso   1.00
N1154  N     0.51021   0.45801   0.86667   0.00000  Uiso   1.00
O1155  O     0.33913   0.46105   0.97640   0.00000  Uiso   1.00
C1156  C     0.37524   0.43346   0.95244   0.00000  Uiso   1.00
H1157  H     0.40563   0.45106   0.92959   0.00000  Uiso   1.00
H1158  H     0.35992   0.41087   0.93337   0.00000  Uiso   1.00
C1159  C     0.39573   0.40958   0.98500   0.00000  Uiso   1.00
H1160  H     0.40962   0.43148   0.50553   0.00000  Uiso   1.00
H1161  H     0.36604   0.39089   0.50730   0.00000  Uiso   1.00
C1162  C     0.43738   0.38121   0.96106   0.00000  Uiso   1.00
H1163  H     0.42442   0.35877   0.94043   0.00000  Uiso   1.00
H1164  H     0.45085   0.36397   0.98569   0.00000  Uiso   1.00
H1165  H     0.46816   0.39949   0.93975   0.00000  Uiso   1.00
O1166  O     0.65894   0.53247   0.52464   0.00000  Uiso   1.00
C1167  C     0.64503   0.57407   0.53220   0.00000  Uiso   1.00
H1168  H     0.34421   0.59462   0.52032   0.00000  Uiso   1.00
H1169  H     0.62732   0.57962   0.56802   0.00000  Uiso   1.00
C1170  C     0.60832   0.58439   0.50671   0.00000  Uiso   1.00
H1171  H     0.62481   0.57762   0.97106   0.00000  Uiso   1.00
H1172  H     0.57514   0.56489   0.51919   0.00000  Uiso   1.00
C1173  C     0.59341   0.62961   0.51186   0.00000  Uiso   1.00
H1174  H     0.57619   0.63690   0.54723   0.00000  Uiso   1.00
H1175  H     0.56658   0.63597   0.99319   0.00000  Uiso   1.00
H1176  H     0.62586   0.64976   0.99866   0.00000  Uiso   1.00
C1177  C     0.99996   0.42068   0.75004   0.00000  Uiso   1.00
C1178  C     0.66670   0.57932   0.74998   0.00000  Uiso   1.00
C1179  C     0.85754   0.47676   0.54373   0.00000  Uiso   1.00
C1180  C     0.80846   0.51948   0.95565   0.00000  Uiso   1.00
C1181  C     0.90634   0.47016   0.52108   0.00000  Uiso   1.00
C1182  C     0.75958   0.52573   0.97833   0.00000  Uiso   1.00
C1183  C     0.95725   0.35458   0.75042   0.00000  Uiso   1.00
C1184  C     0.70938   0.64542   0.74968   0.00000  Uiso   1.00
C1185  C     0.95729   0.64533   0.75037   0.00000  Uiso   1.00
C1186  C     0.70935   0.35467   0.74973   0.00000  Uiso   1.00
C1187  C     0.66669   0.62393   0.75000   0.00000  Uiso   1.00
C1188  C     0.99995   0.37607   0.75008   0.00000  Uiso   1.00
C1189  C     0.85310   0.46686   0.76565   0.00000  Uiso   1.00
C1190  C     0.81360   0.53310   0.73423   0.00000  Uiso   1.00
C1191  C     0.80346   0.46697   0.76593   0.00000  Uiso   1.00
C1192  C     0.86321   0.53302   0.73404   0.00000  Uiso   1.00
C1193  C     0.97215   0.49706   0.83569   0.00000  Uiso   1.00
C1194  C     0.69453   0.50267   0.66428   0.00000  Uiso   1.00
C1195  C     0.95544   0.49004   0.88390   0.00000  Uiso   1.00
C1196  C     0.71122   0.50860   0.61593   0.00000  Uiso   1.00
C1197  C     0.97353   0.47292   0.95282   0.00000  Uiso   1.00
C1198  C     0.69288   0.52314   0.54689   0.00000  Uiso   1.00
C1199  C     0.98949   0.48357   0.90762   0.00000  Uiso   1.00
C1200  C     0.67707   0.51434   0.59218   0.00000  Uiso   1.00
C1201  C     0.90509   0.48710   0.90633   0.00000  Uiso   1.00
C1202  C     0.76163   0.51062   0.59318   0.00000  Uiso   1.00
C1203  C     0.88963   0.48965   0.95262   0.00000  Uiso   1.00
C1204  C     0.77683   0.50736   0.54687   0.00000  Uiso   1.00
C1205  C     0.92356   0.47818   0.97575   0.00000  Uiso   1.00
C1206  C     0.74274   0.51824   0.52374   0.00000  Uiso   1.00
C1207  C     0.84101   0.50105   0.97651   0.00000  Uiso   1.00
C1208  C     0.82526   0.49561   0.52290   0.00000  Uiso   1.00
Cu1209 Cu    0.71355   0.50001   0.75000   0.00000  Uiso   1.00
Cu1210 Cu    0.95311   0.49999   0.75000   0.00000  Uiso   1.00
H1211  H     0.93034   0.45807   0.53923   0.00000  Uiso   1.00
H1212  H     0.73523   0.53727   0.96025   0.00000  Uiso   1.00
H1213  H     0.97156   0.51454   0.60902   0.00000  Uiso   1.00
H1214  H     0.69483   0.48452   0.89045   0.00000  Uiso   1.00
H1215  H     0.84563   0.46684   0.57784   0.00000  Uiso   1.00
H1216  H     0.82014   0.52928   0.92151   0.00000  Uiso   1.00
H1217  H     0.92385   0.37056   0.75072   0.00000  Uiso   1.00
H1218  H     0.74279   0.62944   0.74939   0.00000  Uiso   1.00
H1219  H     0.92390   0.62929   0.75064   0.00000  Uiso   1.00
H1220  H     0.74274   0.37071   0.74946   0.00000  Uiso   1.00
H1221  H     0.86756   0.44025   0.77828   0.00000  Uiso   1.00
H1222  H     0.79919   0.55964   0.72142   0.00000  Uiso   1.00
H1223  H     0.78078   0.44058   0.77908   0.00000  Uiso   1.00
H1224  H     0.88591   0.55940   0.72086   0.00000  Uiso   1.00
N1225  N     0.78403   0.50001   0.74999   0.00000  Uiso   1.00
N1226  N     0.88264   0.49999   0.75001   0.00000  Uiso   1.00
O1227  O     0.70625   0.43989   0.75000   0.00000  Uiso   1.00
O1228  O     0.96042   0.56011   0.75000   0.00000  Uiso   1.00
O1229  O     0.96039   0.43988   0.75001   0.00000  Uiso   1.00
O1230  O     0.70628   0.56012   0.74999   0.00000  Uiso   1.00
O1231  O     0.68519   0.50001   0.81491   0.00000  Uiso   1.00
O1232  O     0.98148   0.49999   0.68509   0.00000  Uiso   1.00
O1233  O     0.93933   0.50000   0.81492   0.00000  Uiso   1.00
O1234  O     0.72733   0.50000   0.68508   0.00000  Uiso   1.00
C1235  C     0.79633   0.52622   0.61512   0.00000  Uiso   1.00
N1236  N     0.82432   0.53890   0.63207   0.00000  Uiso   1.00
C1237  C     0.87103   0.47105   0.88396   0.00000  Uiso   1.00
N1238  N     0.84354   0.45801   0.86667   0.00000  Uiso   1.00
O1239  O     0.67246   0.46105   0.97640   0.00000  Uiso   1.00
C1240  C     0.70857   0.43346   0.95244   0.00000  Uiso   1.00
H1241  H     0.73896   0.45106   0.92959   0.00000  Uiso   1.00
H1242  H     0.69325   0.41087   0.93337   0.00000  Uiso   1.00
C1243  C     0.72907   0.40958   0.98500   0.00000  Uiso   1.00
H1244  H     0.74295   0.43148   0.50553   0.00000  Uiso   1.00
H1245  H     0.69937   0.39089   0.50730   0.00000  Uiso   1.00
C1246  C     0.77071   0.38121   0.96106   0.00000  Uiso   1.00
H1247  H     0.75775   0.35877   0.94043   0.00000  Uiso   1.00
H1248  H     0.78419   0.36397   0.98569   0.00000  Uiso   1.00
H1249  H     0.80149   0.39949   0.93975   0.00000  Uiso   1.00
O1250  O     0.99228   0.53247   0.52464   0.00000  Uiso   1.00
C1251  C     0.97836   0.57407   0.53220   0.00000  Uiso   1.00
H1252  H     0.67754   0.59462   0.52032   0.00000  Uiso   1.00
H1253  H     0.96065   0.57962   0.56802   0.00000  Uiso   1.00
C1254  C     0.94165   0.58439   0.50671   0.00000  Uiso   1.00
H1255  H     0.95814   0.57762   0.97106   0.00000  Uiso   1.00
H1256  H     0.90847   0.56489   0.51919   0.00000  Uiso   1.00
C1257  C     0.92675   0.62961   0.51186   0.00000  Uiso   1.00
H1258  H     0.90952   0.63690   0.54723   0.00000  Uiso   1.00
H1259  H     0.89991   0.63597   0.99319   0.00000  Uiso   1.00
H1260  H     0.95920   0.64976   0.99866   0.00000  Uiso   1.00
C1261  C     0.33330   0.75402   0.75004   0.00000  Uiso   1.00
C1262  C     0.00003   0.91265   0.74998   0.00000  Uiso   1.00
C1263  C     0.19088   0.81010   0.54373   0.00000  Uiso   1.00
C1264  C     0.14179   0.85282   0.95565   0.00000  Uiso   1.00
C1265  C     0.23967   0.80349   0.52108   0.00000  Uiso   1.00
C1266  C     0.09291   0.85907   0.97833   0.00000  Uiso   1.00
C1267  C     0.29058   0.68791   0.75042   0.00000  Uiso   1.00
C1268  C     0.04272   0.97875   0.74968   0.00000  Uiso   1.00
C1269  C     0.29062   0.97867   0.75037   0.00000  Uiso   1.00
C1270  C     0.04268   0.68800   0.74973   0.00000  Uiso   1.00
C1271  C     0.00002   0.95726   0.75000   0.00000  Uiso   1.00
C1272  C     0.33329   0.70941   0.75008   0.00000  Uiso   1.00
C1273  C     0.18643   0.80019   0.76565   0.00000  Uiso   1.00
C1274  C     0.14693   0.86643   0.73423   0.00000  Uiso   1.00
C1275  C     0.13680   0.80030   0.76593   0.00000  Uiso   1.00
C1276  C     0.19655   0.86635   0.73404   0.00000  Uiso   1.00
C1277  C     0.30548   0.83039   0.83569   0.00000  Uiso   1.00
C1278  C     0.02786   0.83600   0.66428   0.00000  Uiso   1.00
C1279  C     0.28878   0.82337   0.88390   0.00000  Uiso   1.00
C1280  C     0.04456   0.84193   0.61593   0.00000  Uiso   1.00
C1281  C     0.30686   0.80625   0.95282   0.00000  Uiso   1.00
C1282  C     0.02622   0.85648   0.54689   0.00000  Uiso   1.00
C1283  C     0.32282   0.81690   0.90762   0.00000  Uiso   1.00
C1284  C     0.01041   0.84767   0.59218   0.00000  Uiso   1.00
C1285  C     0.23843   0.82043   0.90633   0.00000  Uiso   1.00
C1286  C     0.09497   0.84395   0.59318   0.00000  Uiso   1.00
C1287  C     0.22296   0.82298   0.95262   0.00000  Uiso   1.00
C1288  C     0.11016   0.84069   0.54687   0.00000  Uiso   1.00
C1289  C     0.25689   0.81152   0.97575   0.00000  Uiso   1.00
C1290  C     0.07608   0.85157   0.52374   0.00000  Uiso   1.00
C1291  C     0.17434   0.83438   0.97651   0.00000  Uiso   1.00
C1292  C     0.15860   0.82894   0.52290   0.00000  Uiso   1.00
Cu1293 Cu    0.04689   0.83334   0.75000   0.00000  Uiso   1.00
Cu1294 Cu    0.28645   0.83333   0.75000   0.00000  Uiso   1.00
H1295  H     0.26367   0.79141   0.53923   0.00000  Uiso   1.00
H1296  H     0.06856   0.87061   0.96025   0.00000  Uiso   1.00
H1297  H     0.30490   0.84787   0.60902   0.00000  Uiso   1.00
H1298  H     0.02817   0.81785   0.89045   0.00000  Uiso   1.00
H1299  H     0.17896   0.80018   0.57784   0.00000  Uiso   1.00
H1300  H     0.15347   0.86262   0.92151   0.00000  Uiso   1.00
H1301  H     0.25718   0.70389   0.75072   0.00000  Uiso   1.00
H1302  H     0.07612   0.96277   0.74939   0.00000  Uiso   1.00
H1303  H     0.25723   0.96262   0.75064   0.00000  Uiso   1.00
H1304  H     0.07607   0.70405   0.74946   0.00000  Uiso   1.00
H1305  H     0.20089   0.77358   0.77828   0.00000  Uiso   1.00
H1306  H     0.13253   0.89297   0.72142   0.00000  Uiso   1.00
H1307  H     0.11411   0.77391   0.77908   0.00000  Uiso   1.00
H1308  H     0.21924   0.89273   0.72086   0.00000  Uiso   1.00
N1309  N     0.11736   0.83334   0.74999   0.00000  Uiso   1.00
N1310  N     0.21597   0.83332   0.75001   0.00000  Uiso   1.00
O1311  O     0.03958   0.77322   0.75000   0.00000  Uiso   1.00
O1312  O     0.29375   0.89345   0.75000   0.00000  Uiso   1.00
O1313  O     0.29372   0.77321   0.75001   0.00000  Uiso   1.00
O1314  O     0.03961   0.89346   0.74999   0.00000  Uiso   1.00
O1315  O     0.01852   0.83334   0.81491   0.00000  Uiso   1.00
O1316  O     0.31481   0.83332   0.68509   0.00000  Uiso   1.00
O1317  O     0.27267   0.83333   0.81492   0.00000  Uiso   1.00
O1318  O     0.06067   0.83333   0.68508   0.00000  Uiso   1.00
C1319  C     0.12966   0.85955   0.61512   0.00000  Uiso   1.00
N1320  N     0.15765   0.87223   0.63207   0.00000  Uiso   1.00
C1321  C     0.20436   0.80438   0.88396   0.00000  Uiso   1.00
N1322  N     0.17688   0.79134   0.86667   0.00000  Uiso   1.00
O1323  O     0.00580   0.79439   0.97640   0.00000  Uiso   1.00
C1324  C     0.04190   0.76680   0.95244   0.00000  Uiso   1.00
H1325  H     0.07230   0.78439   0.92959   0.00000  Uiso   1.00
H1326  H     0.02659   0.74421   0.93337   0.00000  Uiso   1.00
C1327  C     0.06240   0.74292   0.98500   0.00000  Uiso   1.00
H1328  H     0.07629   0.76482   0.50553   0.00000  Uiso   1.00
H1329  H     0.03270   0.72422   0.50730   0.00000  Uiso   1.00
C1330  C     0.10404   0.71454   0.96106   0.00000  Uiso   1.00
H1331  H     0.09108   0.69211   0.94043   0.00000  Uiso   1.00
H1332  H     0.11752   0.69730   0.98569   0.00000  Uiso   1.00
H1333  H     0.13483   0.73282   0.93975   0.00000  Uiso   1.00
O1334  O     0.32561   0.86581   0.52464   0.00000  Uiso   1.00
C1335  C     0.31170   0.90740   0.53220   0.00000  Uiso   1.00
H1336  H     0.01088   0.92796   0.52032   0.00000  Uiso   1.00
H1337  H     0.29398   0.91296   0.56802   0.00000  Uiso   1.00
C1338  C     0.27498   0.91772   0.50671   0.00000  Uiso   1.00
H1339  H     0.29147   0.91095   0.97106   0.00000  Uiso   1.00
H1340  H     0.24181   0.89822   0.51919   0.00000  Uiso   1.00
C1341  C     0.26008   0.96295   0.51186   0.00000  Uiso   1.00
H1342  H     0.24285   0.97024   0.54723   0.00000  Uiso   1.00
H1343  H     0.23325   0.96930   0.99319   0.00000  Uiso   1.00
H1344  H     0.29253   0.98310   0.99866   0.00000  Uiso   1.00
C1345  C     0.66663   0.75402   0.75004   0.00000  Uiso   1.00
C1346  C     0.33336   0.91265   0.74998   0.00000  Uiso   1.00
C1347  C     0.52421   0.81010   0.54373   0.00000  Uiso   1.00
C1348  C     0.47513   0.85282   0.95565   0.00000  Uiso   1.00
C1349  C     0.57301   0.80349   0.52108   0.00000  Uiso   1.00
C1350  C     0.42625   0.85907   0.97833   0.00000  Uiso   1.00
C1351  C     0.62392   0.68791   0.75042   0.00000  Uiso   1.00
C1352  C     0.37605   0.97875   0.74968   0.00000  Uiso   1.00
C1353  C     0.62395   0.97867   0.75037   0.00000  Uiso   1.00
C1354  C     0.37601   0.68800   0.74973   0.00000  Uiso   1.00
C1355  C     0.33335   0.95726   0.75000   0.00000  Uiso   1.00
C1356  C     0.66662   0.70941   0.75008   0.00000  Uiso   1.00
C1357  C     0.51976   0.80019   0.76565   0.00000  Uiso   1.00
C1358  C     0.48027   0.86643   0.73423   0.00000  Uiso   1.00
C1359  C     0.47013   0.80030   0.76593   0.00000  Uiso   1.00
C1360  C     0.52988   0.86635   0.73404   0.00000  Uiso   1.00
C1361  C     0.63882   0.83039   0.83569   0.00000  Uiso   1.00
C1362  C     0.36120   0.83600   0.66428   0.00000  Uiso   1.00
C1363  C     0.62211   0.82337   0.88390   0.00000  Uiso   1.00
C1364  C     0.37789   0.84193   0.61593   0.00000  Uiso   1.00
C1365  C     0.64019   0.80625   0.95282   0.00000  Uiso   1.00
C1366  C     0.35955   0.85648   0.54689   0.00000  Uiso   1.00
C1367  C     0.65616   0.81690   0.90762   0.00000  Uiso   1.00
C1368  C     0.34374   0.84767   0.59218   0.00000  Uiso   1.00
C1369  C     0.57176   0.82043   0.90633   0.00000  Uiso   1.00
C1370  C     0.42830   0.84395   0.59318   0.00000  Uiso   1.00
C1371  C     0.55630   0.82298   0.95262   0.00000  Uiso   1.00
C1372  C     0.44349   0.84069   0.54687   0.00000  Uiso   1.00
C1373  C     0.59023   0.81152   0.97575   0.00000  Uiso   1.00
C1374  C     0.40941   0.85157   0.52374   0.00000  Uiso   1.00
C1375  C     0.50768   0.83438   0.97651   0.00000  Uiso   1.00
C1376  C     0.49193   0.82894   0.52290   0.00000  Uiso   1.00
Cu1377 Cu    0.38022   0.83334   0.75000   0.00000  Uiso   1.00
Cu1378 Cu    0.61978   0.83333   0.75000   0.00000  Uiso   1.00
H1379  H     0.59700   0.79141   0.53923   0.00000  Uiso   1.00
H1380  H     0.40189   0.87061   0.96025   0.00000  Uiso   1.00
H1381  H     0.63823   0.84787   0.60902   0.00000  Uiso   1.00
H1382  H     0.36150   0.81785   0.89045   0.00000  Uiso   1.00
H1383  H     0.51229   0.80018   0.57784   0.00000  Uiso   1.00
H1384  H     0.48681   0.86262   0.92151   0.00000  Uiso   1.00
H1385  H     0.59051   0.70389   0.75072   0.00000  Uiso   1.00
H1386  H     0.40945   0.96277   0.74939   0.00000  Uiso   1.00
H1387  H     0.59057   0.96262   0.75064   0.00000  Uiso   1.00
H1388  H     0.40940   0.70405   0.74946   0.00000  Uiso   1.00
H1389  H     0.53422   0.77358   0.77828   0.00000  Uiso   1.00
H1390  H     0.46586   0.89297   0.72142   0.00000  Uiso   1.00
H1391  H     0.44744   0.77391   0.77908   0.00000  Uiso   1.00
H1392  H     0.55258   0.89273   0.72086   0.00000  Uiso   1.00
N1393  N     0.45069   0.83334   0.74999   0.00000  Uiso   1.00
N1394  N     0.54931   0.83332   0.75001   0.00000  Uiso   1.00
O1395  O     0.37291   0.77322   0.75000   0.00000  Uiso   1.00
O1396  O     0.62709   0.89345   0.75000   0.00000  Uiso   1.00
O1397  O     0.62706   0.77321   0.75001   0.00000  Uiso   1.00
O1398  O     0.37294   0.89346   0.74999   0.00000  Uiso   1.00
O1399  O     0.35186   0.83334   0.81491   0.00000  Uiso   1.00
O1400  O     0.64814   0.83332   0.68509   0.00000  Uiso   1.00
O1401  O     0.60600   0.83333   0.81492   0.00000  Uiso   1.00
O1402  O     0.39400   0.83333   0.68508   0.00000  Uiso   1.00
C1403  C     0.46300   0.85955   0.61512   0.00000  Uiso   1.00
N1404  N     0.49098   0.87223   0.63207   0.00000  Uiso   1.00
C1405  C     0.53770   0.80438   0.88396   0.00000  Uiso   1.00
N1406  N     0.51021   0.79134   0.86667   0.00000  Uiso   1.00
O1407  O     0.33913   0.79439   0.97640   0.00000  Uiso   1.00
C1408  C     0.37524   0.76680   0.95244   0.00000  Uiso   1.00
H1409  H     0.40563   0.78439   0.92959   0.00000  Uiso   1.00
H1410  H     0.35992   0.74421   0.93337   0.00000  Uiso   1.00
C1411  C     0.39573   0.74292   0.98500   0.00000  Uiso   1.00
H1412  H     0.40962   0.76482   0.50553   0.00000  Uiso   1.00
H1413  H     0.36604   0.72422   0.50730   0.00000  Uiso   1.00
C1414  C     0.43738   0.71454   0.96106   0.00000  Uiso   1.00
H1415  H     0.42442   0.69211   0.94043   0.00000  Uiso   1.00
H1416  H     0.45085   0.69730   0.98569   0.00000  Uiso   1.00
H1417  H     0.46816   0.73282   0.93975   0.00000  Uiso   1.00
O1418  O     0.65894   0.86581   0.52464   0.00000  Uiso   1.00
C1419  C     0.64503   0.90740   0.53220   0.00000  Uiso   1.00
H1420  H     0.34421   0.92796   0.52032   0.00000  Uiso   1.00
H1421  H     0.62732   0.91296   0.56802   0.00000  Uiso   1.00
C1422  C     0.60832   0.91772   0.50671   0.00000  Uiso   1.00
H1423  H     0.62481   0.91095   0.97106   0.00000  Uiso   1.00
H1424  H     0.57514   0.89822   0.51919   0.00000  Uiso   1.00
C1425  C     0.59341   0.96295   0.51186   0.00000  Uiso   1.00
H1426  H     0.57619   0.97024   0.54723   0.00000  Uiso   1.00
H1427  H     0.56658   0.96930   0.99319   0.00000  Uiso   1.00
H1428  H     0.62586   0.98310   0.99866   0.00000  Uiso   1.00
C1429  C     0.99996   0.75402   0.75004   0.00000  Uiso   1.00
C1430  C     0.66670   0.91265   0.74998   0.00000  Uiso   1.00
C1431  C     0.85754   0.81010   0.54373   0.00000  Uiso   1.00
C1432  C     0.80846   0.85282   0.95565   0.00000  Uiso   1.00
C1433  C     0.90634   0.80349   0.52108   0.00000  Uiso   1.00
C1434  C     0.75958   0.85907   0.97833   0.00000  Uiso   1.00
C1435  C     0.95725   0.68791   0.75042   0.00000  Uiso   1.00
C1436  C     0.70938   0.97875   0.74968   0.00000  Uiso   1.00
C1437  C     0.95729   0.97867   0.75037   0.00000  Uiso   1.00
C1438  C     0.70935   0.68800   0.74973   0.00000  Uiso   1.00
C1439  C     0.66669   0.95726   0.75000   0.00000  Uiso   1.00
C1440  C     0.99995   0.70941   0.75008   0.00000  Uiso   1.00
C1441  C     0.85310   0.80019   0.76565   0.00000  Uiso   1.00
C1442  C     0.81360   0.86643   0.73423   0.00000  Uiso   1.00
C1443  C     0.80346   0.80030   0.76593   0.00000  Uiso   1.00
C1444  C     0.86321   0.86635   0.73404   0.00000  Uiso   1.00
C1445  C     0.97215   0.83039   0.83569   0.00000  Uiso   1.00
C1446  C     0.69453   0.83600   0.66428   0.00000  Uiso   1.00
C1447  C     0.95544   0.82337   0.88390   0.00000  Uiso   1.00
C1448  C     0.71122   0.84193   0.61593   0.00000  Uiso   1.00
C1449  C     0.97353   0.80625   0.95282   0.00000  Uiso   1.00
C1450  C     0.69288   0.85648   0.54689   0.00000  Uiso   1.00
C1451  C     0.98949   0.81690   0.90762   0.00000  Uiso   1.00
C1452  C     0.67707   0.84767   0.59218   0.00000  Uiso   1.00
C1453  C     0.90509   0.82043   0.90633   0.00000  Uiso   1.00
C1454  C     0.76163   0.84395   0.59318   0.00000  Uiso   1.00
C1455  C     0.88963   0.82298   0.95262   0.00000  Uiso   1.00
C1456  C     0.77683   0.84069   0.54687   0.00000  Uiso   1.00
C1457  C     0.92356   0.81152   0.97575   0.00000  Uiso   1.00
C1458  C     0.74274   0.85157   0.52374   0.00000  Uiso   1.00
C1459  C     0.84101   0.83438   0.97651   0.00000  Uiso   1.00
C1460  C     0.82526   0.82894   0.52290   0.00000  Uiso   1.00
Cu1461 Cu    0.71355   0.83334   0.75000   0.00000  Uiso   1.00
Cu1462 Cu    0.95311   0.83333   0.75000   0.00000  Uiso   1.00
H1463  H     0.93034   0.79141   0.53923   0.00000  Uiso   1.00
H1464  H     0.73523   0.87061   0.96025   0.00000  Uiso   1.00
H1465  H     0.97156   0.84787   0.60902   0.00000  Uiso   1.00
H1466  H     0.69483   0.81785   0.89045   0.00000  Uiso   1.00
H1467  H     0.84563   0.80018   0.57784   0.00000  Uiso   1.00
H1468  H     0.82014   0.86262   0.92151   0.00000  Uiso   1.00
H1469  H     0.92385   0.70389   0.75072   0.00000  Uiso   1.00
H1470  H     0.74279   0.96277   0.74939   0.00000  Uiso   1.00
H1471  H     0.92390   0.96262   0.75064   0.00000  Uiso   1.00
H1472  H     0.74274   0.70405   0.74946   0.00000  Uiso   1.00
H1473  H     0.86756   0.77358   0.77828   0.00000  Uiso   1.00
H1474  H     0.79919   0.89297   0.72142   0.00000  Uiso   1.00
H1475  H     0.78078   0.77391   0.77908   0.00000  Uiso   1.00
H1476  H     0.88591   0.89273   0.72086   0.00000  Uiso   1.00
N1477  N     0.78403   0.83334   0.74999   0.00000  Uiso   1.00
N1478  N     0.88264   0.83332   0.75001   0.00000  Uiso   1.00
O1479  O     0.70625   0.77322   0.75000   0.00000  Uiso   1.00
O1480  O     0.96042   0.89345   0.75000   0.00000  Uiso   1.00
O1481  O     0.96039   0.77321   0.75001   0.00000  Uiso   1.00
O1482  O     0.70628   0.89346   0.74999   0.00000  Uiso   1.00
O1483  O     0.68519   0.83334   0.81491   0.00000  Uiso   1.00
O1484  O     0.98148   0.83332   0.68509   0.00000  Uiso   1.00
O1485  O     0.93933   0.83333   0.81492   0.00000  Uiso   1.00
O1486  O     0.72733   0.83333   0.68508   0.00000  Uiso   1.00
C1487  C     0.79633   0.85955   0.61512   0.00000  Uiso   1.00
N1488  N     0.82432   0.87223   0.63207   0.00000  Uiso   1.00
C1489  C     0.87103   0.80438   0.88396   0.00000  Uiso   1.00
N1490  N     0.84354   0.79134   0.86667   0.00000  Uiso   1.00
O1491  O     0.67246   0.79439   0.97640   0.00000  Uiso   1.00
C1492  C     0.70857   0.76680   0.95244   0.00000  Uiso   1.00
H1493  H     0.73896   0.78439   0.92959   0.00000  Uiso   1.00
H1494  H     0.69325   0.74421   0.93337   0.00000  Uiso   1.00
C1495  C     0.72907   0.74292   0.98500   0.00000  Uiso   1.00
H1496  H     0.74295   0.76482   0.50553   0.00000  Uiso   1.00
H1497  H     0.69937   0.72422   0.50730   0.00000  Uiso   1.00
C1498  C     0.77071   0.71454   0.96106   0.00000  Uiso   1.00
H1499  H     0.75775   0.69211   0.94043   0.00000  Uiso   1.00
H1500  H     0.78419   0.69730   0.98569   0.00000  Uiso   1.00
H1501  H     0.80149   0.73282   0.93975   0.00000  Uiso   1.00
O1502  O     0.99228   0.86581   0.52464   0.00000  Uiso   1.00
C1503  C     0.97836   0.90740   0.53220   0.00000  Uiso   1.00
H1504  H     0.67754   0.92796   0.52032   0.00000  Uiso   1.00
H1505  H     0.96065   0.91296   0.56802   0.00000  Uiso   1.00
C1506  C     0.94165   0.91772   0.50671   0.00000  Uiso   1.00
H1507  H     0.95814   0.91095   0.97106   0.00000  Uiso   1.00
H1508  H     0.90847   0.89822   0.51919   0.00000  Uiso   1.00
C1509  C     0.92675   0.96295   0.51186   0.00000  Uiso   1.00
H1510  H     0.90952   0.97024   0.54723   0.00000  Uiso   1.00
H1511  H     0.89991   0.96930   0.99319   0.00000  Uiso   1.00
H1512  H     0.95920   0.98310   0.99866   0.00000  Uiso   1.00
loop_
_geom_bond_atom_site_label_1
_geom_bond_atom_site_label_2
_geom_bond_distance
_geom_bond_site_symmetry_2
_ccdc_geom_bond_type
C1     O53     1.290   .     A
C1     C12     1.449   .     S
C1     O135    1.290   .     S
C2     C11     1.449   .     S
C2     O54     1.290   .     A
C2     O220    1.290   1_455 S
C3     H39     1.080   .     S
C3     C32     1.413   .     A
C3     C5      1.389   .     A
C4     H40     1.080   .     S
C4     C6      1.389   .     A
C4     C31     1.415   .     A
C5     H35     1.083   .     S
C5     C785    1.397   1_554 S
C6     H36     1.083   .     S
C6     C786    1.396   .     S
C7     H41     1.083   .     S
C7     C12     1.401   .     A
C7     C513    1.383   1_545 S
C8     H42     1.083   .     S
C8     C11     1.401   .     A
C8     C262    1.383   .     S
C9     H43     1.083   .     S
C9     C259    1.383   .     S
C9     C95     1.401   .     S
C10    H44     1.083   .     S
C10    C512    1.383   1_545 S
C10    C180    1.401   1_455 S
C11    C177    1.401   1_455 S
C12    C94     1.401   .     S
C13    N50     1.367   .     A
C13    C15     1.413   .     A
C13    H45     1.080   .     S
C14    H46     1.081   .     S
C14    N49     1.367   .     A
C14    C16     1.414   .     A
C15    H47     1.081   .     S
C15    N49     1.367   .     A
C16    H48     1.081   .     S
C16    N50     1.367   .     A
C17    C19     1.476   .     S
C17    O57     1.291   .     A
C17    O139    1.301   .     S
C18    O58     1.290   .     A
C18    C20     1.475   .     S
C18    O224    1.301   1_455 S
C19    C23     1.401   .     A
C19    C25     1.411   .     A
C20    C24     1.401   .     A
C20    C26     1.413   .     A
C21    C29     1.413   .     A
C21    C23     1.410   .     A
C21    O147    1.393   .     S
C22    C30     1.411   .     A
C22    C24     1.399   .     A
C22    O242    1.382   1_455 S
C23    H122    1.082   .     S
C24    H205    1.083   1_455 S
C25    C61     1.452   .     S
C25    C27     1.404   .     A
C26    C59     1.453   .     S
C26    C28     1.406   .     A
C27    C29     1.418   .     A
C27    C31     1.427   .     A
C28    C32     1.426   .     A
C28    C30     1.417   .     A
C29    C761    1.397   .     S
C30    C762    1.396   1_554 S
C31    C788    1.414   .     S
C32    C787    1.414   1_554 S
Cu33   O55     1.977   .     S
Cu33   O58     1.974   .     S
Cu33   N49     2.010   .     S
Cu33   O54     1.964   .     S
Cu33   O51     1.964   .     S
Cu33   Cu202   2.675   1_455 S
Cu34   O56     1.977   .     S
Cu34   O57     1.974   .     S
Cu34   N50     2.010   .     S
Cu34   O52     1.964   .     S
Cu34   O53     1.964   .     S
Cu34   Cu117   2.675   .     S
H37    C108    1.083   .     S
H38    C191    1.082   1_455 S
O51    C169    1.290   1_455 S
O52    C86     1.290   .     S
O55    C185    1.301   1_455 S
O56    C102    1.301   .     S
C59    N60     1.157   .     T
C61    N62     1.157   .     T
O63    C64     1.414   .     S
O63    C189    1.393   1_455 S
C64    C67     1.529   .     S
C64    H66     1.116   .     S
C64    H65     1.112   .     S
C67    C70     1.526   .     S
C67    H824    1.111   .     S
C67    H825    1.112   .     S
H68    C823    1.111   1_554 S
H69    C823    1.112   1_554 S
C70    H71     1.111   .     S
C70    H73     1.111   .     S
C70    H72     1.110   .     S
O74    C75     1.410   .     S
O74    C106    1.382   .     S
C75    H77     1.115   .     S
C75    C78     1.528   .     S
C75    H160    1.115   .     S
H76    C243    1.115   1_455 S
C78    H80     1.112   .     S
C78    C81     1.526   .     S
C78    H835    1.112   1_554 S
H79    C834    1.112   .     S
C81    H82     1.111   .     S
C81    H839    1.110   1_554 S
C81    H840    1.111   1_554 S
H83    C837    1.110   .     S
H84    C837    1.111   .     S
C85    O137    1.290   .     A
C85    C96     1.449   .     S
C85    O219    1.290   .     S
C86    C95     1.449   .     S
C86    O138    1.290   .     A
C87    H123    1.080   .     S
C87    C116    1.413   .     A
C87    C89     1.389   .     A
C88    H124    1.080   .     S
C88    C90     1.389   .     A
C88    C115    1.415   .     A
C89    H119    1.083   .     S
C89    C869    1.397   1_554 S
C90    H120    1.083   .     S
C90    C870    1.396   .     S
C91    H125    1.083   .     S
C91    C96     1.401   .     A
C91    C597    1.383   1_545 S
C92    H126    1.083   .     S
C92    C95     1.401   .     A
C92    C346    1.383   .     S
C93    H127    1.083   .     S
C93    C343    1.383   .     S
C93    C179    1.401   .     S
C94    H128    1.083   .     S
C94    C596    1.383   1_545 S
C96    C178    1.401   .     S
C97    N134    1.367   .     A
C97    C99     1.413   .     A
C97    H129    1.080   .     S
C98    H130    1.081   .     S
C98    N133    1.367   .     A
C98    C100    1.414   .     A
C99    H131    1.081   .     S
C99    N133    1.367   .     A
C100   H132    1.081   .     S
C100   N134    1.367   .     A
C101   C103    1.476   .     S
C101   O141    1.291   .     A
C101   O223    1.301   .     S
C102   O142    1.290   .     A
C102   C104    1.475   .     S
C103   C107    1.401   .     A
C103   C109    1.411   .     A
C104   C108    1.401   .     A
C104   C110    1.413   .     A
C105   C113    1.413   .     A
C105   C107    1.410   .     A
C105   O231    1.393   .     S
C106   C114    1.411   .     A
C106   C108    1.399   .     A
C107   H206    1.082   .     S
C109   C145    1.452   .     S
C109   C111    1.404   .     A
C110   C143    1.453   .     S
C110   C112    1.406   .     A
C111   C113    1.418   .     A
C111   C115    1.427   .     A
C112   C116    1.426   .     A
C112   C114    1.417   .     A
C113   C845    1.397   .     S
C114   C846    1.396   1_554 S
C115   C872    1.414   .     S
C116   C871    1.414   1_554 S
Cu117  O139    1.977   .     S
Cu117  O142    1.974   .     S
Cu117  N133    2.010   .     S
Cu117  O138    1.964   .     S
Cu117  O135    1.964   .     S
Cu118  O140    1.977   .     S
Cu118  O141    1.974   .     S
Cu118  N134    2.010   .     S
Cu118  O136    1.964   .     S
Cu118  O137    1.964   .     S
Cu118  Cu201   2.675   .     S
H121   C192    1.083   .     S
O136   C170    1.290   .     S
O140   C186    1.301   .     S
C143   N144    1.157   .     T
C145   N146    1.157   .     T
O147   C148    1.414   .     S
C148   C151    1.529   .     S
C148   H150    1.116   .     S
C148   H149    1.112   .     S
C151   C154    1.526   .     S
C151   H908    1.111   .     S
C151   H909    1.112   .     S
H152   C907    1.111   1_554 S
H153   C907    1.112   1_554 S
C154   H155    1.111   .     S
C154   H157    1.111   .     S
C154   H156    1.110   .     S
O158   C159    1.410   .     S
O158   C190    1.382   .     S
C159   H161    1.115   .     S
C159   C162    1.528   .     S
C159   H244    1.115   .     S
C162   H164    1.112   .     S
C162   C165    1.526   .     S
C162   H919    1.112   1_554 S
H163   C918    1.112   .     S
C165   H166    1.111   .     S
C165   H923    1.110   1_554 S
C165   H924    1.111   1_554 S
H167   C921    1.110   .     S
H168   C921    1.111   .     S
C169   O221    1.290   .     A
C169   C180    1.449   .     S
C169   O51     1.290   1_655 S
C170   C179    1.449   .     S
C170   O222    1.290   .     A
C171   H207    1.080   .     S
C171   C200    1.413   .     A
C171   C173    1.389   .     A
C172   H208    1.080   .     S
C172   C174    1.389   .     A
C172   C199    1.415   .     A
C173   H203    1.083   .     S
C173   C953    1.397   1_554 S
C174   H204    1.083   .     S
C174   C954    1.396   .     S
C175   H209    1.083   .     S
C175   C180    1.401   .     A
C175   C681    1.383   1_545 S
C176   H210    1.083   .     S
C176   C179    1.401   .     A
C176   C430    1.383   .     S
C177   H211    1.083   .     S
C177   C427    1.383   .     S
C177   C11     1.401   1_655 S
C178   H212    1.083   .     S
C178   C680    1.383   1_545 S
C180   C10     1.401   1_655 S
C181   N218    1.367   .     A
C181   C183    1.413   .     A
C181   H213    1.080   .     S
C182   H214    1.081   .     S
C182   N217    1.367   .     A
C182   C184    1.414   .     A
C183   H215    1.081   .     S
C183   N217    1.367   .     A
C184   H216    1.081   .     S
C184   N218    1.367   .     A
C185   C187    1.476   .     S
C185   O225    1.291   .     A
C185   O55     1.301   1_655 S
C186   O226    1.290   .     A
C186   C188    1.475   .     S
C187   C191    1.401   .     A
C187   C193    1.411   .     A
C188   C192    1.401   .     A
C188   C194    1.413   .     A
C189   C197    1.413   .     A
C189   C191    1.410   .     A
C189   O63     1.393   1_655 S
C190   C198    1.411   .     A
C190   C192    1.399   .     A
C191   H38     1.082   1_655 S
C193   C229    1.452   .     S
C193   C195    1.404   .     A
C194   C227    1.453   .     S
C194   C196    1.406   .     A
C195   C197    1.418   .     A
C195   C199    1.427   .     A
C196   C200    1.426   .     A
C196   C198    1.417   .     A
C197   C929    1.397   .     S
C198   C930    1.396   1_554 S
C199   C956    1.414   .     S
C200   C955    1.414   1_554 S
Cu201  O223    1.977   .     S
Cu201  O226    1.974   .     S
Cu201  N217    2.010   .     S
Cu201  O222    1.964   .     S
Cu201  O219    1.964   .     S
Cu202  O224    1.977   .     S
Cu202  O225    1.974   .     S
Cu202  N218    2.010   .     S
Cu202  O220    1.964   .     S
Cu202  O221    1.964   .     S
Cu202  Cu33    2.675   1_655 S
H205   C24     1.083   1_655 S
O220   C2      1.290   1_655 S
O224   C18     1.301   1_655 S
C227   N228    1.157   .     T
C229   N230    1.157   .     T
O231   C232    1.414   .     S
C232   C235    1.529   .     S
C232   H234    1.116   .     S
C232   H233    1.112   .     S
C235   C238    1.526   .     S
C235   H992    1.111   .     S
C235   H993    1.112   .     S
H236   C991    1.111   1_554 S
H237   C991    1.112   1_554 S
C238   H239    1.111   .     S
C238   H241    1.111   .     S
C238   H240    1.110   .     S
O242   C243    1.410   .     S
O242   C22     1.382   1_655 S
C243   H245    1.115   .     S
C243   C246    1.528   .     S
C243   H76     1.115   1_655 S
C246   H248    1.112   .     S
C246   C249    1.526   .     S
C246   H1003   1.112   1_554 S
H247   C1002   1.112   .     S
C249   H250    1.111   .     S
C249   H1007   1.110   1_554 S
C249   H1008   1.111   1_554 S
H251   C1005   1.110   .     S
H252   C1005   1.111   .     S
C253   O305    1.290   .     A
C253   C264    1.449   .     S
C253   O387    1.290   .     S
C254   C263    1.449   .     S
C254   O306    1.290   .     A
C254   O472    1.290   1_455 S
C255   H291    1.080   .     S
C255   C284    1.413   .     A
C255   C257    1.389   .     A
C256   H292    1.080   .     S
C256   C258    1.389   .     A
C256   C283    1.415   .     A
C257   H287    1.083   .     S
C257   C1037   1.397   1_554 S
C258   H288    1.083   .     S
C258   C1038   1.396   .     S
C259   H293    1.083   .     S
C259   C264    1.401   .     A
C260   H294    1.083   .     S
C260   C263    1.401   .     A
C260   C514    1.383   .     S
C261   H295    1.083   .     S
C261   C511    1.383   .     S
C261   C347    1.401   .     S
C262   H296    1.083   .     S
C262   C432    1.401   1_455 S
C263   C429    1.401   1_455 S
C264   C346    1.401   .     S
C265   N302    1.367   .     A
C265   C267    1.413   .     A
C265   H297    1.080   .     S
C266   H298    1.081   .     S
C266   N301    1.367   .     A
C266   C268    1.414   .     A
C267   H299    1.081   .     S
C267   N301    1.367   .     A
C268   H300    1.081   .     S
C268   N302    1.367   .     A
C269   C271    1.476   .     S
C269   O309    1.291   .     A
C269   O391    1.301   .     S
C270   O310    1.290   .     A
C270   C272    1.475   .     S
C270   O476    1.301   1_455 S
C271   C275    1.401   .     A
C271   C277    1.411   .     A
C272   C276    1.401   .     A
C272   C278    1.413   .     A
C273   C281    1.413   .     A
C273   C275    1.410   .     A
C273   O399    1.393   .     S
C274   C282    1.411   .     A
C274   C276    1.399   .     A
C274   O494    1.382   1_455 S
C275   H374    1.082   .     S
C276   H457    1.083   1_455 S
C277   C313    1.452   .     S
C277   C279    1.404   .     A
C278   C311    1.453   .     S
C278   C280    1.406   .     A
C279   C281    1.418   .     A
C279   C283    1.427   .     A
C280   C284    1.426   .     A
C280   C282    1.417   .     A
C281   C1013   1.397   .     S
C282   C1014   1.396   1_554 S
C283   C1040   1.414   .     S
C284   C1039   1.414   1_554 S
Cu285  O307    1.977   .     S
Cu285  O310    1.974   .     S
Cu285  N301    2.010   .     S
Cu285  O306    1.964   .     S
Cu285  O303    1.964   .     S
Cu285  Cu454   2.675   1_455 S
Cu286  O308    1.977   .     S
Cu286  O309    1.974   .     S
Cu286  N302    2.010   .     S
Cu286  O304    1.964   .     S
Cu286  O305    1.964   .     S
Cu286  Cu369   2.675   .     S
H289   C360    1.083   .     S
H290   C443    1.082   1_455 S
O303   C421    1.290   1_455 S
O304   C338    1.290   .     S
O307   C437    1.301   1_455 S
O308   C354    1.301   .     S
C311   N312    1.157   .     T
C313   N314    1.157   .     T
O315   C316    1.414   .     S
O315   C441    1.393   1_455 S
C316   C319    1.529   .     S
C316   H318    1.116   .     S
C316   H317    1.112   .     S
C319   C322    1.526   .     S
C319   H1076   1.111   .     S
C319   H1077   1.112   .     S
H320   C1075   1.111   1_554 S
H321   C1075   1.112   1_554 S
C322   H323    1.111   .     S
C322   H325    1.111   .     S
C322   H324    1.110   .     S
O326   C327    1.410   .     S
O326   C358    1.382   .     S
C327   H329    1.115   .     S
C327   C330    1.528   .     S
C327   H412    1.115   .     S
H328   C495    1.115   1_455 S
C330   H332    1.112   .     S
C330   C333    1.526   .     S
C330   H1087   1.112   1_554 S
H331   C1086   1.112   .     S
C333   H334    1.111   .     S
C333   H1091   1.110   1_554 S
C333   H1092   1.111   1_554 S
H335   C1089   1.110   .     S
H336   C1089   1.111   .     S
C337   O389    1.290   .     A
C337   C348    1.449   .     S
C337   O471    1.290   .     S
C338   C347    1.449   .     S
C338   O390    1.290   .     A
C339   H375    1.080   .     S
C339   C368    1.413   .     A
C339   C341    1.389   .     A
C340   H376    1.080   .     S
C340   C342    1.389   .     A
C340   C367    1.415   .     A
C341   H371    1.083   .     S
C341   C1121   1.397   1_554 S
C342   H372    1.083   .     S
C342   C1122   1.396   .     S
C343   H377    1.083   .     S
C343   C348    1.401   .     A
C344   H378    1.083   .     S
C344   C347    1.401   .     A
C344   C598    1.383   .     S
C345   H379    1.083   .     S
C345   C595    1.383   .     S
C345   C431    1.401   .     S
C346   H380    1.083   .     S
C348   C430    1.401   .     S
C349   N386    1.367   .     A
C349   C351    1.413   .     A
C349   H381    1.080   .     S
C350   H382    1.081   .     S
C350   N385    1.367   .     A
C350   C352    1.414   .     A
C351   H383    1.081   .     S
C351   N385    1.367   .     A
C352   H384    1.081   .     S
C352   N386    1.367   .     A
C353   C355    1.476   .     S
C353   O393    1.291   .     A
C353   O475    1.301   .     S
C354   O394    1.290   .     A
C354   C356    1.475   .     S
C355   C359    1.401   .     A
C355   C361    1.411   .     A
C356   C360    1.401   .     A
C356   C362    1.413   .     A
C357   C365    1.413   .     A
C357   C359    1.410   .     A
C357   O483    1.393   .     S
C358   C366    1.411   .     A
C358   C360    1.399   .     A
C359   H458    1.082   .     S
C361   C397    1.452   .     S
C361   C363    1.404   .     A
C362   C395    1.453   .     S
C362   C364    1.406   .     A
C363   C365    1.418   .     A
C363   C367    1.427   .     A
C364   C368    1.426   .     A
C364   C366    1.417   .     A
C365   C1097   1.397   .     S
C366   C1098   1.396   1_554 S
C367   C1124   1.414   .     S
C368   C1123   1.414   1_554 S
Cu369  O391    1.977   .     S
Cu369  O394    1.974   .     S
Cu369  N385    2.010   .     S
Cu369  O390    1.964   .     S
Cu369  O387    1.964   .     S
Cu370  O392    1.977   .     S
Cu370  O393    1.974   .     S
Cu370  N386    2.010   .     S
Cu370  O388    1.964   .     S
Cu370  O389    1.964   .     S
Cu370  Cu453   2.675   .     S
H373   C444    1.083   .     S
O388   C422    1.290   .     S
O392   C438    1.301   .     S
C395   N396    1.157   .     T
C397   N398    1.157   .     T
O399   C400    1.414   .     S
C400   C403    1.529   .     S
C400   H402    1.116   .     S
C400   H401    1.112   .     S
C403   C406    1.526   .     S
C403   H1160   1.111   .     S
C403   H1161   1.112   .     S
H404   C1159   1.111   1_554 S
H405   C1159   1.112   1_554 S
C406   H407    1.111   .     S
C406   H409    1.111   .     S
C406   H408    1.110   .     S
O410   C411    1.410   .     S
O410   C442    1.382   .     S
C411   H413    1.115   .     S
C411   C414    1.528   .     S
C411   H496    1.115   .     S
C414   H416    1.112   .     S
C414   C417    1.526   .     S
C414   H1171   1.112   1_554 S
H415   C1170   1.112   .     S
C417   H418    1.111   .     S
C417   H1175   1.110   1_554 S
C417   H1176   1.111   1_554 S
H419   C1173   1.110   .     S
H420   C1173   1.111   .     S
C421   O473    1.290   .     A
C421   C432    1.449   .     S
C421   O303    1.290   1_655 S
C422   C431    1.449   .     S
C422   O474    1.290   .     A
C423   H459    1.080   .     S
C423   C452    1.413   .     A
C423   C425    1.389   .     A
C424   H460    1.080   .     S
C424   C426    1.389   .     A
C424   C451    1.415   .     A
C425   H455    1.083   .     S
C425   C1205   1.397   1_554 S
C426   H456    1.083   .     S
C426   C1206   1.396   .     S
C427   H461    1.083   .     S
C427   C432    1.401   .     A
C428   H462    1.083   .     S
C428   C431    1.401   .     A
C428   C682    1.383   .     S
C429   H463    1.083   .     S
C429   C679    1.383   .     S
C429   C263    1.401   1_655 S
C430   H464    1.083   .     S
C432   C262    1.401   1_655 S
C433   N470    1.367   .     A
C433   C435    1.413   .     A
C433   H465    1.080   .     S
C434   H466    1.081   .     S
C434   N469    1.367   .     A
C434   C436    1.414   .     A
C435   H467    1.081   .     S
C435   N469    1.367   .     A
C436   H468    1.081   .     S
C436   N470    1.367   .     A
C437   C439    1.476   .     S
C437   O477    1.291   .     A
C437   O307    1.301   1_655 S
C438   O478    1.290   .     A
C438   C440    1.475   .     S
C439   C443    1.401   .     A
C439   C445    1.411   .     A
C440   C444    1.401   .     A
C440   C446    1.413   .     A
C441   C449    1.413   .     A
C441   C443    1.410   .     A
C441   O315    1.393   1_655 S
C442   C450    1.411   .     A
C442   C444    1.399   .     A
C443   H290    1.082   1_655 S
C445   C481    1.452   .     S
C445   C447    1.404   .     A
C446   C479    1.453   .     S
C446   C448    1.406   .     A
C447   C449    1.418   .     A
C447   C451    1.427   .     A
C448   C452    1.426   .     A
C448   C450    1.417   .     A
C449   C1181   1.397   .     S
C450   C1182   1.396   1_554 S
C451   C1208   1.414   .     S
C452   C1207   1.414   1_554 S
Cu453  O475    1.977   .     S
Cu453  O478    1.974   .     S
Cu453  N469    2.010   .     S
Cu453  O474    1.964   .     S
Cu453  O471    1.964   .     S
Cu454  O476    1.977   .     S
Cu454  O477    1.974   .     S
Cu454  N470    2.010   .     S
Cu454  O472    1.964   .     S
Cu454  O473    1.964   .     S
Cu454  Cu285   2.675   1_655 S
H457   C276    1.083   1_655 S
O472   C254    1.290   1_655 S
O476   C270    1.301   1_655 S
C479   N480    1.157   .     T
C481   N482    1.157   .     T
O483   C484    1.414   .     S
C484   C487    1.529   .     S
C484   H486    1.116   .     S
C484   H485    1.112   .     S
C487   C490    1.526   .     S
C487   H1244   1.111   .     S
C487   H1245   1.112   .     S
H488   C1243   1.111   1_554 S
H489   C1243   1.112   1_554 S
C490   H491    1.111   .     S
C490   H493    1.111   .     S
C490   H492    1.110   .     S
O494   C495    1.410   .     S
O494   C274    1.382   1_655 S
C495   H497    1.115   .     S
C495   C498    1.528   .     S
C495   H328    1.115   1_655 S
C498   H500    1.112   .     S
C498   C501    1.526   .     S
C498   H1255   1.112   1_554 S
H499   C1254   1.112   .     S
C501   H502    1.111   .     S
C501   H1259   1.110   1_554 S
C501   H1260   1.111   1_554 S
H503   C1257   1.110   .     S
H504   C1257   1.111   .     S
C505   O557    1.290   .     A
C505   C516    1.449   .     S
C505   O639    1.290   .     S
C506   C515    1.449   .     S
C506   O558    1.290   .     A
C506   O724    1.290   1_455 S
C507   H543    1.080   .     S
C507   C536    1.413   .     A
C507   C509    1.389   .     A
C508   H544    1.080   .     S
C508   C510    1.389   .     A
C508   C535    1.415   .     A
C509   H539    1.083   .     S
C509   C1289   1.397   1_554 S
C510   H540    1.083   .     S
C510   C1290   1.396   .     S
C511   H545    1.083   .     S
C511   C516    1.401   .     A
C512   H546    1.083   .     S
C512   C515    1.401   .     A
C512   C10     1.383   1_565 S
C513   H547    1.083   .     S
C513   C7      1.383   1_565 S
C513   C599    1.401   .     S
C514   H548    1.083   .     S
C514   C684    1.401   1_455 S
C515   C681    1.401   1_455 S
C516   C598    1.401   .     S
C517   N554    1.367   .     A
C517   C519    1.413   .     A
C517   H549    1.080   .     S
C518   H550    1.081   .     S
C518   N553    1.367   .     A
C518   C520    1.414   .     A
C519   H551    1.081   .     S
C519   N553    1.367   .     A
C520   H552    1.081   .     S
C520   N554    1.367   .     A
C521   C523    1.476   .     S
C521   O561    1.291   .     A
C521   O643    1.301   .     S
C522   O562    1.290   .     A
C522   C524    1.475   .     S
C522   O728    1.301   1_455 S
C523   C527    1.401   .     A
C523   C529    1.411   .     A
C524   C528    1.401   .     A
C524   C530    1.413   .     A
C525   C533    1.413   .     A
C525   C527    1.410   .     A
C525   O651    1.393   .     S
C526   C534    1.411   .     A
C526   C528    1.399   .     A
C526   O746    1.382   1_455 S
C527   H626    1.082   .     S
C528   H709    1.083   1_455 S
C529   C565    1.452   .     S
C529   C531    1.404   .     A
C530   C563    1.453   .     S
C530   C532    1.406   .     A
C531   C533    1.418   .     A
C531   C535    1.427   .     A
C532   C536    1.426   .     A
C532   C534    1.417   .     A
C533   C1265   1.397   .     S
C534   C1266   1.396   1_554 S
C535   C1292   1.414   .     S
C536   C1291   1.414   1_554 S
Cu537  O559    1.977   .     S
Cu537  O562    1.974   .     S
Cu537  N553    2.010   .     S
Cu537  O558    1.964   .     S
Cu537  O555    1.964   .     S
Cu537  Cu706   2.675   1_455 S
Cu538  O560    1.977   .     S
Cu538  O561    1.974   .     S
Cu538  N554    2.010   .     S
Cu538  O556    1.964   .     S
Cu538  O557    1.964   .     S
Cu538  Cu621   2.675   .     S
H541   C612    1.083   .     S
H542   C695    1.082   1_455 S
O555   C673    1.290   1_455 S
O556   C590    1.290   .     S
O559   C689    1.301   1_455 S
O560   C606    1.301   .     S
C563   N564    1.157   .     T
C565   N566    1.157   .     T
O567   C568    1.414   .     S
O567   C693    1.393   1_455 S
C568   C571    1.529   .     S
C568   H570    1.116   .     S
C568   H569    1.112   .     S
C571   C574    1.526   .     S
C571   H1328   1.111   .     S
C571   H1329   1.112   .     S
H572   C1327   1.111   1_554 S
H573   C1327   1.112   1_554 S
C574   H575    1.111   .     S
C574   H577    1.111   .     S
C574   H576    1.110   .     S
O578   C579    1.410   .     S
O578   C610    1.382   .     S
C579   H581    1.115   .     S
C579   C582    1.528   .     S
C579   H664    1.115   .     S
H580   C747    1.115   1_455 S
C582   H584    1.112   .     S
C582   C585    1.526   .     S
C582   H1339   1.112   1_554 S
H583   C1338   1.112   .     S
C585   H586    1.111   .     S
C585   H1343   1.110   1_554 S
C585   H1344   1.111   1_554 S
H587   C1341   1.110   .     S
H588   C1341   1.111   .     S
C589   O641    1.290   .     A
C589   C600    1.449   .     S
C589   O723    1.290   .     S
C590   C599    1.449   .     S
C590   O642    1.290   .     A
C591   H627    1.080   .     S
C591   C620    1.413   .     A
C591   C593    1.389   .     A
C592   H628    1.080   .     S
C592   C594    1.389   .     A
C592   C619    1.415   .     A
C593   H623    1.083   .     S
C593   C1373   1.397   1_554 S
C594   H624    1.083   .     S
C594   C1374   1.396   .     S
C595   H629    1.083   .     S
C595   C600    1.401   .     A
C596   H630    1.083   .     S
C596   C599    1.401   .     A
C596   C94     1.383   1_565 S
C597   H631    1.083   .     S
C597   C91     1.383   1_565 S
C597   C683    1.401   .     S
C598   H632    1.083   .     S
C600   C682    1.401   .     S
C601   N638    1.367   .     A
C601   C603    1.413   .     A
C601   H633    1.080   .     S
C602   H634    1.081   .     S
C602   N637    1.367   .     A
C602   C604    1.414   .     A
C603   H635    1.081   .     S
C603   N637    1.367   .     A
C604   H636    1.081   .     S
C604   N638    1.367   .     A
C605   C607    1.476   .     S
C605   O645    1.291   .     A
C605   O727    1.301   .     S
C606   O646    1.290   .     A
C606   C608    1.475   .     S
C607   C611    1.401   .     A
C607   C613    1.411   .     A
C608   C612    1.401   .     A
C608   C614    1.413   .     A
C609   C617    1.413   .     A
C609   C611    1.410   .     A
C609   O735    1.393   .     S
C610   C618    1.411   .     A
C610   C612    1.399   .     A
C611   H710    1.082   .     S
C613   C649    1.452   .     S
C613   C615    1.404   .     A
C614   C647    1.453   .     S
C614   C616    1.406   .     A
C615   C617    1.418   .     A
C615   C619    1.427   .     A
C616   C620    1.426   .     A
C616   C618    1.417   .     A
C617   C1349   1.397   .     S
C618   C1350   1.396   1_554 S
C619   C1376   1.414   .     S
C620   C1375   1.414   1_554 S
Cu621  O643    1.977   .     S
Cu621  O646    1.974   .     S
Cu621  N637    2.010   .     S
Cu621  O642    1.964   .     S
Cu621  O639    1.964   .     S
Cu622  O644    1.977   .     S
Cu622  O645    1.974   .     S
Cu622  N638    2.010   .     S
Cu622  O640    1.964   .     S
Cu622  O641    1.964   .     S
Cu622  Cu705   2.675   .     S
H625   C696    1.083   .     S
O640   C674    1.290   .     S
O644   C690    1.301   .     S
C647   N648    1.157   .     T
C649   N650    1.157   .     T
O651   C652    1.414   .     S
C652   C655    1.529   .     S
C652   H654    1.116   .     S
C652   H653    1.112   .     S
C655   C658    1.526   .     S
C655   H1412   1.111   .     S
C655   H1413   1.112   .     S
H656   C1411   1.111   1_554 S
H657   C1411   1.112   1_554 S
C658   H659    1.111   .     S
C658   H661    1.111   .     S
C658   H660    1.110   .     S
O662   C663    1.410   .     S
O662   C694    1.382   .     S
C663   H665    1.115   .     S
C663   C666    1.528   .     S
C663   H748    1.115   .     S
C666   H668    1.112   .     S
C666   C669    1.526   .     S
C666   H1423   1.112   1_554 S
H667   C1422   1.112   .     S
C669   H670    1.111   .     S
C669   H1427   1.110   1_554 S
C669   H1428   1.111   1_554 S
H671   C1425   1.110   .     S
H672   C1425   1.111   .     S
C673   O725    1.290   .     A
C673   C684    1.449   .     S
C673   O555    1.290   1_655 S
C674   C683    1.449   .     S
C674   O726    1.290   .     A
C675   H711    1.080   .     S
C675   C704    1.413   .     A
C675   C677    1.389   .     A
C676   H712    1.080   .     S
C676   C678    1.389   .     A
C676   C703    1.415   .     A
C677   H707    1.083   .     S
C677   C1457   1.397   1_554 S
C678   H708    1.083   .     S
C678   C1458   1.396   .     S
C679   H713    1.083   .     S
C679   C684    1.401   .     A
C680   H714    1.083   .     S
C680   C683    1.401   .     A
C680   C178    1.383   1_565 S
C681   H715    1.083   .     S
C681   C175    1.383   1_565 S
C681   C515    1.401   1_655 S
C682   H716    1.083   .     S
C684   C514    1.401   1_655 S
C685   N722    1.367   .     A
C685   C687    1.413   .     A
C685   H717    1.080   .     S
C686   H718    1.081   .     S
C686   N721    1.367   .     A
C686   C688    1.414   .     A
C687   H719    1.081   .     S
C687   N721    1.367   .     A
C688   H720    1.081   .     S
C688   N722    1.367   .     A
C689   C691    1.476   .     S
C689   O729    1.291   .     A
C689   O559    1.301   1_655 S
C690   O730    1.290   .     A
C690   C692    1.475   .     S
C691   C695    1.401   .     A
C691   C697    1.411   .     A
C692   C696    1.401   .     A
C692   C698    1.413   .     A
C693   C701    1.413   .     A
C693   C695    1.410   .     A
C693   O567    1.393   1_655 S
C694   C702    1.411   .     A
C694   C696    1.399   .     A
C695   H542    1.082   1_655 S
C697   C733    1.452   .     S
C697   C699    1.404   .     A
C698   C731    1.453   .     S
C698   C700    1.406   .     A
C699   C701    1.418   .     A
C699   C703    1.427   .     A
C700   C704    1.426   .     A
C700   C702    1.417   .     A
C701   C1433   1.397   .     S
C702   C1434   1.396   1_554 S
C703   C1460   1.414   .     S
C704   C1459   1.414   1_554 S
Cu705  O727    1.977   .     S
Cu705  O730    1.974   .     S
Cu705  N721    2.010   .     S
Cu705  O726    1.964   .     S
Cu705  O723    1.964   .     S
Cu706  O728    1.977   .     S
Cu706  O729    1.974   .     S
Cu706  N722    2.010   .     S
Cu706  O724    1.964   .     S
Cu706  O725    1.964   .     S
Cu706  Cu537   2.675   1_655 S
H709   C528    1.083   1_655 S
O724   C506    1.290   1_655 S
O728   C522    1.301   1_655 S
C731   N732    1.157   .     T
C733   N734    1.157   .     T
O735   C736    1.414   .     S
C736   C739    1.529   .     S
C736   H738    1.116   .     S
C736   H737    1.112   .     S
C739   C742    1.526   .     S
C739   H1496   1.111   .     S
C739   H1497   1.112   .     S
H740   C1495   1.111   1_554 S
H741   C1495   1.112   1_554 S
C742   H743    1.111   .     S
C742   H745    1.111   .     S
C742   H744    1.110   .     S
O746   C747    1.410   .     S
O746   C526    1.382   1_655 S
C747   H749    1.115   .     S
C747   C750    1.528   .     S
C747   H580    1.115   1_655 S
C750   H752    1.112   .     S
C750   C753    1.526   .     S
C750   H1507   1.112   1_554 S
H751   C1506   1.112   .     S
C753   H754    1.111   .     S
C753   H1511   1.110   1_554 S
C753   H1512   1.111   1_554 S
H755   C1509   1.110   .     S
H756   C1509   1.111   .     S
C757   O809    1.290   .     A
C757   C768    1.449   .     S
C757   O891    1.290   .     S
C758   C767    1.449   .     S
C758   O810    1.290   .     A
C758   O976    1.290   1_455 S
C759   H795    1.080   .     S
C759   C788    1.413   .     A
C759   C761    1.389   .     A
C760   H796    1.080   .     S
C760   C762    1.389   .     A
C760   C787    1.415   .     A
C761   H791    1.083   .     S
C762   H792    1.083   .     S
C762   C30     1.396   1_556 S
C763   H797    1.083   .     S
C763   C768    1.401   .     A
C763   C1269   1.383   1_545 S
C764   H798    1.083   .     S
C764   C767    1.401   .     A
C764   C1018   1.383   .     S
C765   H799    1.083   .     S
C765   C1015   1.383   .     S
C765   C851    1.401   .     S
C766   H800    1.083   .     S
C766   C1268   1.383   1_545 S
C766   C936    1.401   1_455 S
C767   C933    1.401   1_455 S
C768   C850    1.401   .     S
C769   N806    1.367   .     A
C769   C771    1.413   .     A
C769   H801    1.080   .     S
C770   H802    1.081   .     S
C770   N805    1.367   .     A
C770   C772    1.414   .     A
C771   H803    1.081   .     S
C771   N805    1.367   .     A
C772   H804    1.081   .     S
C772   N806    1.367   .     A
C773   C775    1.476   .     S
C773   O813    1.291   .     A
C773   O895    1.301   .     S
C774   O814    1.290   .     A
C774   C776    1.475   .     S
C774   O980    1.301   1_455 S
C775   C779    1.401   .     A
C775   C781    1.411   .     A
C776   C780    1.401   .     A
C776   C782    1.413   .     A
C777   C785    1.413   .     A
C777   C779    1.410   .     A
C777   O903    1.393   .     S
C778   C786    1.411   .     A
C778   C780    1.399   .     A
C778   O998    1.382   1_455 S
C779   H878    1.082   .     S
C780   H961    1.083   1_455 S
C781   C817    1.452   .     S
C781   C783    1.404   .     A
C782   C815    1.453   .     S
C782   C784    1.406   .     A
C783   C785    1.418   .     A
C783   C787    1.427   .     A
C784   C788    1.426   .     A
C784   C786    1.417   .     A
C785   C5      1.397   1_556 S
C787   C32     1.414   1_556 S
Cu789  O811    1.977   .     S
Cu789  O814    1.974   .     S
Cu789  N805    2.010   .     S
Cu789  O810    1.964   .     S
Cu789  O807    1.964   .     S
Cu789  Cu958   2.675   1_455 S
Cu790  O812    1.977   .     S
Cu790  O813    1.974   .     S
Cu790  N806    2.010   .     S
Cu790  O808    1.964   .     S
Cu790  O809    1.964   .     S
Cu790  Cu873   2.675   .     S
H793   C864    1.083   .     S
H794   C947    1.082   1_455 S
O807   C925    1.290   1_455 S
O808   C842    1.290   .     S
O811   C941    1.301   1_455 S
O812   C858    1.301   .     S
C815   N816    1.157   .     T
C817   N818    1.157   .     T
O819   C820    1.414   .     S
O819   C945    1.393   1_455 S
C820   C823    1.529   .     S
C820   H822    1.116   .     S
C820   H821    1.112   .     S
C823   C826    1.526   .     S
C823   H68     1.111   1_556 S
C823   H69     1.112   1_556 S
C826   H827    1.111   .     S
C826   H829    1.111   .     S
C826   H828    1.110   .     S
O830   C831    1.410   .     S
O830   C862    1.382   .     S
C831   H833    1.115   .     S
C831   C834    1.528   .     S
C831   H916    1.115   .     S
H832   C999    1.115   1_455 S
C834   H836    1.112   .     S
C834   C837    1.526   .     S
H835   C78     1.112   1_556 S
C837   H838    1.111   .     S
H839   C81     1.110   1_556 S
H840   C81     1.111   1_556 S
C841   O893    1.290   .     A
C841   C852    1.449   .     S
C841   O975    1.290   .     S
C842   C851    1.449   .     S
C842   O894    1.290   .     A
C843   H879    1.080   .     S
C843   C872    1.413   .     A
C843   C845    1.389   .     A
C844   H880    1.080   .     S
C844   C846    1.389   .     A
C844   C871    1.415   .     A
C845   H875    1.083   .     S
C846   H876    1.083   .     S
C846   C114    1.396   1_556 S
C847   H881    1.083   .     S
C847   C852    1.401   .     A
C847   C1353   1.383   1_545 S
C848   H882    1.083   .     S
C848   C851    1.401   .     A
C848   C1102   1.383   .     S
C849   H883    1.083   .     S
C849   C1099   1.383   .     S
C849   C935    1.401   .     S
C850   H884    1.083   .     S
C850   C1352   1.383   1_545 S
C852   C934    1.401   .     S
C853   N890    1.367   .     A
C853   C855    1.413   .     A
C853   H885    1.080   .     S
C854   H886    1.081   .     S
C854   N889    1.367   .     A
C854   C856    1.414   .     A
C855   H887    1.081   .     S
C855   N889    1.367   .     A
C856   H888    1.081   .     S
C856   N890    1.367   .     A
C857   C859    1.476   .     S
C857   O897    1.291   .     A
C857   O979    1.301   .     S
C858   O898    1.290   .     A
C858   C860    1.475   .     S
C859   C863    1.401   .     A
C859   C865    1.411   .     A
C860   C864    1.401   .     A
C860   C866    1.413   .     A
C861   C869    1.413   .     A
C861   C863    1.410   .     A
C861   O987    1.393   .     S
C862   C870    1.411   .     A
C862   C864    1.399   .     A
C863   H962    1.082   .     S
C865   C901    1.452   .     S
C865   C867    1.404   .     A
C866   C899    1.453   .     S
C866   C868    1.406   .     A
C867   C869    1.418   .     A
C867   C871    1.427   .     A
C868   C872    1.426   .     A
C868   C870    1.417   .     A
C869   C89     1.397   1_556 S
C871   C116    1.414   1_556 S
Cu873  O895    1.977   .     S
Cu873  O898    1.974   .     S
Cu873  N889    2.010   .     S
Cu873  O894    1.964   .     S
Cu873  O891    1.964   .     S
Cu874  O896    1.977   .     S
Cu874  O897    1.974   .     S
Cu874  N890    2.010   .     S
Cu874  O892    1.964   .     S
Cu874  O893    1.964   .     S
Cu874  Cu957   2.675   .     S
H877   C948    1.083   .     S
O892   C926    1.290   .     S
O896   C942    1.301   .     S
C899   N900    1.157   .     T
C901   N902    1.157   .     T
O903   C904    1.414   .     S
C904   C907    1.529   .     S
C904   H906    1.116   .     S
C904   H905    1.112   .     S
C907   C910    1.526   .     S
C907   H152    1.111   1_556 S
C907   H153    1.112   1_556 S
C910   H911    1.111   .     S
C910   H913    1.111   .     S
C910   H912    1.110   .     S
O914   C915    1.410   .     S
O914   C946    1.382   .     S
C915   H917    1.115   .     S
C915   C918    1.528   .     S
C915   H1000   1.115   .     S
C918   H920    1.112   .     S
C918   C921    1.526   .     S
H919   C162    1.112   1_556 S
C921   H922    1.111   .     S
H923   C165    1.110   1_556 S
H924   C165    1.111   1_556 S
C925   O977    1.290   .     A
C925   C936    1.449   .     S
C925   O807    1.290   1_655 S
C926   C935    1.449   .     S
C926   O978    1.290   .     A
C927   H963    1.080   .     S
C927   C956    1.413   .     A
C927   C929    1.389   .     A
C928   H964    1.080   .     S
C928   C930    1.389   .     A
C928   C955    1.415   .     A
C929   H959    1.083   .     S
C930   H960    1.083   .     S
C930   C198    1.396   1_556 S
C931   H965    1.083   .     S
C931   C936    1.401   .     A
C931   C1437   1.383   1_545 S
C932   H966    1.083   .     S
C932   C935    1.401   .     A
C932   C1186   1.383   .     S
C933   H967    1.083   .     S
C933   C1183   1.383   .     S
C933   C767    1.401   1_655 S
C934   H968    1.083   .     S
C934   C1436   1.383   1_545 S
C936   C766    1.401   1_655 S
C937   N974    1.367   .     A
C937   C939    1.413   .     A
C937   H969    1.080   .     S
C938   H970    1.081   .     S
C938   N973    1.367   .     A
C938   C940    1.414   .     A
C939   H971    1.081   .     S
C939   N973    1.367   .     A
C940   H972    1.081   .     S
C940   N974    1.367   .     A
C941   C943    1.476   .     S
C941   O981    1.291   .     A
C941   O811    1.301   1_655 S
C942   O982    1.290   .     A
C942   C944    1.475   .     S
C943   C947    1.401   .     A
C943   C949    1.411   .     A
C944   C948    1.401   .     A
C944   C950    1.413   .     A
C945   C953    1.413   .     A
C945   C947    1.410   .     A
C945   O819    1.393   1_655 S
C946   C954    1.411   .     A
C946   C948    1.399   .     A
C947   H794    1.082   1_655 S
C949   C985    1.452   .     S
C949   C951    1.404   .     A
C950   C983    1.453   .     S
C950   C952    1.406   .     A
C951   C953    1.418   .     A
C951   C955    1.427   .     A
C952   C956    1.426   .     A
C952   C954    1.417   .     A
C953   C173    1.397   1_556 S
C955   C200    1.414   1_556 S
Cu957  O979    1.977   .     S
Cu957  O982    1.974   .     S
Cu957  N973    2.010   .     S
Cu957  O978    1.964   .     S
Cu957  O975    1.964   .     S
Cu958  O980    1.977   .     S
Cu958  O981    1.974   .     S
Cu958  N974    2.010   .     S
Cu958  O976    1.964   .     S
Cu958  O977    1.964   .     S
Cu958  Cu789   2.675   1_655 S
H961   C780    1.083   1_655 S
O976   C758    1.290   1_655 S
O980   C774    1.301   1_655 S
C983   N984    1.157   .     T
C985   N986    1.157   .     T
O987   C988    1.414   .     S
C988   C991    1.529   .     S
C988   H990    1.116   .     S
C988   H989    1.112   .     S
C991   C994    1.526   .     S
C991   H236    1.111   1_556 S
C991   H237    1.112   1_556 S
C994   H995    1.111   .     S
C994   H997    1.111   .     S
C994   H996    1.110   .     S
O998   C999    1.410   .     S
O998   C778    1.382   1_655 S
C999   H1001   1.115   .     S
C999   C1002   1.528   .     S
C999   H832    1.115   1_655 S
C1002  H1004   1.112   .     S
C1002  C1005   1.526   .     S
H1003  C246    1.112   1_556 S
C1005  H1006   1.111   .     S
H1007  C249    1.110   1_556 S
H1008  C249    1.111   1_556 S
C1009  O1061   1.290   .     A
C1009  C1020   1.449   .     S
C1009  O1143   1.290   .     S
C1010  C1019   1.449   .     S
C1010  O1062   1.290   .     A
C1010  O1228   1.290   1_455 S
C1011  H1047   1.080   .     S
C1011  C1040   1.413   .     A
C1011  C1013   1.389   .     A
C1012  H1048   1.080   .     S
C1012  C1014   1.389   .     A
C1012  C1039   1.415   .     A
C1013  H1043   1.083   .     S
C1014  H1044   1.083   .     S
C1014  C282    1.396   1_556 S
C1015  H1049   1.083   .     S
C1015  C1020   1.401   .     A
C1016  H1050   1.083   .     S
C1016  C1019   1.401   .     A
C1016  C1270   1.383   .     S
C1017  H1051   1.083   .     S
C1017  C1267   1.383   .     S
C1017  C1103   1.401   .     S
C1018  H1052   1.083   .     S
C1018  C1188   1.401   1_455 S
C1019  C1185   1.401   1_455 S
C1020  C1102   1.401   .     S
C1021  N1058   1.367   .     A
C1021  C1023   1.413   .     A
C1021  H1053   1.080   .     S
C1022  H1054   1.081   .     S
C1022  N1057   1.367   .     A
C1022  C1024   1.414   .     A
C1023  H1055   1.081   .     S
C1023  N1057   1.367   .     A
C1024  H1056   1.081   .     S
C1024  N1058   1.367   .     A
C1025  C1027   1.476   .     S
C1025  O1065   1.291   .     A
C1025  O1147   1.301   .     S
C1026  O1066   1.290   .     A
C1026  C1028   1.475   .     S
C1026  O1232   1.301   1_455 S
C1027  C1031   1.401   .     A
C1027  C1033   1.411   .     A
C1028  C1032   1.401   .     A
C1028  C1034   1.413   .     A
C1029  C1037   1.413   .     A
C1029  C1031   1.410   .     A
C1029  O1155   1.393   .     S
C1030  C1038   1.411   .     A
C1030  C1032   1.399   .     A
C1030  O1250   1.382   1_455 S
C1031  H1130   1.082   .     S
C1032  H1213   1.083   1_455 S
C1033  C1069   1.452   .     S
C1033  C1035   1.404   .     A
C1034  C1067   1.453   .     S
C1034  C1036   1.406   .     A
C1035  C1037   1.418   .     A
C1035  C1039   1.427   .     A
C1036  C1040   1.426   .     A
C1036  C1038   1.417   .     A
C1037  C257    1.397   1_556 S
C1039  C284    1.414   1_556 S
Cu1041 O1063   1.977   .     S
Cu1041 O1066   1.974   .     S
Cu1041 N1057   2.010   .     S
Cu1041 O1062   1.964   .     S
Cu1041 O1059   1.964   .     S
Cu1041 Cu1210  2.675   1_455 S
Cu1042 O1064   1.977   .     S
Cu1042 O1065   1.974   .     S
Cu1042 N1058   2.010   .     S
Cu1042 O1060   1.964   .     S
Cu1042 O1061   1.964   .     S
Cu1042 Cu1125  2.675   .     S
H1045  C1116   1.083   .     S
H1046  C1199   1.082   1_455 S
O1059  C1177   1.290   1_455 S
O1060  C1094   1.290   .     S
O1063  C1193   1.301   1_455 S
O1064  C1110   1.301   .     S
C1067  N1068   1.157   .     T
C1069  N1070   1.157   .     T
O1071  C1072   1.414   .     S
O1071  C1197   1.393   1_455 S
C1072  C1075   1.529   .     S
C1072  H1074   1.116   .     S
C1072  H1073   1.112   .     S
C1075  C1078   1.526   .     S
C1075  H320    1.111   1_556 S
C1075  H321    1.112   1_556 S
C1078  H1079   1.111   .     S
C1078  H1081   1.111   .     S
C1078  H1080   1.110   .     S
O1082  C1083   1.410   .     S
O1082  C1114   1.382   .     S
C1083  H1085   1.115   .     S
C1083  C1086   1.528   .     S
C1083  H1168   1.115   .     S
H1084  C1251   1.115   1_455 S
C1086  H1088   1.112   .     S
C1086  C1089   1.526   .     S
H1087  C330    1.112   1_556 S
C1089  H1090   1.111   .     S
H1091  C333    1.110   1_556 S
H1092  C333    1.111   1_556 S
C1093  O1145   1.290   .     A
C1093  C1104   1.449   .     S
C1093  O1227   1.290   .     S
C1094  C1103   1.449   .     S
C1094  O1146   1.290   .     A
C1095  H1131   1.080   .     S
C1095  C1124   1.413   .     A
C1095  C1097   1.389   .     A
C1096  H1132   1.080   .     S
C1096  C1098   1.389   .     A
C1096  C1123   1.415   .     A
C1097  H1127   1.083   .     S
C1098  H1128   1.083   .     S
C1098  C366    1.396   1_556 S
C1099  H1133   1.083   .     S
C1099  C1104   1.401   .     A
C1100  H1134   1.083   .     S
C1100  C1103   1.401   .     A
C1100  C1354   1.383   .     S
C1101  H1135   1.083   .     S
C1101  C1351   1.383   .     S
C1101  C1187   1.401   .     S
C1102  H1136   1.083   .     S
C1104  C1186   1.401   .     S
C1105  N1142   1.367   .     A
C1105  C1107   1.413   .     A
C1105  H1137   1.080   .     S
C1106  H1138   1.081   .     S
C1106  N1141   1.367   .     A
C1106  C1108   1.414   .     A
C1107  H1139   1.081   .     S
C1107  N1141   1.367   .     A
C1108  H1140   1.081   .     S
C1108  N1142   1.367   .     A
C1109  C1111   1.476   .     S
C1109  O1149   1.291   .     A
C1109  O1231   1.301   .     S
C1110  O1150   1.290   .     A
C1110  C1112   1.475   .     S
C1111  C1115   1.401   .     A
C1111  C1117   1.411   .     A
C1112  C1116   1.401   .     A
C1112  C1118   1.413   .     A
C1113  C1121   1.413   .     A
C1113  C1115   1.410   .     A
C1113  O1239   1.393   .     S
C1114  C1122   1.411   .     A
C1114  C1116   1.399   .     A
C1115  H1214   1.082   .     S
C1117  C1153   1.452   .     S
C1117  C1119   1.404   .     A
C1118  C1151   1.453   .     S
C1118  C1120   1.406   .     A
C1119  C1121   1.418   .     A
C1119  C1123   1.427   .     A
C1120  C1124   1.426   .     A
C1120  C1122   1.417   .     A
C1121  C341    1.397   1_556 S
C1123  C368    1.414   1_556 S
Cu1125 O1147   1.977   .     S
Cu1125 O1150   1.974   .     S
Cu1125 N1141   2.010   .     S
Cu1125 O1146   1.964   .     S
Cu1125 O1143   1.964   .     S
Cu1126 O1148   1.977   .     S
Cu1126 O1149   1.974   .     S
Cu1126 N1142   2.010   .     S
Cu1126 O1144   1.964   .     S
Cu1126 O1145   1.964   .     S
Cu1126 Cu1209  2.675   .     S
H1129  C1200   1.083   .     S
O1144  C1178   1.290   .     S
O1148  C1194   1.301   .     S
C1151  N1152   1.157   .     T
C1153  N1154   1.157   .     T
O1155  C1156   1.414   .     S
C1156  C1159   1.529   .     S
C1156  H1158   1.116   .     S
C1156  H1157   1.112   .     S
C1159  C1162   1.526   .     S
C1159  H404    1.111   1_556 S
C1159  H405    1.112   1_556 S
C1162  H1163   1.111   .     S
C1162  H1165   1.111   .     S
C1162  H1164   1.110   .     S
O1166  C1167   1.410   .     S
O1166  C1198   1.382   .     S
C1167  H1169   1.115   .     S
C1167  C1170   1.528   .     S
C1167  H1252   1.115   .     S
C1170  H1172   1.112   .     S
C1170  C1173   1.526   .     S
H1171  C414    1.112   1_556 S
C1173  H1174   1.111   .     S
H1175  C417    1.110   1_556 S
H1176  C417    1.111   1_556 S
C1177  O1229   1.290   .     A
C1177  C1188   1.449   .     S
C1177  O1059   1.290   1_655 S
C1178  C1187   1.449   .     S
C1178  O1230   1.290   .     A
C1179  H1215   1.080   .     S
C1179  C1208   1.413   .     A
C1179  C1181   1.389   .     A
C1180  H1216   1.080   .     S
C1180  C1182   1.389   .     A
C1180  C1207   1.415   .     A
C1181  H1211   1.083   .     S
C1182  H1212   1.083   .     S
C1182  C450    1.396   1_556 S
C1183  H1217   1.083   .     S
C1183  C1188   1.401   .     A
C1184  H1218   1.083   .     S
C1184  C1187   1.401   .     A
C1184  C1438   1.383   .     S
C1185  H1219   1.083   .     S
C1185  C1435   1.383   .     S
C1185  C1019   1.401   1_655 S
C1186  H1220   1.083   .     S
C1188  C1018   1.401   1_655 S
C1189  N1226   1.367   .     A
C1189  C1191   1.413   .     A
C1189  H1221   1.080   .     S
C1190  H1222   1.081   .     S
C1190  N1225   1.367   .     A
C1190  C1192   1.414   .     A
C1191  H1223   1.081   .     S
C1191  N1225   1.367   .     A
C1192  H1224   1.081   .     S
C1192  N1226   1.367   .     A
C1193  C1195   1.476   .     S
C1193  O1233   1.291   .     A
C1193  O1063   1.301   1_655 S
C1194  O1234   1.290   .     A
C1194  C1196   1.475   .     S
C1195  C1199   1.401   .     A
C1195  C1201   1.411   .     A
C1196  C1200   1.401   .     A
C1196  C1202   1.413   .     A
C1197  C1205   1.413   .     A
C1197  C1199   1.410   .     A
C1197  O1071   1.393   1_655 S
C1198  C1206   1.411   .     A
C1198  C1200   1.399   .     A
C1199  H1046   1.082   1_655 S
C1201  C1237   1.452   .     S
C1201  C1203   1.404   .     A
C1202  C1235   1.453   .     S
C1202  C1204   1.406   .     A
C1203  C1205   1.418   .     A
C1203  C1207   1.427   .     A
C1204  C1208   1.426   .     A
C1204  C1206   1.417   .     A
C1205  C425    1.397   1_556 S
C1207  C452    1.414   1_556 S
Cu1209 O1231   1.977   .     S
Cu1209 O1234   1.974   .     S
Cu1209 N1225   2.010   .     S
Cu1209 O1230   1.964   .     S
Cu1209 O1227   1.964   .     S
Cu1210 O1232   1.977   .     S
Cu1210 O1233   1.974   .     S
Cu1210 N1226   2.010   .     S
Cu1210 O1228   1.964   .     S
Cu1210 O1229   1.964   .     S
Cu1210 Cu1041  2.675   1_655 S
H1213  C1032   1.083   1_655 S
O1228  C1010   1.290   1_655 S
O1232  C1026   1.301   1_655 S
C1235  N1236   1.157   .     T
C1237  N1238   1.157   .     T
O1239  C1240   1.414   .     S
C1240  C1243   1.529   .     S
C1240  H1242   1.116   .     S
C1240  H1241   1.112   .     S
C1243  C1246   1.526   .     S
C1243  H488    1.111   1_556 S
C1243  H489    1.112   1_556 S
C1246  H1247   1.111   .     S
C1246  H1249   1.111   .     S
C1246  H1248   1.110   .     S
O1250  C1251   1.410   .     S
O1250  C1030   1.382   1_655 S
C1251  H1253   1.115   .     S
C1251  C1254   1.528   .     S
C1251  H1084   1.115   1_655 S
C1254  H1256   1.112   .     S
C1254  C1257   1.526   .     S
H1255  C498    1.112   1_556 S
C1257  H1258   1.111   .     S
H1259  C501    1.110   1_556 S
H1260  C501    1.111   1_556 S
C1261  O1313   1.290   .     A
C1261  C1272   1.449   .     S
C1261  O1395   1.290   .     S
C1262  C1271   1.449   .     S
C1262  O1314   1.290   .     A
C1262  O1480   1.290   1_455 S
C1263  H1299   1.080   .     S
C1263  C1292   1.413   .     A
C1263  C1265   1.389   .     A
C1264  H1300   1.080   .     S
C1264  C1266   1.389   .     A
C1264  C1291   1.415   .     A
C1265  H1295   1.083   .     S
C1266  H1296   1.083   .     S
C1266  C534    1.396   1_556 S
C1267  H1301   1.083   .     S
C1267  C1272   1.401   .     A
C1268  H1302   1.083   .     S
C1268  C1271   1.401   .     A
C1268  C766    1.383   1_565 S
C1269  H1303   1.083   .     S
C1269  C763    1.383   1_565 S
C1269  C1355   1.401   .     S
C1270  H1304   1.083   .     S
C1270  C1440   1.401   1_455 S
C1271  C1437   1.401   1_455 S
C1272  C1354   1.401   .     S
C1273  N1310   1.367   .     A
C1273  C1275   1.413   .     A
C1273  H1305   1.080   .     S
C1274  H1306   1.081   .     S
C1274  N1309   1.367   .     A
C1274  C1276   1.414   .     A
C1275  H1307   1.081   .     S
C1275  N1309   1.367   .     A
C1276  H1308   1.081   .     S
C1276  N1310   1.367   .     A
C1277  C1279   1.476   .     S
C1277  O1317   1.291   .     A
C1277  O1399   1.301   .     S
C1278  O1318   1.290   .     A
C1278  C1280   1.475   .     S
C1278  O1484   1.301   1_455 S
C1279  C1283   1.401   .     A
C1279  C1285   1.411   .     A
C1280  C1284   1.401   .     A
C1280  C1286   1.413   .     A
C1281  C1289   1.413   .     A
C1281  C1283   1.410   .     A
C1281  O1407   1.393   .     S
C1282  C1290   1.411   .     A
C1282  C1284   1.399   .     A
C1282  O1502   1.382   1_455 S
C1283  H1382   1.082   .     S
C1284  H1465   1.083   1_455 S
C1285  C1321   1.452   .     S
C1285  C1287   1.404   .     A
C1286  C1319   1.453   .     S
C1286  C1288   1.406   .     A
C1287  C1289   1.418   .     A
C1287  C1291   1.427   .     A
C1288  C1292   1.426   .     A
C1288  C1290   1.417   .     A
C1289  C509    1.397   1_556 S
C1291  C536    1.414   1_556 S
Cu1293 O1315   1.977   .     S
Cu1293 O1318   1.974   .     S
Cu1293 N1309   2.010   .     S
Cu1293 O1314   1.964   .     S
Cu1293 O1311   1.964   .     S
Cu1293 Cu1462  2.675   1_455 S
Cu1294 O1316   1.977   .     S
Cu1294 O1317   1.974   .     S
Cu1294 N1310   2.010   .     S
Cu1294 O1312   1.964   .     S
Cu1294 O1313   1.964   .     S
Cu1294 Cu1377  2.675   .     S
H1297  C1368   1.083   .     S
H1298  C1451   1.082   1_455 S
O1311  C1429   1.290   1_455 S
O1312  C1346   1.290   .     S
O1315  C1445   1.301   1_455 S
O1316  C1362   1.301   .     S
C1319  N1320   1.157   .     T
C1321  N1322   1.157   .     T
O1323  C1324   1.414   .     S
O1323  C1449   1.393   1_455 S
C1324  C1327   1.529   .     S
C1324  H1326   1.116   .     S
C1324  H1325   1.112   .     S
C1327  C1330   1.526   .     S
C1327  H572    1.111   1_556 S
C1327  H573    1.112   1_556 S
C1330  H1331   1.111   .     S
C1330  H1333   1.111   .     S
C1330  H1332   1.110   .     S
O1334  C1335   1.410   .     S
O1334  C1366   1.382   .     S
C1335  H1337   1.115   .     S
C1335  C1338   1.528   .     S
C1335  H1420   1.115   .     S
H1336  C1503   1.115   1_455 S
C1338  H1340   1.112   .     S
C1338  C1341   1.526   .     S
H1339  C582    1.112   1_556 S
C1341  H1342   1.111   .     S
H1343  C585    1.110   1_556 S
H1344  C585    1.111   1_556 S
C1345  O1397   1.290   .     A
C1345  C1356   1.449   .     S
C1345  O1479   1.290   .     S
C1346  C1355   1.449   .     S
C1346  O1398   1.290   .     A
C1347  H1383   1.080   .     S
C1347  C1376   1.413   .     A
C1347  C1349   1.389   .     A
C1348  H1384   1.080   .     S
C1348  C1350   1.389   .     A
C1348  C1375   1.415   .     A
C1349  H1379   1.083   .     S
C1350  H1380   1.083   .     S
C1350  C618    1.396   1_556 S
C1351  H1385   1.083   .     S
C1351  C1356   1.401   .     A
C1352  H1386   1.083   .     S
C1352  C1355   1.401   .     A
C1352  C850    1.383   1_565 S
C1353  H1387   1.083   .     S
C1353  C847    1.383   1_565 S
C1353  C1439   1.401   .     S
C1354  H1388   1.083   .     S
C1356  C1438   1.401   .     S
C1357  N1394   1.367   .     A
C1357  C1359   1.413   .     A
C1357  H1389   1.080   .     S
C1358  H1390   1.081   .     S
C1358  N1393   1.367   .     A
C1358  C1360   1.414   .     A
C1359  H1391   1.081   .     S
C1359  N1393   1.367   .     A
C1360  H1392   1.081   .     S
C1360  N1394   1.367   .     A
C1361  C1363   1.476   .     S
C1361  O1401   1.291   .     A
C1361  O1483   1.301   .     S
C1362  O1402   1.290   .     A
C1362  C1364   1.475   .     S
C1363  C1367   1.401   .     A
C1363  C1369   1.411   .     A
C1364  C1368   1.401   .     A
C1364  C1370   1.413   .     A
C1365  C1373   1.413   .     A
C1365  C1367   1.410   .     A
C1365  O1491   1.393   .     S
C1366  C1374   1.411   .     A
C1366  C1368   1.399   .     A
C1367  H1466   1.082   .     S
C1369  C1405   1.452   .     S
C1369  C1371   1.404   .     A
C1370  C1403   1.453   .     S
C1370  C1372   1.406   .     A
C1371  C1373   1.418   .     A
C1371  C1375   1.427   .     A
C1372  C1376   1.426   .     A
C1372  C1374   1.417   .     A
C1373  C593    1.397   1_556 S
C1375  C620    1.414   1_556 S
Cu1377 O1399   1.977   .     S
Cu1377 O1402   1.974   .     S
Cu1377 N1393   2.010   .     S
Cu1377 O1398   1.964   .     S
Cu1377 O1395   1.964   .     S
Cu1378 O1400   1.977   .     S
Cu1378 O1401   1.974   .     S
Cu1378 N1394   2.010   .     S
Cu1378 O1396   1.964   .     S
Cu1378 O1397   1.964   .     S
Cu1378 Cu1461  2.675   .     S
H1381  C1452   1.083   .     S
O1396  C1430   1.290   .     S
O1400  C1446   1.301   .     S
C1403  N1404   1.157   .     T
C1405  N1406   1.157   .     T
O1407  C1408   1.414   .     S
C1408  C1411   1.529   .     S
C1408  H1410   1.116   .     S
C1408  H1409   1.112   .     S
C1411  C1414   1.526   .     S
C1411  H656    1.111   1_556 S
C1411  H657    1.112   1_556 S
C1414  H1415   1.111   .     S
C1414  H1417   1.111   .     S
C1414  H1416   1.110   .     S
O1418  C1419   1.410   .     S
O1418  C1450   1.382   .     S
C1419  H1421   1.115   .     S
C1419  C1422   1.528   .     S
C1419  H1504   1.115   .     S
C1422  H1424   1.112   .     S
C1422  C1425   1.526   .     S
H1423  C666    1.112   1_556 S
C1425  H1426   1.111   .     S
H1427  C669    1.110   1_556 S
H1428  C669    1.111   1_556 S
C1429  O1481   1.290   .     A
C1429  C1440   1.449   .     S
C1429  O1311   1.290   1_655 S
C1430  C1439   1.449   .     S
C1430  O1482   1.290   .     A
C1431  H1467   1.080   .     S
C1431  C1460   1.413   .     A
C1431  C1433   1.389   .     A
C1432  H1468   1.080   .     S
C1432  C1434   1.389   .     A
C1432  C1459   1.415   .     A
C1433  H1463   1.083   .     S
C1434  H1464   1.083   .     S
C1434  C702    1.396   1_556 S
C1435  H1469   1.083   .     S
C1435  C1440   1.401   .     A
C1436  H1470   1.083   .     S
C1436  C1439   1.401   .     A
C1436  C934    1.383   1_565 S
C1437  H1471   1.083   .     S
C1437  C931    1.383   1_565 S
C1437  C1271   1.401   1_655 S
C1438  H1472   1.083   .     S
C1440  C1270   1.401   1_655 S
C1441  N1478   1.367   .     A
C1441  C1443   1.413   .     A
C1441  H1473   1.080   .     S
C1442  H1474   1.081   .     S
C1442  N1477   1.367   .     A
C1442  C1444   1.414   .     A
C1443  H1475   1.081   .     S
C1443  N1477   1.367   .     A
C1444  H1476   1.081   .     S
C1444  N1478   1.367   .     A
C1445  C1447   1.476   .     S
C1445  O1485   1.291   .     A
C1445  O1315   1.301   1_655 S
C1446  O1486   1.290   .     A
C1446  C1448   1.475   .     S
C1447  C1451   1.401   .     A
C1447  C1453   1.411   .     A
C1448  C1452   1.401   .     A
C1448  C1454   1.413   .     A
C1449  C1457   1.413   .     A
C1449  C1451   1.410   .     A
C1449  O1323   1.393   1_655 S
C1450  C1458   1.411   .     A
C1450  C1452   1.399   .     A
C1451  H1298   1.082   1_655 S
C1453  C1489   1.452   .     S
C1453  C1455   1.404   .     A
C1454  C1487   1.453   .     S
C1454  C1456   1.406   .     A
C1455  C1457   1.418   .     A
C1455  C1459   1.427   .     A
C1456  C1460   1.426   .     A
C1456  C1458   1.417   .     A
C1457  C677    1.397   1_556 S
C1459  C704    1.414   1_556 S
Cu1461 O1483   1.977   .     S
Cu1461 O1486   1.974   .     S
Cu1461 N1477   2.010   .     S
Cu1461 O1482   1.964   .     S
Cu1461 O1479   1.964   .     S
Cu1462 O1484   1.977   .     S
Cu1462 O1485   1.974   .     S
Cu1462 N1478   2.010   .     S
Cu1462 O1480   1.964   .     S
Cu1462 O1481   1.964   .     S
Cu1462 Cu1293  2.675   1_655 S
H1465  C1284   1.083   1_655 S
O1480  C1262   1.290   1_655 S
O1484  C1278   1.301   1_655 S
C1487  N1488   1.157   .     T
C1489  N1490   1.157   .     T
O1491  C1492   1.414   .     S
C1492  C1495   1.529   .     S
C1492  H1494   1.116   .     S
C1492  H1493   1.112   .     S
C1495  C1498   1.526   .     S
C1495  H740    1.111   1_556 S
C1495  H741    1.112   1_556 S
C1498  H1499   1.111   .     S
C1498  H1501   1.111   .     S
C1498  H1500   1.110   .     S
O1502  C1503   1.410   .     S
O1502  C1282   1.382   1_655 S
C1503  H1505   1.115   .     S
C1503  C1506   1.528   .     S
C1503  H1336   1.115   1_655 S
C1506  H1508   1.112   .     S
C1506  C1509   1.526   .     S
H1507  C750    1.112   1_556 S
C1509  H1510   1.111   .     S
H1511  C753    1.110   1_556 S
H1512  C753    1.111   1_556 S
