data_str_m3_o10_o17_pcu_sym.74
_audit_creation_date              2020-01-03
_audit_creation_method            'Materials Studio'
_symmetry_space_group_name_H-M    'P1'
_symmetry_Int_Tables_number       1
_symmetry_cell_setting            triclinic
loop_
_symmetry_equiv_pos_as_xyz
  x,y,z
_cell_length_a                    23.5838
_cell_length_b                    25.6575
_cell_length_c                    29.8732
_cell_angle_alpha                 92.8114
_cell_angle_beta                  84.7553
_cell_angle_gamma                 94.0297
loop_
_atom_site_label
_atom_site_type_symbol
_atom_site_fract_x
_atom_site_fract_y
_atom_site_fract_z
_atom_site_U_iso_or_equiv
_atom_site_adp_type
_atom_site_occupancy
C1     C     0.18186   0.26481   0.24899   0.00000  Uiso   1.00
C2     C     0.19243   0.20907   0.40658   0.00000  Uiso   1.00
C3     C     0.16739   0.16697   0.11589   0.00000  Uiso   1.00
C4     C     0.16594   0.16636   0.38411   0.00000  Uiso   1.00
C5     C     0.19813   0.20758   0.09278   0.00000  Uiso   1.00
C6     C     0.13521   0.12575   0.40722   0.00000  Uiso   1.00
C7     C     0.20033   0.20587   0.04587   0.00000  Uiso   1.00
C8     C     0.13300   0.12747   0.45413   0.00000  Uiso   1.00
C9     C     0.16667   0.16676   0.02346   0.00000  Uiso   1.00
C10    C     0.16666   0.16658   0.47654   0.00000  Uiso   1.00
C11    C     0.13360   0.12750   0.04787   0.00000  Uiso   1.00
C12    C     0.15147   0.06853   0.25101   0.00000  Uiso   1.00
C13    C     0.19973   0.20583   0.45213   0.00000  Uiso   1.00
C14    C     0.23665   0.24126   0.02084   0.00000  Uiso   1.00
C15    C     0.09669   0.09207   0.47916   0.00000  Uiso   1.00
C16    C     0.23816   0.24042   0.47438   0.00000  Uiso   1.00
C17    C     0.09517   0.09291   0.02562   0.00000  Uiso   1.00
C18    C     0.18976   0.31945   0.24842   0.00000  Uiso   1.00
C19    C     0.14357   0.01389   0.25158   0.00000  Uiso   1.00
C20    C     0.16659   0.16651   0.33632   0.00000  Uiso   1.00
C21    C     0.16675   0.16682   0.16368   0.00000  Uiso   1.00
C22    C     0.14090   0.12426   0.09342   0.00000  Uiso   1.00
H23    H     0.26650   0.26841   0.03668   0.00000  Uiso   1.00
H24    H     0.06684   0.06493   0.46332   0.00000  Uiso   1.00
H25    H     0.23338   0.00326   0.24536   0.00000  Uiso   1.00
H26    H     0.09996   0.33007   0.25464   0.00000  Uiso   1.00
I27    I     0.14007   0.04959   0.12284   0.00000  Uiso   1.00
I28    I     0.19326   0.28375   0.37716   0.00000  Uiso   1.00
I29    I     0.24334   0.26925   0.12932   0.00000  Uiso   1.00
I30    I     0.09000   0.06408   0.37068   0.00000  Uiso   1.00
I31    I     0.31080   0.28232   0.44235   0.00000  Uiso   1.00
I32    I     0.02253   0.05102   0.05765   0.00000  Uiso   1.00
I33    I     0.01030   0.09155   0.19548   0.00000  Uiso   1.00
I34    I     0.32303   0.24178   0.30452   0.00000  Uiso   1.00
N35    N     0.31678   0.15265   0.23783   0.00000  Uiso   1.00
N36    N     0.01656   0.18068   0.26217   0.00000  Uiso   1.00
O37    O     0.12975   0.24619   0.25298   0.00000  Uiso   1.00
O38    O     0.20358   0.08714   0.24701   0.00000  Uiso   1.00
O39    O     0.22613   0.23721   0.24518   0.00000  Uiso   1.00
O40    O     0.10720   0.09613   0.25481   0.00000  Uiso   1.00
O41    O     0.11847   0.17117   0.31997   0.00000  Uiso   1.00
O42    O     0.21486   0.16216   0.18002   0.00000  Uiso   1.00
O43    O     0.21485   0.16219   0.31217   0.00000  Uiso   1.00
O44    O     0.11848   0.17115   0.18782   0.00000  Uiso   1.00
Zn45   Zn    0.10231   0.17266   0.25521   0.00000  Uiso   1.00
Zn46   Zn    0.23102   0.16067   0.24479   0.00000  Uiso   1.00
C47    C     0.51519   0.26481   0.24899   0.00000  Uiso   1.00
C48    C     0.52576   0.20907   0.40658   0.00000  Uiso   1.00
C49    C     0.50072   0.16697   0.11589   0.00000  Uiso   1.00
C50    C     0.49928   0.16636   0.38411   0.00000  Uiso   1.00
C51    C     0.53146   0.20758   0.09278   0.00000  Uiso   1.00
C52    C     0.46854   0.12575   0.40722   0.00000  Uiso   1.00
C53    C     0.53367   0.20587   0.04587   0.00000  Uiso   1.00
C54    C     0.46633   0.12747   0.45413   0.00000  Uiso   1.00
C55    C     0.50001   0.16676   0.02346   0.00000  Uiso   1.00
C56    C     0.49999   0.16658   0.47654   0.00000  Uiso   1.00
C57    C     0.46693   0.12750   0.04787   0.00000  Uiso   1.00
C58    C     0.48481   0.06853   0.25101   0.00000  Uiso   1.00
C59    C     0.53307   0.20583   0.45213   0.00000  Uiso   1.00
C60    C     0.56998   0.24126   0.02084   0.00000  Uiso   1.00
C61    C     0.43002   0.09207   0.47916   0.00000  Uiso   1.00
C62    C     0.57150   0.24042   0.47438   0.00000  Uiso   1.00
C63    C     0.42850   0.09291   0.02562   0.00000  Uiso   1.00
C64    C     0.52310   0.31945   0.24842   0.00000  Uiso   1.00
C65    C     0.47691   0.01389   0.25158   0.00000  Uiso   1.00
C66    C     0.49992   0.16651   0.33632   0.00000  Uiso   1.00
C67    C     0.50008   0.16682   0.16368   0.00000  Uiso   1.00
C68    C     0.47424   0.12426   0.09342   0.00000  Uiso   1.00
H69    H     0.59983   0.26841   0.03668   0.00000  Uiso   1.00
H70    H     0.40017   0.06493   0.46332   0.00000  Uiso   1.00
H71    H     0.56671   0.00326   0.24536   0.00000  Uiso   1.00
H72    H     0.43329   0.33007   0.25464   0.00000  Uiso   1.00
I73    I     0.47341   0.04959   0.12284   0.00000  Uiso   1.00
I74    I     0.52659   0.28375   0.37716   0.00000  Uiso   1.00
I75    I     0.57667   0.26925   0.12932   0.00000  Uiso   1.00
I76    I     0.42333   0.06408   0.37068   0.00000  Uiso   1.00
I77    I     0.64414   0.28232   0.44235   0.00000  Uiso   1.00
I78    I     0.35586   0.05102   0.05765   0.00000  Uiso   1.00
I79    I     0.34364   0.09155   0.19548   0.00000  Uiso   1.00
I80    I     0.65636   0.24178   0.30452   0.00000  Uiso   1.00
N81    N     0.65011   0.15265   0.23783   0.00000  Uiso   1.00
N82    N     0.34989   0.18068   0.26217   0.00000  Uiso   1.00
O83    O     0.46308   0.24619   0.25298   0.00000  Uiso   1.00
O84    O     0.53692   0.08714   0.24701   0.00000  Uiso   1.00
O85    O     0.55946   0.23721   0.24518   0.00000  Uiso   1.00
O86    O     0.44054   0.09613   0.25481   0.00000  Uiso   1.00
O87    O     0.45181   0.17117   0.31997   0.00000  Uiso   1.00
O88    O     0.54819   0.16216   0.18002   0.00000  Uiso   1.00
O89    O     0.54819   0.16219   0.31217   0.00000  Uiso   1.00
O90    O     0.45181   0.17115   0.18782   0.00000  Uiso   1.00
Zn91   Zn    0.43565   0.17266   0.25521   0.00000  Uiso   1.00
Zn92   Zn    0.56435   0.16067   0.24479   0.00000  Uiso   1.00
C93    C     0.84853   0.26481   0.24899   0.00000  Uiso   1.00
C94    C     0.85910   0.20907   0.40658   0.00000  Uiso   1.00
C95    C     0.83406   0.16697   0.11589   0.00000  Uiso   1.00
C96    C     0.83261   0.16636   0.38411   0.00000  Uiso   1.00
C97    C     0.86479   0.20758   0.09278   0.00000  Uiso   1.00
C98    C     0.80187   0.12575   0.40722   0.00000  Uiso   1.00
C99    C     0.86700   0.20587   0.04587   0.00000  Uiso   1.00
C100   C     0.79967   0.12747   0.45413   0.00000  Uiso   1.00
C101   C     0.83334   0.16676   0.02346   0.00000  Uiso   1.00
C102   C     0.83333   0.16658   0.47654   0.00000  Uiso   1.00
C103   C     0.80027   0.12750   0.04787   0.00000  Uiso   1.00
C104   C     0.81814   0.06853   0.25101   0.00000  Uiso   1.00
C105   C     0.86640   0.20583   0.45213   0.00000  Uiso   1.00
C106   C     0.90331   0.24126   0.02084   0.00000  Uiso   1.00
C107   C     0.76335   0.09207   0.47916   0.00000  Uiso   1.00
C108   C     0.90483   0.24042   0.47438   0.00000  Uiso   1.00
C109   C     0.76184   0.09291   0.02562   0.00000  Uiso   1.00
C110   C     0.85643   0.31945   0.24842   0.00000  Uiso   1.00
C111   C     0.81024   0.01389   0.25158   0.00000  Uiso   1.00
C112   C     0.83325   0.16651   0.33632   0.00000  Uiso   1.00
C113   C     0.83341   0.16682   0.16368   0.00000  Uiso   1.00
C114   C     0.80757   0.12426   0.09342   0.00000  Uiso   1.00
H115   H     0.93316   0.26841   0.03668   0.00000  Uiso   1.00
H116   H     0.73351   0.06493   0.46332   0.00000  Uiso   1.00
H117   H     0.90004   0.00326   0.24536   0.00000  Uiso   1.00
H118   H     0.76662   0.33007   0.25464   0.00000  Uiso   1.00
I119   I     0.80674   0.04959   0.12284   0.00000  Uiso   1.00
I120   I     0.85993   0.28375   0.37716   0.00000  Uiso   1.00
I121   I     0.91000   0.26925   0.12932   0.00000  Uiso   1.00
I122   I     0.75666   0.06408   0.37068   0.00000  Uiso   1.00
I123   I     0.97747   0.28232   0.44235   0.00000  Uiso   1.00
I124   I     0.68920   0.05102   0.05765   0.00000  Uiso   1.00
I125   I     0.67697   0.09155   0.19548   0.00000  Uiso   1.00
I126   I     0.98970   0.24178   0.30452   0.00000  Uiso   1.00
N127   N     0.98344   0.15265   0.23783   0.00000  Uiso   1.00
N128   N     0.68322   0.18068   0.26217   0.00000  Uiso   1.00
O129   O     0.79642   0.24619   0.25298   0.00000  Uiso   1.00
O130   O     0.87025   0.08714   0.24701   0.00000  Uiso   1.00
O131   O     0.89280   0.23721   0.24518   0.00000  Uiso   1.00
O132   O     0.77387   0.09613   0.25481   0.00000  Uiso   1.00
O133   O     0.78514   0.17117   0.31997   0.00000  Uiso   1.00
O134   O     0.88153   0.16216   0.18002   0.00000  Uiso   1.00
O135   O     0.88152   0.16219   0.31217   0.00000  Uiso   1.00
O136   O     0.78515   0.17115   0.18782   0.00000  Uiso   1.00
Zn137  Zn    0.76898   0.17266   0.25521   0.00000  Uiso   1.00
Zn138  Zn    0.89769   0.16067   0.24479   0.00000  Uiso   1.00
C139   C     0.18186   0.59814   0.24899   0.00000  Uiso   1.00
C140   C     0.19243   0.54241   0.40658   0.00000  Uiso   1.00
C141   C     0.16739   0.50030   0.11589   0.00000  Uiso   1.00
C142   C     0.16594   0.49970   0.38411   0.00000  Uiso   1.00
C143   C     0.19813   0.54092   0.09278   0.00000  Uiso   1.00
C144   C     0.13521   0.45908   0.40722   0.00000  Uiso   1.00
C145   C     0.20033   0.53920   0.04587   0.00000  Uiso   1.00
C146   C     0.13300   0.46080   0.45413   0.00000  Uiso   1.00
C147   C     0.16667   0.50009   0.02346   0.00000  Uiso   1.00
C148   C     0.16666   0.49991   0.47654   0.00000  Uiso   1.00
C149   C     0.13360   0.46084   0.04787   0.00000  Uiso   1.00
C150   C     0.15147   0.40186   0.25101   0.00000  Uiso   1.00
C151   C     0.19973   0.53916   0.45213   0.00000  Uiso   1.00
C152   C     0.23665   0.57459   0.02084   0.00000  Uiso   1.00
C153   C     0.09669   0.42541   0.47916   0.00000  Uiso   1.00
C154   C     0.23816   0.57375   0.47438   0.00000  Uiso   1.00
C155   C     0.09517   0.42625   0.02562   0.00000  Uiso   1.00
C156   C     0.18976   0.65278   0.24842   0.00000  Uiso   1.00
C157   C     0.14357   0.34722   0.25158   0.00000  Uiso   1.00
C158   C     0.16659   0.49985   0.33632   0.00000  Uiso   1.00
C159   C     0.16675   0.50015   0.16368   0.00000  Uiso   1.00
C160   C     0.14090   0.45759   0.09342   0.00000  Uiso   1.00
H161   H     0.26650   0.60174   0.03668   0.00000  Uiso   1.00
H162   H     0.06684   0.39826   0.46332   0.00000  Uiso   1.00
H163   H     0.23338   0.33659   0.24536   0.00000  Uiso   1.00
H164   H     0.09996   0.66341   0.25464   0.00000  Uiso   1.00
I165   I     0.14007   0.38292   0.12284   0.00000  Uiso   1.00
I166   I     0.19326   0.61708   0.37716   0.00000  Uiso   1.00
I167   I     0.24334   0.60258   0.12932   0.00000  Uiso   1.00
I168   I     0.09000   0.39742   0.37068   0.00000  Uiso   1.00
I169   I     0.31080   0.61565   0.44235   0.00000  Uiso   1.00
I170   I     0.02253   0.38435   0.05765   0.00000  Uiso   1.00
I171   I     0.01030   0.42489   0.19548   0.00000  Uiso   1.00
I172   I     0.32303   0.57511   0.30452   0.00000  Uiso   1.00
N173   N     0.31678   0.48598   0.23783   0.00000  Uiso   1.00
N174   N     0.01656   0.51402   0.26217   0.00000  Uiso   1.00
O175   O     0.12975   0.57952   0.25298   0.00000  Uiso   1.00
O176   O     0.20358   0.42048   0.24701   0.00000  Uiso   1.00
O177   O     0.22613   0.57054   0.24518   0.00000  Uiso   1.00
O178   O     0.10720   0.42946   0.25481   0.00000  Uiso   1.00
O179   O     0.11847   0.50450   0.31997   0.00000  Uiso   1.00
O180   O     0.21486   0.49550   0.18002   0.00000  Uiso   1.00
O181   O     0.21485   0.49552   0.31217   0.00000  Uiso   1.00
O182   O     0.11848   0.50448   0.18782   0.00000  Uiso   1.00
Zn183  Zn    0.10231   0.50600   0.25521   0.00000  Uiso   1.00
Zn184  Zn    0.23102   0.49400   0.24479   0.00000  Uiso   1.00
C185   C     0.51519   0.59814   0.24899   0.00000  Uiso   1.00
C186   C     0.52576   0.54241   0.40658   0.00000  Uiso   1.00
C187   C     0.50072   0.50030   0.11589   0.00000  Uiso   1.00
C188   C     0.49928   0.49970   0.38411   0.00000  Uiso   1.00
C189   C     0.53146   0.54092   0.09278   0.00000  Uiso   1.00
C190   C     0.46854   0.45908   0.40722   0.00000  Uiso   1.00
C191   C     0.53367   0.53920   0.04587   0.00000  Uiso   1.00
C192   C     0.46633   0.46080   0.45413   0.00000  Uiso   1.00
C193   C     0.50001   0.50009   0.02346   0.00000  Uiso   1.00
C194   C     0.49999   0.49991   0.47654   0.00000  Uiso   1.00
C195   C     0.46693   0.46084   0.04787   0.00000  Uiso   1.00
C196   C     0.48481   0.40186   0.25101   0.00000  Uiso   1.00
C197   C     0.53307   0.53916   0.45213   0.00000  Uiso   1.00
C198   C     0.56998   0.57459   0.02084   0.00000  Uiso   1.00
C199   C     0.43002   0.42541   0.47916   0.00000  Uiso   1.00
C200   C     0.57150   0.57375   0.47438   0.00000  Uiso   1.00
C201   C     0.42850   0.42625   0.02562   0.00000  Uiso   1.00
C202   C     0.52310   0.65278   0.24842   0.00000  Uiso   1.00
C203   C     0.47691   0.34722   0.25158   0.00000  Uiso   1.00
C204   C     0.49992   0.49985   0.33632   0.00000  Uiso   1.00
C205   C     0.50008   0.50015   0.16368   0.00000  Uiso   1.00
C206   C     0.47424   0.45759   0.09342   0.00000  Uiso   1.00
H207   H     0.59983   0.60174   0.03668   0.00000  Uiso   1.00
H208   H     0.40017   0.39826   0.46332   0.00000  Uiso   1.00
H209   H     0.56671   0.33659   0.24536   0.00000  Uiso   1.00
H210   H     0.43329   0.66341   0.25464   0.00000  Uiso   1.00
I211   I     0.47341   0.38292   0.12284   0.00000  Uiso   1.00
I212   I     0.52659   0.61708   0.37716   0.00000  Uiso   1.00
I213   I     0.57667   0.60258   0.12932   0.00000  Uiso   1.00
I214   I     0.42333   0.39742   0.37068   0.00000  Uiso   1.00
I215   I     0.64414   0.61565   0.44235   0.00000  Uiso   1.00
I216   I     0.35586   0.38435   0.05765   0.00000  Uiso   1.00
I217   I     0.34364   0.42489   0.19548   0.00000  Uiso   1.00
I218   I     0.65636   0.57511   0.30452   0.00000  Uiso   1.00
N219   N     0.65011   0.48598   0.23783   0.00000  Uiso   1.00
N220   N     0.34989   0.51402   0.26217   0.00000  Uiso   1.00
O221   O     0.46308   0.57952   0.25298   0.00000  Uiso   1.00
O222   O     0.53692   0.42048   0.24701   0.00000  Uiso   1.00
O223   O     0.55946   0.57054   0.24518   0.00000  Uiso   1.00
O224   O     0.44054   0.42946   0.25481   0.00000  Uiso   1.00
O225   O     0.45181   0.50450   0.31997   0.00000  Uiso   1.00
O226   O     0.54819   0.49550   0.18002   0.00000  Uiso   1.00
O227   O     0.54819   0.49552   0.31217   0.00000  Uiso   1.00
O228   O     0.45181   0.50448   0.18782   0.00000  Uiso   1.00
Zn229  Zn    0.43565   0.50600   0.25521   0.00000  Uiso   1.00
Zn230  Zn    0.56435   0.49400   0.24479   0.00000  Uiso   1.00
C231   C     0.84853   0.59814   0.24899   0.00000  Uiso   1.00
C232   C     0.85910   0.54241   0.40658   0.00000  Uiso   1.00
C233   C     0.83406   0.50030   0.11589   0.00000  Uiso   1.00
C234   C     0.83261   0.49970   0.38411   0.00000  Uiso   1.00
C235   C     0.86479   0.54092   0.09278   0.00000  Uiso   1.00
C236   C     0.80187   0.45908   0.40722   0.00000  Uiso   1.00
C237   C     0.86700   0.53920   0.04587   0.00000  Uiso   1.00
C238   C     0.79967   0.46080   0.45413   0.00000  Uiso   1.00
C239   C     0.83334   0.50009   0.02346   0.00000  Uiso   1.00
C240   C     0.83333   0.49991   0.47654   0.00000  Uiso   1.00
C241   C     0.80027   0.46084   0.04787   0.00000  Uiso   1.00
C242   C     0.81814   0.40186   0.25101   0.00000  Uiso   1.00
C243   C     0.86640   0.53916   0.45213   0.00000  Uiso   1.00
C244   C     0.90331   0.57459   0.02084   0.00000  Uiso   1.00
C245   C     0.76335   0.42541   0.47916   0.00000  Uiso   1.00
C246   C     0.90483   0.57375   0.47438   0.00000  Uiso   1.00
C247   C     0.76184   0.42625   0.02562   0.00000  Uiso   1.00
C248   C     0.85643   0.65278   0.24842   0.00000  Uiso   1.00
C249   C     0.81024   0.34722   0.25158   0.00000  Uiso   1.00
C250   C     0.83325   0.49985   0.33632   0.00000  Uiso   1.00
C251   C     0.83341   0.50015   0.16368   0.00000  Uiso   1.00
C252   C     0.80757   0.45759   0.09342   0.00000  Uiso   1.00
H253   H     0.93316   0.60174   0.03668   0.00000  Uiso   1.00
H254   H     0.73351   0.39826   0.46332   0.00000  Uiso   1.00
H255   H     0.90004   0.33659   0.24536   0.00000  Uiso   1.00
H256   H     0.76662   0.66341   0.25464   0.00000  Uiso   1.00
I257   I     0.80674   0.38292   0.12284   0.00000  Uiso   1.00
I258   I     0.85993   0.61708   0.37716   0.00000  Uiso   1.00
I259   I     0.91000   0.60258   0.12932   0.00000  Uiso   1.00
I260   I     0.75666   0.39742   0.37068   0.00000  Uiso   1.00
I261   I     0.97747   0.61565   0.44235   0.00000  Uiso   1.00
I262   I     0.68920   0.38435   0.05765   0.00000  Uiso   1.00
I263   I     0.67697   0.42489   0.19548   0.00000  Uiso   1.00
I264   I     0.98970   0.57511   0.30452   0.00000  Uiso   1.00
N265   N     0.98344   0.48598   0.23783   0.00000  Uiso   1.00
N266   N     0.68322   0.51402   0.26217   0.00000  Uiso   1.00
O267   O     0.79642   0.57952   0.25298   0.00000  Uiso   1.00
O268   O     0.87025   0.42048   0.24701   0.00000  Uiso   1.00
O269   O     0.89280   0.57054   0.24518   0.00000  Uiso   1.00
O270   O     0.77387   0.42946   0.25481   0.00000  Uiso   1.00
O271   O     0.78514   0.50450   0.31997   0.00000  Uiso   1.00
O272   O     0.88153   0.49550   0.18002   0.00000  Uiso   1.00
O273   O     0.88152   0.49552   0.31217   0.00000  Uiso   1.00
O274   O     0.78515   0.50448   0.18782   0.00000  Uiso   1.00
Zn275  Zn    0.76898   0.50600   0.25521   0.00000  Uiso   1.00
Zn276  Zn    0.89769   0.49400   0.24479   0.00000  Uiso   1.00
C277   C     0.18186   0.93147   0.24899   0.00000  Uiso   1.00
C278   C     0.19243   0.87574   0.40658   0.00000  Uiso   1.00
C279   C     0.16739   0.83364   0.11589   0.00000  Uiso   1.00
C280   C     0.16594   0.83303   0.38411   0.00000  Uiso   1.00
C281   C     0.19813   0.87425   0.09278   0.00000  Uiso   1.00
C282   C     0.13521   0.79242   0.40722   0.00000  Uiso   1.00
C283   C     0.20033   0.87253   0.04587   0.00000  Uiso   1.00
C284   C     0.13300   0.79413   0.45413   0.00000  Uiso   1.00
C285   C     0.16667   0.83342   0.02346   0.00000  Uiso   1.00
C286   C     0.16666   0.83324   0.47654   0.00000  Uiso   1.00
C287   C     0.13360   0.79417   0.04787   0.00000  Uiso   1.00
C288   C     0.15147   0.73519   0.25101   0.00000  Uiso   1.00
C289   C     0.19973   0.87250   0.45213   0.00000  Uiso   1.00
C290   C     0.23665   0.90793   0.02084   0.00000  Uiso   1.00
C291   C     0.09669   0.75874   0.47916   0.00000  Uiso   1.00
C292   C     0.23816   0.90709   0.47438   0.00000  Uiso   1.00
C293   C     0.09517   0.75958   0.02562   0.00000  Uiso   1.00
C294   C     0.18976   0.98611   0.24842   0.00000  Uiso   1.00
C295   C     0.14357   0.68055   0.25158   0.00000  Uiso   1.00
C296   C     0.16659   0.83318   0.33632   0.00000  Uiso   1.00
C297   C     0.16675   0.83349   0.16368   0.00000  Uiso   1.00
C298   C     0.14090   0.79093   0.09342   0.00000  Uiso   1.00
H299   H     0.26650   0.93507   0.03668   0.00000  Uiso   1.00
H300   H     0.06684   0.73159   0.46332   0.00000  Uiso   1.00
H301   H     0.23338   0.66993   0.24536   0.00000  Uiso   1.00
H302   H     0.09996   0.99674   0.25464   0.00000  Uiso   1.00
I303   I     0.14007   0.71625   0.12284   0.00000  Uiso   1.00
I304   I     0.19326   0.95041   0.37716   0.00000  Uiso   1.00
I305   I     0.24334   0.93592   0.12932   0.00000  Uiso   1.00
I306   I     0.09000   0.73075   0.37068   0.00000  Uiso   1.00
I307   I     0.31080   0.94898   0.44235   0.00000  Uiso   1.00
I308   I     0.02253   0.71768   0.05765   0.00000  Uiso   1.00
I309   I     0.01030   0.75822   0.19548   0.00000  Uiso   1.00
I310   I     0.32303   0.90845   0.30452   0.00000  Uiso   1.00
N311   N     0.31678   0.81932   0.23783   0.00000  Uiso   1.00
N312   N     0.01656   0.84735   0.26217   0.00000  Uiso   1.00
O313   O     0.12975   0.91286   0.25298   0.00000  Uiso   1.00
O314   O     0.20358   0.75381   0.24701   0.00000  Uiso   1.00
O315   O     0.22613   0.90387   0.24518   0.00000  Uiso   1.00
O316   O     0.10720   0.76279   0.25481   0.00000  Uiso   1.00
O317   O     0.11847   0.83784   0.31997   0.00000  Uiso   1.00
O318   O     0.21486   0.82883   0.18002   0.00000  Uiso   1.00
O319   O     0.21485   0.82885   0.31217   0.00000  Uiso   1.00
O320   O     0.11848   0.83781   0.18782   0.00000  Uiso   1.00
Zn321  Zn    0.10231   0.83933   0.25521   0.00000  Uiso   1.00
Zn322  Zn    0.23102   0.82734   0.24479   0.00000  Uiso   1.00
C323   C     0.51519   0.93147   0.24899   0.00000  Uiso   1.00
C324   C     0.52576   0.87574   0.40658   0.00000  Uiso   1.00
C325   C     0.50072   0.83364   0.11589   0.00000  Uiso   1.00
C326   C     0.49928   0.83303   0.38411   0.00000  Uiso   1.00
C327   C     0.53146   0.87425   0.09278   0.00000  Uiso   1.00
C328   C     0.46854   0.79242   0.40722   0.00000  Uiso   1.00
C329   C     0.53367   0.87253   0.04587   0.00000  Uiso   1.00
C330   C     0.46633   0.79413   0.45413   0.00000  Uiso   1.00
C331   C     0.50001   0.83342   0.02346   0.00000  Uiso   1.00
C332   C     0.49999   0.83324   0.47654   0.00000  Uiso   1.00
C333   C     0.46693   0.79417   0.04787   0.00000  Uiso   1.00
C334   C     0.48481   0.73519   0.25101   0.00000  Uiso   1.00
C335   C     0.53307   0.87250   0.45213   0.00000  Uiso   1.00
C336   C     0.56998   0.90793   0.02084   0.00000  Uiso   1.00
C337   C     0.43002   0.75874   0.47916   0.00000  Uiso   1.00
C338   C     0.57150   0.90709   0.47438   0.00000  Uiso   1.00
C339   C     0.42850   0.75958   0.02562   0.00000  Uiso   1.00
C340   C     0.52310   0.98611   0.24842   0.00000  Uiso   1.00
C341   C     0.47691   0.68055   0.25158   0.00000  Uiso   1.00
C342   C     0.49992   0.83318   0.33632   0.00000  Uiso   1.00
C343   C     0.50008   0.83349   0.16368   0.00000  Uiso   1.00
C344   C     0.47424   0.79093   0.09342   0.00000  Uiso   1.00
H345   H     0.59983   0.93507   0.03668   0.00000  Uiso   1.00
H346   H     0.40017   0.73159   0.46332   0.00000  Uiso   1.00
H347   H     0.56671   0.66993   0.24536   0.00000  Uiso   1.00
H348   H     0.43329   0.99674   0.25464   0.00000  Uiso   1.00
I349   I     0.47341   0.71625   0.12284   0.00000  Uiso   1.00
I350   I     0.52659   0.95041   0.37716   0.00000  Uiso   1.00
I351   I     0.57667   0.93592   0.12932   0.00000  Uiso   1.00
I352   I     0.42333   0.73075   0.37068   0.00000  Uiso   1.00
I353   I     0.64414   0.94898   0.44235   0.00000  Uiso   1.00
I354   I     0.35586   0.71768   0.05765   0.00000  Uiso   1.00
I355   I     0.34364   0.75822   0.19548   0.00000  Uiso   1.00
I356   I     0.65636   0.90845   0.30452   0.00000  Uiso   1.00
N357   N     0.65011   0.81932   0.23783   0.00000  Uiso   1.00
N358   N     0.34989   0.84735   0.26217   0.00000  Uiso   1.00
O359   O     0.46308   0.91286   0.25298   0.00000  Uiso   1.00
O360   O     0.53692   0.75381   0.24701   0.00000  Uiso   1.00
O361   O     0.55946   0.90387   0.24518   0.00000  Uiso   1.00
O362   O     0.44054   0.76279   0.25481   0.00000  Uiso   1.00
O363   O     0.45181   0.83784   0.31997   0.00000  Uiso   1.00
O364   O     0.54819   0.82883   0.18002   0.00000  Uiso   1.00
O365   O     0.54819   0.82885   0.31217   0.00000  Uiso   1.00
O366   O     0.45181   0.83781   0.18782   0.00000  Uiso   1.00
Zn367  Zn    0.43565   0.83933   0.25521   0.00000  Uiso   1.00
Zn368  Zn    0.56435   0.82734   0.24479   0.00000  Uiso   1.00
C369   C     0.84853   0.93147   0.24899   0.00000  Uiso   1.00
C370   C     0.85910   0.87574   0.40658   0.00000  Uiso   1.00
C371   C     0.83406   0.83364   0.11589   0.00000  Uiso   1.00
C372   C     0.83261   0.83303   0.38411   0.00000  Uiso   1.00
C373   C     0.86479   0.87425   0.09278   0.00000  Uiso   1.00
C374   C     0.80187   0.79242   0.40722   0.00000  Uiso   1.00
C375   C     0.86700   0.87253   0.04587   0.00000  Uiso   1.00
C376   C     0.79967   0.79413   0.45413   0.00000  Uiso   1.00
C377   C     0.83334   0.83342   0.02346   0.00000  Uiso   1.00
C378   C     0.83333   0.83324   0.47654   0.00000  Uiso   1.00
C379   C     0.80027   0.79417   0.04787   0.00000  Uiso   1.00
C380   C     0.81814   0.73519   0.25101   0.00000  Uiso   1.00
C381   C     0.86640   0.87250   0.45213   0.00000  Uiso   1.00
C382   C     0.90331   0.90793   0.02084   0.00000  Uiso   1.00
C383   C     0.76335   0.75874   0.47916   0.00000  Uiso   1.00
C384   C     0.90483   0.90709   0.47438   0.00000  Uiso   1.00
C385   C     0.76184   0.75958   0.02562   0.00000  Uiso   1.00
C386   C     0.85643   0.98611   0.24842   0.00000  Uiso   1.00
C387   C     0.81024   0.68055   0.25158   0.00000  Uiso   1.00
C388   C     0.83325   0.83318   0.33632   0.00000  Uiso   1.00
C389   C     0.83341   0.83349   0.16368   0.00000  Uiso   1.00
C390   C     0.80757   0.79093   0.09342   0.00000  Uiso   1.00
H391   H     0.93316   0.93507   0.03668   0.00000  Uiso   1.00
H392   H     0.73351   0.73159   0.46332   0.00000  Uiso   1.00
H393   H     0.90004   0.66993   0.24536   0.00000  Uiso   1.00
H394   H     0.76662   0.99674   0.25464   0.00000  Uiso   1.00
I395   I     0.80674   0.71625   0.12284   0.00000  Uiso   1.00
I396   I     0.85993   0.95041   0.37716   0.00000  Uiso   1.00
I397   I     0.91000   0.93592   0.12932   0.00000  Uiso   1.00
I398   I     0.75666   0.73075   0.37068   0.00000  Uiso   1.00
I399   I     0.97747   0.94898   0.44235   0.00000  Uiso   1.00
I400   I     0.68920   0.71768   0.05765   0.00000  Uiso   1.00
I401   I     0.67697   0.75822   0.19548   0.00000  Uiso   1.00
I402   I     0.98970   0.90845   0.30452   0.00000  Uiso   1.00
N403   N     0.98344   0.81932   0.23783   0.00000  Uiso   1.00
N404   N     0.68322   0.84735   0.26217   0.00000  Uiso   1.00
O405   O     0.79642   0.91286   0.25298   0.00000  Uiso   1.00
O406   O     0.87025   0.75381   0.24701   0.00000  Uiso   1.00
O407   O     0.89280   0.90387   0.24518   0.00000  Uiso   1.00
O408   O     0.77387   0.76279   0.25481   0.00000  Uiso   1.00
O409   O     0.78514   0.83784   0.31997   0.00000  Uiso   1.00
O410   O     0.88153   0.82883   0.18002   0.00000  Uiso   1.00
O411   O     0.88152   0.82885   0.31217   0.00000  Uiso   1.00
O412   O     0.78515   0.83781   0.18782   0.00000  Uiso   1.00
Zn413  Zn    0.76898   0.83933   0.25521   0.00000  Uiso   1.00
Zn414  Zn    0.89769   0.82734   0.24479   0.00000  Uiso   1.00
C415   C     0.18186   0.26481   0.74899   0.00000  Uiso   1.00
C416   C     0.19243   0.20907   0.90658   0.00000  Uiso   1.00
C417   C     0.16739   0.16697   0.61589   0.00000  Uiso   1.00
C418   C     0.16594   0.16636   0.88411   0.00000  Uiso   1.00
C419   C     0.19813   0.20758   0.59278   0.00000  Uiso   1.00
C420   C     0.13521   0.12575   0.90722   0.00000  Uiso   1.00
C421   C     0.20033   0.20587   0.54587   0.00000  Uiso   1.00
C422   C     0.13300   0.12747   0.95413   0.00000  Uiso   1.00
C423   C     0.16667   0.16676   0.52346   0.00000  Uiso   1.00
C424   C     0.16666   0.16658   0.97654   0.00000  Uiso   1.00
C425   C     0.13360   0.12750   0.54787   0.00000  Uiso   1.00
C426   C     0.15147   0.06853   0.75101   0.00000  Uiso   1.00
C427   C     0.19973   0.20583   0.95213   0.00000  Uiso   1.00
C428   C     0.23665   0.24126   0.52084   0.00000  Uiso   1.00
C429   C     0.09669   0.09207   0.97916   0.00000  Uiso   1.00
C430   C     0.23816   0.24042   0.97438   0.00000  Uiso   1.00
C431   C     0.09517   0.09291   0.52562   0.00000  Uiso   1.00
C432   C     0.18976   0.31945   0.74842   0.00000  Uiso   1.00
C433   C     0.14357   0.01389   0.75158   0.00000  Uiso   1.00
C434   C     0.16659   0.16651   0.83632   0.00000  Uiso   1.00
C435   C     0.16675   0.16682   0.66368   0.00000  Uiso   1.00
C436   C     0.14090   0.12426   0.59342   0.00000  Uiso   1.00
H437   H     0.26650   0.26841   0.53668   0.00000  Uiso   1.00
H438   H     0.06684   0.06493   0.96332   0.00000  Uiso   1.00
H439   H     0.23338   0.00326   0.74536   0.00000  Uiso   1.00
H440   H     0.09996   0.33007   0.75464   0.00000  Uiso   1.00
I441   I     0.14007   0.04959   0.62284   0.00000  Uiso   1.00
I442   I     0.19326   0.28375   0.87716   0.00000  Uiso   1.00
I443   I     0.24334   0.26925   0.62932   0.00000  Uiso   1.00
I444   I     0.09000   0.06408   0.87068   0.00000  Uiso   1.00
I445   I     0.31080   0.28232   0.94235   0.00000  Uiso   1.00
I446   I     0.02253   0.05102   0.55765   0.00000  Uiso   1.00
I447   I     0.01030   0.09155   0.69548   0.00000  Uiso   1.00
I448   I     0.32303   0.24178   0.80452   0.00000  Uiso   1.00
N449   N     0.31678   0.15265   0.73783   0.00000  Uiso   1.00
N450   N     0.01656   0.18068   0.76217   0.00000  Uiso   1.00
O451   O     0.12975   0.24619   0.75298   0.00000  Uiso   1.00
O452   O     0.20358   0.08714   0.74701   0.00000  Uiso   1.00
O453   O     0.22613   0.23721   0.74518   0.00000  Uiso   1.00
O454   O     0.10720   0.09613   0.75481   0.00000  Uiso   1.00
O455   O     0.11847   0.17117   0.81997   0.00000  Uiso   1.00
O456   O     0.21486   0.16216   0.68002   0.00000  Uiso   1.00
O457   O     0.21485   0.16219   0.81217   0.00000  Uiso   1.00
O458   O     0.11848   0.17115   0.68782   0.00000  Uiso   1.00
Zn459  Zn    0.10231   0.17266   0.75521   0.00000  Uiso   1.00
Zn460  Zn    0.23102   0.16067   0.74479   0.00000  Uiso   1.00
C461   C     0.51519   0.26481   0.74899   0.00000  Uiso   1.00
C462   C     0.52576   0.20907   0.90658   0.00000  Uiso   1.00
C463   C     0.50072   0.16697   0.61589   0.00000  Uiso   1.00
C464   C     0.49928   0.16636   0.88411   0.00000  Uiso   1.00
C465   C     0.53146   0.20758   0.59278   0.00000  Uiso   1.00
C466   C     0.46854   0.12575   0.90722   0.00000  Uiso   1.00
C467   C     0.53367   0.20587   0.54587   0.00000  Uiso   1.00
C468   C     0.46633   0.12747   0.95413   0.00000  Uiso   1.00
C469   C     0.50001   0.16676   0.52346   0.00000  Uiso   1.00
C470   C     0.49999   0.16658   0.97654   0.00000  Uiso   1.00
C471   C     0.46693   0.12750   0.54787   0.00000  Uiso   1.00
C472   C     0.48481   0.06853   0.75101   0.00000  Uiso   1.00
C473   C     0.53307   0.20583   0.95213   0.00000  Uiso   1.00
C474   C     0.56998   0.24126   0.52084   0.00000  Uiso   1.00
C475   C     0.43002   0.09207   0.97916   0.00000  Uiso   1.00
C476   C     0.57150   0.24042   0.97438   0.00000  Uiso   1.00
C477   C     0.42850   0.09291   0.52562   0.00000  Uiso   1.00
C478   C     0.52310   0.31945   0.74842   0.00000  Uiso   1.00
C479   C     0.47691   0.01389   0.75158   0.00000  Uiso   1.00
C480   C     0.49992   0.16651   0.83632   0.00000  Uiso   1.00
C481   C     0.50008   0.16682   0.66368   0.00000  Uiso   1.00
C482   C     0.47424   0.12426   0.59342   0.00000  Uiso   1.00
H483   H     0.59983   0.26841   0.53668   0.00000  Uiso   1.00
H484   H     0.40017   0.06493   0.96332   0.00000  Uiso   1.00
H485   H     0.56671   0.00326   0.74536   0.00000  Uiso   1.00
H486   H     0.43329   0.33007   0.75464   0.00000  Uiso   1.00
I487   I     0.47341   0.04959   0.62284   0.00000  Uiso   1.00
I488   I     0.52659   0.28375   0.87716   0.00000  Uiso   1.00
I489   I     0.57667   0.26925   0.62932   0.00000  Uiso   1.00
I490   I     0.42333   0.06408   0.87068   0.00000  Uiso   1.00
I491   I     0.64414   0.28232   0.94235   0.00000  Uiso   1.00
I492   I     0.35586   0.05102   0.55765   0.00000  Uiso   1.00
I493   I     0.34364   0.09155   0.69548   0.00000  Uiso   1.00
I494   I     0.65636   0.24178   0.80452   0.00000  Uiso   1.00
N495   N     0.65011   0.15265   0.73783   0.00000  Uiso   1.00
N496   N     0.34989   0.18068   0.76217   0.00000  Uiso   1.00
O497   O     0.46308   0.24619   0.75298   0.00000  Uiso   1.00
O498   O     0.53692   0.08714   0.74701   0.00000  Uiso   1.00
O499   O     0.55946   0.23721   0.74518   0.00000  Uiso   1.00
O500   O     0.44054   0.09613   0.75481   0.00000  Uiso   1.00
O501   O     0.45181   0.17117   0.81997   0.00000  Uiso   1.00
O502   O     0.54819   0.16216   0.68002   0.00000  Uiso   1.00
O503   O     0.54819   0.16219   0.81217   0.00000  Uiso   1.00
O504   O     0.45181   0.17115   0.68782   0.00000  Uiso   1.00
Zn505  Zn    0.43565   0.17266   0.75521   0.00000  Uiso   1.00
Zn506  Zn    0.56435   0.16067   0.74479   0.00000  Uiso   1.00
C507   C     0.84853   0.26481   0.74899   0.00000  Uiso   1.00
C508   C     0.85910   0.20907   0.90658   0.00000  Uiso   1.00
C509   C     0.83406   0.16697   0.61589   0.00000  Uiso   1.00
C510   C     0.83261   0.16636   0.88411   0.00000  Uiso   1.00
C511   C     0.86479   0.20758   0.59278   0.00000  Uiso   1.00
C512   C     0.80187   0.12575   0.90722   0.00000  Uiso   1.00
C513   C     0.86700   0.20587   0.54587   0.00000  Uiso   1.00
C514   C     0.79967   0.12747   0.95413   0.00000  Uiso   1.00
C515   C     0.83334   0.16676   0.52346   0.00000  Uiso   1.00
C516   C     0.83333   0.16658   0.97654   0.00000  Uiso   1.00
C517   C     0.80027   0.12750   0.54787   0.00000  Uiso   1.00
C518   C     0.81814   0.06853   0.75101   0.00000  Uiso   1.00
C519   C     0.86640   0.20583   0.95213   0.00000  Uiso   1.00
C520   C     0.90331   0.24126   0.52084   0.00000  Uiso   1.00
C521   C     0.76335   0.09207   0.97916   0.00000  Uiso   1.00
C522   C     0.90483   0.24042   0.97438   0.00000  Uiso   1.00
C523   C     0.76184   0.09291   0.52562   0.00000  Uiso   1.00
C524   C     0.85643   0.31945   0.74842   0.00000  Uiso   1.00
C525   C     0.81024   0.01389   0.75158   0.00000  Uiso   1.00
C526   C     0.83325   0.16651   0.83632   0.00000  Uiso   1.00
C527   C     0.83341   0.16682   0.66368   0.00000  Uiso   1.00
C528   C     0.80757   0.12426   0.59342   0.00000  Uiso   1.00
H529   H     0.93316   0.26841   0.53668   0.00000  Uiso   1.00
H530   H     0.73351   0.06493   0.96332   0.00000  Uiso   1.00
H531   H     0.90004   0.00326   0.74536   0.00000  Uiso   1.00
H532   H     0.76662   0.33007   0.75464   0.00000  Uiso   1.00
I533   I     0.80674   0.04959   0.62284   0.00000  Uiso   1.00
I534   I     0.85993   0.28375   0.87716   0.00000  Uiso   1.00
I535   I     0.91000   0.26925   0.62932   0.00000  Uiso   1.00
I536   I     0.75666   0.06408   0.87068   0.00000  Uiso   1.00
I537   I     0.97747   0.28232   0.94235   0.00000  Uiso   1.00
I538   I     0.68920   0.05102   0.55765   0.00000  Uiso   1.00
I539   I     0.67697   0.09155   0.69548   0.00000  Uiso   1.00
I540   I     0.98970   0.24178   0.80452   0.00000  Uiso   1.00
N541   N     0.98344   0.15265   0.73783   0.00000  Uiso   1.00
N542   N     0.68322   0.18068   0.76217   0.00000  Uiso   1.00
O543   O     0.79642   0.24619   0.75298   0.00000  Uiso   1.00
O544   O     0.87025   0.08714   0.74701   0.00000  Uiso   1.00
O545   O     0.89280   0.23721   0.74518   0.00000  Uiso   1.00
O546   O     0.77387   0.09613   0.75481   0.00000  Uiso   1.00
O547   O     0.78514   0.17117   0.81997   0.00000  Uiso   1.00
O548   O     0.88153   0.16216   0.68002   0.00000  Uiso   1.00
O549   O     0.88152   0.16219   0.81217   0.00000  Uiso   1.00
O550   O     0.78515   0.17115   0.68782   0.00000  Uiso   1.00
Zn551  Zn    0.76898   0.17266   0.75521   0.00000  Uiso   1.00
Zn552  Zn    0.89769   0.16067   0.74479   0.00000  Uiso   1.00
C553   C     0.18186   0.59814   0.74899   0.00000  Uiso   1.00
C554   C     0.19243   0.54241   0.90658   0.00000  Uiso   1.00
C555   C     0.16739   0.50030   0.61589   0.00000  Uiso   1.00
C556   C     0.16594   0.49970   0.88411   0.00000  Uiso   1.00
C557   C     0.19813   0.54092   0.59278   0.00000  Uiso   1.00
C558   C     0.13521   0.45908   0.90722   0.00000  Uiso   1.00
C559   C     0.20033   0.53920   0.54587   0.00000  Uiso   1.00
C560   C     0.13300   0.46080   0.95413   0.00000  Uiso   1.00
C561   C     0.16667   0.50009   0.52346   0.00000  Uiso   1.00
C562   C     0.16666   0.49991   0.97654   0.00000  Uiso   1.00
C563   C     0.13360   0.46084   0.54787   0.00000  Uiso   1.00
C564   C     0.15147   0.40186   0.75101   0.00000  Uiso   1.00
C565   C     0.19973   0.53916   0.95213   0.00000  Uiso   1.00
C566   C     0.23665   0.57459   0.52084   0.00000  Uiso   1.00
C567   C     0.09669   0.42541   0.97916   0.00000  Uiso   1.00
C568   C     0.23816   0.57375   0.97438   0.00000  Uiso   1.00
C569   C     0.09517   0.42625   0.52562   0.00000  Uiso   1.00
C570   C     0.18976   0.65278   0.74842   0.00000  Uiso   1.00
C571   C     0.14357   0.34722   0.75158   0.00000  Uiso   1.00
C572   C     0.16659   0.49985   0.83632   0.00000  Uiso   1.00
C573   C     0.16675   0.50015   0.66368   0.00000  Uiso   1.00
C574   C     0.14090   0.45759   0.59342   0.00000  Uiso   1.00
H575   H     0.26650   0.60174   0.53668   0.00000  Uiso   1.00
H576   H     0.06684   0.39826   0.96332   0.00000  Uiso   1.00
H577   H     0.23338   0.33659   0.74536   0.00000  Uiso   1.00
H578   H     0.09996   0.66341   0.75464   0.00000  Uiso   1.00
I579   I     0.14007   0.38292   0.62284   0.00000  Uiso   1.00
I580   I     0.19326   0.61708   0.87716   0.00000  Uiso   1.00
I581   I     0.24334   0.60258   0.62932   0.00000  Uiso   1.00
I582   I     0.09000   0.39742   0.87068   0.00000  Uiso   1.00
I583   I     0.31080   0.61565   0.94235   0.00000  Uiso   1.00
I584   I     0.02253   0.38435   0.55765   0.00000  Uiso   1.00
I585   I     0.01030   0.42489   0.69548   0.00000  Uiso   1.00
I586   I     0.32303   0.57511   0.80452   0.00000  Uiso   1.00
N587   N     0.31678   0.48598   0.73783   0.00000  Uiso   1.00
N588   N     0.01656   0.51402   0.76217   0.00000  Uiso   1.00
O589   O     0.12975   0.57952   0.75298   0.00000  Uiso   1.00
O590   O     0.20358   0.42048   0.74701   0.00000  Uiso   1.00
O591   O     0.22613   0.57054   0.74518   0.00000  Uiso   1.00
O592   O     0.10720   0.42946   0.75481   0.00000  Uiso   1.00
O593   O     0.11847   0.50450   0.81997   0.00000  Uiso   1.00
O594   O     0.21486   0.49550   0.68002   0.00000  Uiso   1.00
O595   O     0.21485   0.49552   0.81217   0.00000  Uiso   1.00
O596   O     0.11848   0.50448   0.68782   0.00000  Uiso   1.00
Zn597  Zn    0.10231   0.50600   0.75521   0.00000  Uiso   1.00
Zn598  Zn    0.23102   0.49400   0.74479   0.00000  Uiso   1.00
C599   C     0.51519   0.59814   0.74899   0.00000  Uiso   1.00
C600   C     0.52576   0.54241   0.90658   0.00000  Uiso   1.00
C601   C     0.50072   0.50030   0.61589   0.00000  Uiso   1.00
C602   C     0.49928   0.49970   0.88411   0.00000  Uiso   1.00
C603   C     0.53146   0.54092   0.59278   0.00000  Uiso   1.00
C604   C     0.46854   0.45908   0.90722   0.00000  Uiso   1.00
C605   C     0.53367   0.53920   0.54587   0.00000  Uiso   1.00
C606   C     0.46633   0.46080   0.95413   0.00000  Uiso   1.00
C607   C     0.50001   0.50009   0.52346   0.00000  Uiso   1.00
C608   C     0.49999   0.49991   0.97654   0.00000  Uiso   1.00
C609   C     0.46693   0.46084   0.54787   0.00000  Uiso   1.00
C610   C     0.48481   0.40186   0.75101   0.00000  Uiso   1.00
C611   C     0.53307   0.53916   0.95213   0.00000  Uiso   1.00
C612   C     0.56998   0.57459   0.52084   0.00000  Uiso   1.00
C613   C     0.43002   0.42541   0.97916   0.00000  Uiso   1.00
C614   C     0.57150   0.57375   0.97438   0.00000  Uiso   1.00
C615   C     0.42850   0.42625   0.52562   0.00000  Uiso   1.00
C616   C     0.52310   0.65278   0.74842   0.00000  Uiso   1.00
C617   C     0.47691   0.34722   0.75158   0.00000  Uiso   1.00
C618   C     0.49992   0.49985   0.83632   0.00000  Uiso   1.00
C619   C     0.50008   0.50015   0.66368   0.00000  Uiso   1.00
C620   C     0.47424   0.45759   0.59342   0.00000  Uiso   1.00
H621   H     0.59983   0.60174   0.53668   0.00000  Uiso   1.00
H622   H     0.40017   0.39826   0.96332   0.00000  Uiso   1.00
H623   H     0.56671   0.33659   0.74536   0.00000  Uiso   1.00
H624   H     0.43329   0.66341   0.75464   0.00000  Uiso   1.00
I625   I     0.47341   0.38292   0.62284   0.00000  Uiso   1.00
I626   I     0.52659   0.61708   0.87716   0.00000  Uiso   1.00
I627   I     0.57667   0.60258   0.62932   0.00000  Uiso   1.00
I628   I     0.42333   0.39742   0.87068   0.00000  Uiso   1.00
I629   I     0.64414   0.61565   0.94235   0.00000  Uiso   1.00
I630   I     0.35586   0.38435   0.55765   0.00000  Uiso   1.00
I631   I     0.34364   0.42489   0.69548   0.00000  Uiso   1.00
I632   I     0.65636   0.57511   0.80452   0.00000  Uiso   1.00
N633   N     0.65011   0.48598   0.73783   0.00000  Uiso   1.00
N634   N     0.34989   0.51402   0.76217   0.00000  Uiso   1.00
O635   O     0.46308   0.57952   0.75298   0.00000  Uiso   1.00
O636   O     0.53692   0.42048   0.74701   0.00000  Uiso   1.00
O637   O     0.55946   0.57054   0.74518   0.00000  Uiso   1.00
O638   O     0.44054   0.42946   0.75481   0.00000  Uiso   1.00
O639   O     0.45181   0.50450   0.81997   0.00000  Uiso   1.00
O640   O     0.54819   0.49550   0.68002   0.00000  Uiso   1.00
O641   O     0.54819   0.49552   0.81217   0.00000  Uiso   1.00
O642   O     0.45181   0.50448   0.68782   0.00000  Uiso   1.00
Zn643  Zn    0.43565   0.50600   0.75521   0.00000  Uiso   1.00
Zn644  Zn    0.56435   0.49400   0.74479   0.00000  Uiso   1.00
C645   C     0.84853   0.59814   0.74899   0.00000  Uiso   1.00
C646   C     0.85910   0.54241   0.90658   0.00000  Uiso   1.00
C647   C     0.83406   0.50030   0.61589   0.00000  Uiso   1.00
C648   C     0.83261   0.49970   0.88411   0.00000  Uiso   1.00
C649   C     0.86479   0.54092   0.59278   0.00000  Uiso   1.00
C650   C     0.80187   0.45908   0.90722   0.00000  Uiso   1.00
C651   C     0.86700   0.53920   0.54587   0.00000  Uiso   1.00
C652   C     0.79967   0.46080   0.95413   0.00000  Uiso   1.00
C653   C     0.83334   0.50009   0.52346   0.00000  Uiso   1.00
C654   C     0.83333   0.49991   0.97654   0.00000  Uiso   1.00
C655   C     0.80027   0.46084   0.54787   0.00000  Uiso   1.00
C656   C     0.81814   0.40186   0.75101   0.00000  Uiso   1.00
C657   C     0.86640   0.53916   0.95213   0.00000  Uiso   1.00
C658   C     0.90331   0.57459   0.52084   0.00000  Uiso   1.00
C659   C     0.76335   0.42541   0.97916   0.00000  Uiso   1.00
C660   C     0.90483   0.57375   0.97438   0.00000  Uiso   1.00
C661   C     0.76184   0.42625   0.52562   0.00000  Uiso   1.00
C662   C     0.85643   0.65278   0.74842   0.00000  Uiso   1.00
C663   C     0.81024   0.34722   0.75158   0.00000  Uiso   1.00
C664   C     0.83325   0.49985   0.83632   0.00000  Uiso   1.00
C665   C     0.83341   0.50015   0.66368   0.00000  Uiso   1.00
C666   C     0.80757   0.45759   0.59342   0.00000  Uiso   1.00
H667   H     0.93316   0.60174   0.53668   0.00000  Uiso   1.00
H668   H     0.73351   0.39826   0.96332   0.00000  Uiso   1.00
H669   H     0.90004   0.33659   0.74536   0.00000  Uiso   1.00
H670   H     0.76662   0.66341   0.75464   0.00000  Uiso   1.00
I671   I     0.80674   0.38292   0.62284   0.00000  Uiso   1.00
I672   I     0.85993   0.61708   0.87716   0.00000  Uiso   1.00
I673   I     0.91000   0.60258   0.62932   0.00000  Uiso   1.00
I674   I     0.75666   0.39742   0.87068   0.00000  Uiso   1.00
I675   I     0.97747   0.61565   0.94235   0.00000  Uiso   1.00
I676   I     0.68920   0.38435   0.55765   0.00000  Uiso   1.00
I677   I     0.67697   0.42489   0.69548   0.00000  Uiso   1.00
I678   I     0.98970   0.57511   0.80452   0.00000  Uiso   1.00
N679   N     0.98344   0.48598   0.73783   0.00000  Uiso   1.00
N680   N     0.68322   0.51402   0.76217   0.00000  Uiso   1.00
O681   O     0.79642   0.57952   0.75298   0.00000  Uiso   1.00
O682   O     0.87025   0.42048   0.74701   0.00000  Uiso   1.00
O683   O     0.89280   0.57054   0.74518   0.00000  Uiso   1.00
O684   O     0.77387   0.42946   0.75481   0.00000  Uiso   1.00
O685   O     0.78514   0.50450   0.81997   0.00000  Uiso   1.00
O686   O     0.88153   0.49550   0.68002   0.00000  Uiso   1.00
O687   O     0.88152   0.49552   0.81217   0.00000  Uiso   1.00
O688   O     0.78515   0.50448   0.68782   0.00000  Uiso   1.00
Zn689  Zn    0.76898   0.50600   0.75521   0.00000  Uiso   1.00
Zn690  Zn    0.89769   0.49400   0.74479   0.00000  Uiso   1.00
C691   C     0.18186   0.93147   0.74899   0.00000  Uiso   1.00
C692   C     0.19243   0.87574   0.90658   0.00000  Uiso   1.00
C693   C     0.16739   0.83364   0.61589   0.00000  Uiso   1.00
C694   C     0.16594   0.83303   0.88411   0.00000  Uiso   1.00
C695   C     0.19813   0.87425   0.59278   0.00000  Uiso   1.00
C696   C     0.13521   0.79242   0.90722   0.00000  Uiso   1.00
C697   C     0.20033   0.87253   0.54587   0.00000  Uiso   1.00
C698   C     0.13300   0.79413   0.95413   0.00000  Uiso   1.00
C699   C     0.16667   0.83342   0.52346   0.00000  Uiso   1.00
C700   C     0.16666   0.83324   0.97654   0.00000  Uiso   1.00
C701   C     0.13360   0.79417   0.54787   0.00000  Uiso   1.00
C702   C     0.15147   0.73519   0.75101   0.00000  Uiso   1.00
C703   C     0.19973   0.87250   0.95213   0.00000  Uiso   1.00
C704   C     0.23665   0.90793   0.52084   0.00000  Uiso   1.00
C705   C     0.09669   0.75874   0.97916   0.00000  Uiso   1.00
C706   C     0.23816   0.90709   0.97438   0.00000  Uiso   1.00
C707   C     0.09517   0.75958   0.52562   0.00000  Uiso   1.00
C708   C     0.18976   0.98611   0.74842   0.00000  Uiso   1.00
C709   C     0.14357   0.68055   0.75158   0.00000  Uiso   1.00
C710   C     0.16659   0.83318   0.83632   0.00000  Uiso   1.00
C711   C     0.16675   0.83349   0.66368   0.00000  Uiso   1.00
C712   C     0.14090   0.79093   0.59342   0.00000  Uiso   1.00
H713   H     0.26650   0.93507   0.53668   0.00000  Uiso   1.00
H714   H     0.06684   0.73159   0.96332   0.00000  Uiso   1.00
H715   H     0.23338   0.66993   0.74536   0.00000  Uiso   1.00
H716   H     0.09996   0.99674   0.75464   0.00000  Uiso   1.00
I717   I     0.14007   0.71625   0.62284   0.00000  Uiso   1.00
I718   I     0.19326   0.95041   0.87716   0.00000  Uiso   1.00
I719   I     0.24334   0.93592   0.62932   0.00000  Uiso   1.00
I720   I     0.09000   0.73075   0.87068   0.00000  Uiso   1.00
I721   I     0.31080   0.94898   0.94235   0.00000  Uiso   1.00
I722   I     0.02253   0.71768   0.55765   0.00000  Uiso   1.00
I723   I     0.01030   0.75822   0.69548   0.00000  Uiso   1.00
I724   I     0.32303   0.90845   0.80452   0.00000  Uiso   1.00
N725   N     0.31678   0.81932   0.73783   0.00000  Uiso   1.00
N726   N     0.01656   0.84735   0.76217   0.00000  Uiso   1.00
O727   O     0.12975   0.91286   0.75298   0.00000  Uiso   1.00
O728   O     0.20358   0.75381   0.74701   0.00000  Uiso   1.00
O729   O     0.22613   0.90387   0.74518   0.00000  Uiso   1.00
O730   O     0.10720   0.76279   0.75481   0.00000  Uiso   1.00
O731   O     0.11847   0.83784   0.81997   0.00000  Uiso   1.00
O732   O     0.21486   0.82883   0.68002   0.00000  Uiso   1.00
O733   O     0.21485   0.82885   0.81217   0.00000  Uiso   1.00
O734   O     0.11848   0.83781   0.68782   0.00000  Uiso   1.00
Zn735  Zn    0.10231   0.83933   0.75521   0.00000  Uiso   1.00
Zn736  Zn    0.23102   0.82734   0.74479   0.00000  Uiso   1.00
C737   C     0.51519   0.93147   0.74899   0.00000  Uiso   1.00
C738   C     0.52576   0.87574   0.90658   0.00000  Uiso   1.00
C739   C     0.50072   0.83364   0.61589   0.00000  Uiso   1.00
C740   C     0.49928   0.83303   0.88411   0.00000  Uiso   1.00
C741   C     0.53146   0.87425   0.59278   0.00000  Uiso   1.00
C742   C     0.46854   0.79242   0.90722   0.00000  Uiso   1.00
C743   C     0.53367   0.87253   0.54587   0.00000  Uiso   1.00
C744   C     0.46633   0.79413   0.95413   0.00000  Uiso   1.00
C745   C     0.50001   0.83342   0.52346   0.00000  Uiso   1.00
C746   C     0.49999   0.83324   0.97654   0.00000  Uiso   1.00
C747   C     0.46693   0.79417   0.54787   0.00000  Uiso   1.00
C748   C     0.48481   0.73519   0.75101   0.00000  Uiso   1.00
C749   C     0.53307   0.87250   0.95213   0.00000  Uiso   1.00
C750   C     0.56998   0.90793   0.52084   0.00000  Uiso   1.00
C751   C     0.43002   0.75874   0.97916   0.00000  Uiso   1.00
C752   C     0.57150   0.90709   0.97438   0.00000  Uiso   1.00
C753   C     0.42850   0.75958   0.52562   0.00000  Uiso   1.00
C754   C     0.52310   0.98611   0.74842   0.00000  Uiso   1.00
C755   C     0.47691   0.68055   0.75158   0.00000  Uiso   1.00
C756   C     0.49992   0.83318   0.83632   0.00000  Uiso   1.00
C757   C     0.50008   0.83349   0.66368   0.00000  Uiso   1.00
C758   C     0.47424   0.79093   0.59342   0.00000  Uiso   1.00
H759   H     0.59983   0.93507   0.53668   0.00000  Uiso   1.00
H760   H     0.40017   0.73159   0.96332   0.00000  Uiso   1.00
H761   H     0.56671   0.66993   0.74536   0.00000  Uiso   1.00
H762   H     0.43329   0.99674   0.75464   0.00000  Uiso   1.00
I763   I     0.47341   0.71625   0.62284   0.00000  Uiso   1.00
I764   I     0.52659   0.95041   0.87716   0.00000  Uiso   1.00
I765   I     0.57667   0.93592   0.62932   0.00000  Uiso   1.00
I766   I     0.42333   0.73075   0.87068   0.00000  Uiso   1.00
I767   I     0.64414   0.94898   0.94235   0.00000  Uiso   1.00
I768   I     0.35586   0.71768   0.55765   0.00000  Uiso   1.00
I769   I     0.34364   0.75822   0.69548   0.00000  Uiso   1.00
I770   I     0.65636   0.90845   0.80452   0.00000  Uiso   1.00
N771   N     0.65011   0.81932   0.73783   0.00000  Uiso   1.00
N772   N     0.34989   0.84735   0.76217   0.00000  Uiso   1.00
O773   O     0.46308   0.91286   0.75298   0.00000  Uiso   1.00
O774   O     0.53692   0.75381   0.74701   0.00000  Uiso   1.00
O775   O     0.55946   0.90387   0.74518   0.00000  Uiso   1.00
O776   O     0.44054   0.76279   0.75481   0.00000  Uiso   1.00
O777   O     0.45181   0.83784   0.81997   0.00000  Uiso   1.00
O778   O     0.54819   0.82883   0.68002   0.00000  Uiso   1.00
O779   O     0.54819   0.82885   0.81217   0.00000  Uiso   1.00
O780   O     0.45181   0.83781   0.68782   0.00000  Uiso   1.00
Zn781  Zn    0.43565   0.83933   0.75521   0.00000  Uiso   1.00
Zn782  Zn    0.56435   0.82734   0.74479   0.00000  Uiso   1.00
C783   C     0.84853   0.93147   0.74899   0.00000  Uiso   1.00
C784   C     0.85910   0.87574   0.90658   0.00000  Uiso   1.00
C785   C     0.83406   0.83364   0.61589   0.00000  Uiso   1.00
C786   C     0.83261   0.83303   0.88411   0.00000  Uiso   1.00
C787   C     0.86479   0.87425   0.59278   0.00000  Uiso   1.00
C788   C     0.80187   0.79242   0.90722   0.00000  Uiso   1.00
C789   C     0.86700   0.87253   0.54587   0.00000  Uiso   1.00
C790   C     0.79967   0.79413   0.95413   0.00000  Uiso   1.00
C791   C     0.83334   0.83342   0.52346   0.00000  Uiso   1.00
C792   C     0.83333   0.83324   0.97654   0.00000  Uiso   1.00
C793   C     0.80027   0.79417   0.54787   0.00000  Uiso   1.00
C794   C     0.81814   0.73519   0.75101   0.00000  Uiso   1.00
C795   C     0.86640   0.87250   0.95213   0.00000  Uiso   1.00
C796   C     0.90331   0.90793   0.52084   0.00000  Uiso   1.00
C797   C     0.76335   0.75874   0.97916   0.00000  Uiso   1.00
C798   C     0.90483   0.90709   0.97438   0.00000  Uiso   1.00
C799   C     0.76184   0.75958   0.52562   0.00000  Uiso   1.00
C800   C     0.85643   0.98611   0.74842   0.00000  Uiso   1.00
C801   C     0.81024   0.68055   0.75158   0.00000  Uiso   1.00
C802   C     0.83325   0.83318   0.83632   0.00000  Uiso   1.00
C803   C     0.83341   0.83349   0.66368   0.00000  Uiso   1.00
C804   C     0.80757   0.79093   0.59342   0.00000  Uiso   1.00
H805   H     0.93316   0.93507   0.53668   0.00000  Uiso   1.00
H806   H     0.73351   0.73159   0.96332   0.00000  Uiso   1.00
H807   H     0.90004   0.66993   0.74536   0.00000  Uiso   1.00
H808   H     0.76662   0.99674   0.75464   0.00000  Uiso   1.00
I809   I     0.80674   0.71625   0.62284   0.00000  Uiso   1.00
I810   I     0.85993   0.95041   0.87716   0.00000  Uiso   1.00
I811   I     0.91000   0.93592   0.62932   0.00000  Uiso   1.00
I812   I     0.75666   0.73075   0.87068   0.00000  Uiso   1.00
I813   I     0.97747   0.94898   0.94235   0.00000  Uiso   1.00
I814   I     0.68920   0.71768   0.55765   0.00000  Uiso   1.00
I815   I     0.67697   0.75822   0.69548   0.00000  Uiso   1.00
I816   I     0.98970   0.90845   0.80452   0.00000  Uiso   1.00
N817   N     0.98344   0.81932   0.73783   0.00000  Uiso   1.00
N818   N     0.68322   0.84735   0.76217   0.00000  Uiso   1.00
O819   O     0.79642   0.91286   0.75298   0.00000  Uiso   1.00
O820   O     0.87025   0.75381   0.74701   0.00000  Uiso   1.00
O821   O     0.89280   0.90387   0.74518   0.00000  Uiso   1.00
O822   O     0.77387   0.76279   0.75481   0.00000  Uiso   1.00
O823   O     0.78514   0.83784   0.81997   0.00000  Uiso   1.00
O824   O     0.88153   0.82883   0.68002   0.00000  Uiso   1.00
O825   O     0.88152   0.82885   0.81217   0.00000  Uiso   1.00
O826   O     0.78515   0.83781   0.68782   0.00000  Uiso   1.00
Zn827  Zn    0.76898   0.83933   0.75521   0.00000  Uiso   1.00
Zn828  Zn    0.89769   0.82734   0.74479   0.00000  Uiso   1.00
loop_
_geom_bond_atom_site_label_1
_geom_bond_atom_site_label_2
_geom_bond_distance
_geom_bond_site_symmetry_2
_ccdc_geom_bond_type
C1     O37     1.284   .     A
C1     C18     1.402   .     S
C1     O39     1.296   .     A
C2     C4      1.396   .     A
C2     C13     1.394   .     A
C2     I28     2.145   .     S
C3     C21     1.427   .     S
C3     C22     1.396   .     A
C3     C5      1.400   .     A
C4     C6      1.400   .     A
C4     C20     1.427   .     S
C5     I29     2.154   .     S
C5     C7      1.396   .     A
C6     C8      1.396   .     A
C6     I30     2.154   .     S
C7     C9      1.416   .     A
C7     C14     1.399   .     A
C8     C15     1.399   .     A
C8     C10     1.416   .     A
C9     C11     1.418   .     A
C9     C424    1.401   1_554 S
C10    C13     1.418   .     A
C10    C423    1.401   .     S
C11    C22     1.394   .     A
C11    C17     1.411   .     A
C12    O40     1.296   .     A
C12    C19     1.402   .     S
C12    O38     1.284   .     A
C13    C16     1.411   .     A
C14    H23     1.079   .     S
C14    C430    1.384   1_554 S
C15    H24     1.079   .     S
C15    C431    1.384   .     S
C16    I31     2.133   .     S
C16    C428    1.384   .     S
C17    I32     2.133   .     S
C17    C429    1.384   1_554 S
C18    C157    1.337   .     S
C18    H163    1.088   .     S
C19    C294    1.337   1_545 S
C19    H302    1.088   1_545 S
C20    O41     1.291   .     A
C20    O43     1.299   .     A
C21    O44     1.299   .     A
C21    O42     1.291   .     A
C22    I27     2.145   .     S
H25    C294    1.088   1_545 S
H26    C157    1.088   .     S
I33    N127    2.063   1_455 S
I34    N82     2.063   .     S
N35    Zn46    2.038   .     S
N35    I79     2.063   .     S
N35    N82     1.277   .     S
N36    Zn45    2.038   .     S
N36    N127    1.277   1_455 S
N36    I126    2.063   1_455 S
O37    Zn45    1.953   .     S
O38    Zn46    1.953   .     S
O39    Zn46    1.975   .     S
O40    Zn45    1.975   .     S
O41    Zn45    2.008   .     S
O42    Zn46    2.008   .     S
O43    Zn46    2.013   .     S
O44    Zn45    2.013   .     S
C47    O83     1.284   .     A
C47    C64     1.402   .     S
C47    O85     1.296   .     A
C48    C50     1.396   .     A
C48    C59     1.394   .     A
C48    I74     2.145   .     S
C49    C67     1.427   .     S
C49    C68     1.396   .     A
C49    C51     1.400   .     A
C50    C52     1.400   .     A
C50    C66     1.427   .     S
C51    I75     2.154   .     S
C51    C53     1.396   .     A
C52    C54     1.396   .     A
C52    I76     2.154   .     S
C53    C55     1.416   .     A
C53    C60     1.399   .     A
C54    C61     1.399   .     A
C54    C56     1.416   .     A
C55    C57     1.418   .     A
C55    C470    1.401   1_554 S
C56    C59     1.418   .     A
C56    C469    1.401   .     S
C57    C68     1.394   .     A
C57    C63     1.411   .     A
C58    O86     1.296   .     A
C58    C65     1.402   .     S
C58    O84     1.284   .     A
C59    C62     1.411   .     A
C60    H69     1.079   .     S
C60    C476    1.384   1_554 S
C61    H70     1.079   .     S
C61    C477    1.384   .     S
C62    I77     2.133   .     S
C62    C474    1.384   .     S
C63    I78     2.133   .     S
C63    C475    1.384   1_554 S
C64    C203    1.337   .     S
C64    H209    1.088   .     S
C65    C340    1.337   1_545 S
C65    H348    1.088   1_545 S
C66    O87     1.291   .     A
C66    O89     1.299   .     A
C67    O90     1.299   .     A
C67    O88     1.291   .     A
C68    I73     2.145   .     S
H71    C340    1.088   1_545 S
H72    C203    1.088   .     S
I80    N128    2.063   .     S
N81    Zn92    2.038   .     S
N81    I125    2.063   .     S
N81    N128    1.277   .     S
N82    Zn91    2.038   .     S
O83    Zn91    1.953   .     S
O84    Zn92    1.953   .     S
O85    Zn92    1.975   .     S
O86    Zn91    1.975   .     S
O87    Zn91    2.008   .     S
O88    Zn92    2.008   .     S
O89    Zn92    2.013   .     S
O90    Zn91    2.013   .     S
C93    O129    1.284   .     A
C93    C110    1.402   .     S
C93    O131    1.296   .     A
C94    C96     1.396   .     A
C94    C105    1.394   .     A
C94    I120    2.145   .     S
C95    C113    1.427   .     S
C95    C114    1.396   .     A
C95    C97     1.400   .     A
C96    C98     1.400   .     A
C96    C112    1.427   .     S
C97    I121    2.154   .     S
C97    C99     1.396   .     A
C98    C100    1.396   .     A
C98    I122    2.154   .     S
C99    C101    1.416   .     A
C99    C106    1.399   .     A
C100   C107    1.399   .     A
C100   C102    1.416   .     A
C101   C103    1.418   .     A
C101   C516    1.401   1_554 S
C102   C105    1.418   .     A
C102   C515    1.401   .     S
C103   C114    1.394   .     A
C103   C109    1.411   .     A
C104   O132    1.296   .     A
C104   C111    1.402   .     S
C104   O130    1.284   .     A
C105   C108    1.411   .     A
C106   H115    1.079   .     S
C106   C522    1.384   1_554 S
C107   H116    1.079   .     S
C107   C523    1.384   .     S
C108   I123    2.133   .     S
C108   C520    1.384   .     S
C109   I124    2.133   .     S
C109   C521    1.384   1_554 S
C110   C249    1.337   .     S
C110   H255    1.088   .     S
C111   C386    1.337   1_545 S
C111   H394    1.088   1_545 S
C112   O133    1.291   .     A
C112   O135    1.299   .     A
C113   O136    1.299   .     A
C113   O134    1.291   .     A
C114   I119    2.145   .     S
H117   C386    1.088   1_545 S
H118   C249    1.088   .     S
I126   N36     2.063   1_655 S
N127   Zn138   2.038   .     S
N127   I33     2.063   1_655 S
N127   N36     1.277   1_655 S
N128   Zn137   2.038   .     S
O129   Zn137   1.953   .     S
O130   Zn138   1.953   .     S
O131   Zn138   1.975   .     S
O132   Zn137   1.975   .     S
O133   Zn137   2.008   .     S
O134   Zn138   2.008   .     S
O135   Zn138   2.013   .     S
O136   Zn137   2.013   .     S
C139   O175    1.284   .     A
C139   C156    1.402   .     S
C139   O177    1.296   .     A
C140   C142    1.396   .     A
C140   C151    1.394   .     A
C140   I166    2.145   .     S
C141   C159    1.427   .     S
C141   C160    1.396   .     A
C141   C143    1.400   .     A
C142   C144    1.400   .     A
C142   C158    1.427   .     S
C143   I167    2.154   .     S
C143   C145    1.396   .     A
C144   C146    1.396   .     A
C144   I168    2.154   .     S
C145   C147    1.416   .     A
C145   C152    1.399   .     A
C146   C153    1.399   .     A
C146   C148    1.416   .     A
C147   C149    1.418   .     A
C147   C562    1.401   1_554 S
C148   C151    1.418   .     A
C148   C561    1.401   .     S
C149   C160    1.394   .     A
C149   C155    1.411   .     A
C150   O178    1.296   .     A
C150   C157    1.402   .     S
C150   O176    1.284   .     A
C151   C154    1.411   .     A
C152   H161    1.079   .     S
C152   C568    1.384   1_554 S
C153   H162    1.079   .     S
C153   C569    1.384   .     S
C154   I169    2.133   .     S
C154   C566    1.384   .     S
C155   I170    2.133   .     S
C155   C567    1.384   1_554 S
C156   C295    1.337   .     S
C156   H301    1.088   .     S
C158   O179    1.291   .     A
C158   O181    1.299   .     A
C159   O182    1.299   .     A
C159   O180    1.291   .     A
C160   I165    2.145   .     S
H164   C295    1.088   .     S
I171   N265    2.063   1_455 S
I172   N220    2.063   .     S
N173   Zn184   2.038   .     S
N173   I217    2.063   .     S
N173   N220    1.277   .     S
N174   Zn183   2.038   .     S
N174   N265    1.277   1_455 S
N174   I264    2.063   1_455 S
O175   Zn183   1.953   .     S
O176   Zn184   1.953   .     S
O177   Zn184   1.975   .     S
O178   Zn183   1.975   .     S
O179   Zn183   2.008   .     S
O180   Zn184   2.008   .     S
O181   Zn184   2.013   .     S
O182   Zn183   2.013   .     S
C185   O221    1.284   .     A
C185   C202    1.402   .     S
C185   O223    1.296   .     A
C186   C188    1.396   .     A
C186   C197    1.394   .     A
C186   I212    2.145   .     S
C187   C205    1.427   .     S
C187   C206    1.396   .     A
C187   C189    1.400   .     A
C188   C190    1.400   .     A
C188   C204    1.427   .     S
C189   I213    2.154   .     S
C189   C191    1.396   .     A
C190   C192    1.396   .     A
C190   I214    2.154   .     S
C191   C193    1.416   .     A
C191   C198    1.399   .     A
C192   C199    1.399   .     A
C192   C194    1.416   .     A
C193   C195    1.418   .     A
C193   C608    1.401   1_554 S
C194   C197    1.418   .     A
C194   C607    1.401   .     S
C195   C206    1.394   .     A
C195   C201    1.411   .     A
C196   O224    1.296   .     A
C196   C203    1.402   .     S
C196   O222    1.284   .     A
C197   C200    1.411   .     A
C198   H207    1.079   .     S
C198   C614    1.384   1_554 S
C199   H208    1.079   .     S
C199   C615    1.384   .     S
C200   I215    2.133   .     S
C200   C612    1.384   .     S
C201   I216    2.133   .     S
C201   C613    1.384   1_554 S
C202   C341    1.337   .     S
C202   H347    1.088   .     S
C204   O225    1.291   .     A
C204   O227    1.299   .     A
C205   O228    1.299   .     A
C205   O226    1.291   .     A
C206   I211    2.145   .     S
H210   C341    1.088   .     S
I218   N266    2.063   .     S
N219   Zn230   2.038   .     S
N219   I263    2.063   .     S
N219   N266    1.277   .     S
N220   Zn229   2.038   .     S
O221   Zn229   1.953   .     S
O222   Zn230   1.953   .     S
O223   Zn230   1.975   .     S
O224   Zn229   1.975   .     S
O225   Zn229   2.008   .     S
O226   Zn230   2.008   .     S
O227   Zn230   2.013   .     S
O228   Zn229   2.013   .     S
C231   O267    1.284   .     A
C231   C248    1.402   .     S
C231   O269    1.296   .     A
C232   C234    1.396   .     A
C232   C243    1.394   .     A
C232   I258    2.145   .     S
C233   C251    1.427   .     S
C233   C252    1.396   .     A
C233   C235    1.400   .     A
C234   C236    1.400   .     A
C234   C250    1.427   .     S
C235   I259    2.154   .     S
C235   C237    1.396   .     A
C236   C238    1.396   .     A
C236   I260    2.154   .     S
C237   C239    1.416   .     A
C237   C244    1.399   .     A
C238   C245    1.399   .     A
C238   C240    1.416   .     A
C239   C241    1.418   .     A
C239   C654    1.401   1_554 S
C240   C243    1.418   .     A
C240   C653    1.401   .     S
C241   C252    1.394   .     A
C241   C247    1.411   .     A
C242   O270    1.296   .     A
C242   C249    1.402   .     S
C242   O268    1.284   .     A
C243   C246    1.411   .     A
C244   H253    1.079   .     S
C244   C660    1.384   1_554 S
C245   H254    1.079   .     S
C245   C661    1.384   .     S
C246   I261    2.133   .     S
C246   C658    1.384   .     S
C247   I262    2.133   .     S
C247   C659    1.384   1_554 S
C248   C387    1.337   .     S
C248   H393    1.088   .     S
C250   O271    1.291   .     A
C250   O273    1.299   .     A
C251   O274    1.299   .     A
C251   O272    1.291   .     A
C252   I257    2.145   .     S
H256   C387    1.088   .     S
I264   N174    2.063   1_655 S
N265   Zn276   2.038   .     S
N265   I171    2.063   1_655 S
N265   N174    1.277   1_655 S
N266   Zn275   2.038   .     S
O267   Zn275   1.953   .     S
O268   Zn276   1.953   .     S
O269   Zn276   1.975   .     S
O270   Zn275   1.975   .     S
O271   Zn275   2.008   .     S
O272   Zn276   2.008   .     S
O273   Zn276   2.013   .     S
O274   Zn275   2.013   .     S
C277   O313    1.284   .     A
C277   C294    1.402   .     S
C277   O315    1.296   .     A
C278   C280    1.396   .     A
C278   C289    1.394   .     A
C278   I304    2.145   .     S
C279   C297    1.427   .     S
C279   C298    1.396   .     A
C279   C281    1.400   .     A
C280   C282    1.400   .     A
C280   C296    1.427   .     S
C281   I305    2.154   .     S
C281   C283    1.396   .     A
C282   C284    1.396   .     A
C282   I306    2.154   .     S
C283   C285    1.416   .     A
C283   C290    1.399   .     A
C284   C291    1.399   .     A
C284   C286    1.416   .     A
C285   C287    1.418   .     A
C285   C700    1.401   1_554 S
C286   C289    1.418   .     A
C286   C699    1.401   .     S
C287   C298    1.394   .     A
C287   C293    1.411   .     A
C288   O316    1.296   .     A
C288   C295    1.402   .     S
C288   O314    1.284   .     A
C289   C292    1.411   .     A
C290   H299    1.079   .     S
C290   C706    1.384   1_554 S
C291   H300    1.079   .     S
C291   C707    1.384   .     S
C292   I307    2.133   .     S
C292   C704    1.384   .     S
C293   I308    2.133   .     S
C293   C705    1.384   1_554 S
C294   C19     1.337   1_565 S
C294   H25     1.088   1_565 S
C296   O317    1.291   .     A
C296   O319    1.299   .     A
C297   O320    1.299   .     A
C297   O318    1.291   .     A
C298   I303    2.145   .     S
H302   C19     1.088   1_565 S
I309   N403    2.063   1_455 S
I310   N358    2.063   .     S
N311   Zn322   2.038   .     S
N311   I355    2.063   .     S
N311   N358    1.277   .     S
N312   Zn321   2.038   .     S
N312   N403    1.277   1_455 S
N312   I402    2.063   1_455 S
O313   Zn321   1.953   .     S
O314   Zn322   1.953   .     S
O315   Zn322   1.975   .     S
O316   Zn321   1.975   .     S
O317   Zn321   2.008   .     S
O318   Zn322   2.008   .     S
O319   Zn322   2.013   .     S
O320   Zn321   2.013   .     S
C323   O359    1.284   .     A
C323   C340    1.402   .     S
C323   O361    1.296   .     A
C324   C326    1.396   .     A
C324   C335    1.394   .     A
C324   I350    2.145   .     S
C325   C343    1.427   .     S
C325   C344    1.396   .     A
C325   C327    1.400   .     A
C326   C328    1.400   .     A
C326   C342    1.427   .     S
C327   I351    2.154   .     S
C327   C329    1.396   .     A
C328   C330    1.396   .     A
C328   I352    2.154   .     S
C329   C331    1.416   .     A
C329   C336    1.399   .     A
C330   C337    1.399   .     A
C330   C332    1.416   .     A
C331   C333    1.418   .     A
C331   C746    1.401   1_554 S
C332   C335    1.418   .     A
C332   C745    1.401   .     S
C333   C344    1.394   .     A
C333   C339    1.411   .     A
C334   O362    1.296   .     A
C334   C341    1.402   .     S
C334   O360    1.284   .     A
C335   C338    1.411   .     A
C336   H345    1.079   .     S
C336   C752    1.384   1_554 S
C337   H346    1.079   .     S
C337   C753    1.384   .     S
C338   I353    2.133   .     S
C338   C750    1.384   .     S
C339   I354    2.133   .     S
C339   C751    1.384   1_554 S
C340   C65     1.337   1_565 S
C340   H71     1.088   1_565 S
C342   O363    1.291   .     A
C342   O365    1.299   .     A
C343   O366    1.299   .     A
C343   O364    1.291   .     A
C344   I349    2.145   .     S
H348   C65     1.088   1_565 S
I356   N404    2.063   .     S
N357   Zn368   2.038   .     S
N357   I401    2.063   .     S
N357   N404    1.277   .     S
N358   Zn367   2.038   .     S
O359   Zn367   1.953   .     S
O360   Zn368   1.953   .     S
O361   Zn368   1.975   .     S
O362   Zn367   1.975   .     S
O363   Zn367   2.008   .     S
O364   Zn368   2.008   .     S
O365   Zn368   2.013   .     S
O366   Zn367   2.013   .     S
C369   O405    1.284   .     A
C369   C386    1.402   .     S
C369   O407    1.296   .     A
C370   C372    1.396   .     A
C370   C381    1.394   .     A
C370   I396    2.145   .     S
C371   C389    1.427   .     S
C371   C390    1.396   .     A
C371   C373    1.400   .     A
C372   C374    1.400   .     A
C372   C388    1.427   .     S
C373   I397    2.154   .     S
C373   C375    1.396   .     A
C374   C376    1.396   .     A
C374   I398    2.154   .     S
C375   C377    1.416   .     A
C375   C382    1.399   .     A
C376   C383    1.399   .     A
C376   C378    1.416   .     A
C377   C379    1.418   .     A
C377   C792    1.401   1_554 S
C378   C381    1.418   .     A
C378   C791    1.401   .     S
C379   C390    1.394   .     A
C379   C385    1.411   .     A
C380   O408    1.296   .     A
C380   C387    1.402   .     S
C380   O406    1.284   .     A
C381   C384    1.411   .     A
C382   H391    1.079   .     S
C382   C798    1.384   1_554 S
C383   H392    1.079   .     S
C383   C799    1.384   .     S
C384   I399    2.133   .     S
C384   C796    1.384   .     S
C385   I400    2.133   .     S
C385   C797    1.384   1_554 S
C386   C111    1.337   1_565 S
C386   H117    1.088   1_565 S
C388   O409    1.291   .     A
C388   O411    1.299   .     A
C389   O412    1.299   .     A
C389   O410    1.291   .     A
C390   I395    2.145   .     S
H394   C111    1.088   1_565 S
I402   N312    2.063   1_655 S
N403   Zn414   2.038   .     S
N403   I309    2.063   1_655 S
N403   N312    1.277   1_655 S
N404   Zn413   2.038   .     S
O405   Zn413   1.953   .     S
O406   Zn414   1.953   .     S
O407   Zn414   1.975   .     S
O408   Zn413   1.975   .     S
O409   Zn413   2.008   .     S
O410   Zn414   2.008   .     S
O411   Zn414   2.013   .     S
O412   Zn413   2.013   .     S
C415   O451    1.284   .     A
C415   C432    1.402   .     S
C415   O453    1.296   .     A
C416   C418    1.396   .     A
C416   C427    1.394   .     A
C416   I442    2.145   .     S
C417   C435    1.427   .     S
C417   C436    1.396   .     A
C417   C419    1.400   .     A
C418   C420    1.400   .     A
C418   C434    1.427   .     S
C419   I443    2.154   .     S
C419   C421    1.396   .     A
C420   C422    1.396   .     A
C420   I444    2.154   .     S
C421   C423    1.416   .     A
C421   C428    1.399   .     A
C422   C429    1.399   .     A
C422   C424    1.416   .     A
C423   C425    1.418   .     A
C424   C427    1.418   .     A
C424   C9      1.401   1_556 S
C425   C436    1.394   .     A
C425   C431    1.411   .     A
C426   O454    1.296   .     A
C426   C433    1.402   .     S
C426   O452    1.284   .     A
C427   C430    1.411   .     A
C428   H437    1.079   .     S
C429   H438    1.079   .     S
C429   C17     1.384   1_556 S
C430   I445    2.133   .     S
C430   C14     1.384   1_556 S
C431   I446    2.133   .     S
C432   C571    1.337   .     S
C432   H577    1.088   .     S
C433   C708    1.337   1_545 S
C433   H716    1.088   1_545 S
C434   O455    1.291   .     A
C434   O457    1.299   .     A
C435   O458    1.299   .     A
C435   O456    1.291   .     A
C436   I441    2.145   .     S
H439   C708    1.088   1_545 S
H440   C571    1.088   .     S
I447   N541    2.063   1_455 S
I448   N496    2.063   .     S
N449   Zn460   2.038   .     S
N449   I493    2.063   .     S
N449   N496    1.277   .     S
N450   Zn459   2.038   .     S
N450   N541    1.277   1_455 S
N450   I540    2.063   1_455 S
O451   Zn459   1.953   .     S
O452   Zn460   1.953   .     S
O453   Zn460   1.975   .     S
O454   Zn459   1.975   .     S
O455   Zn459   2.008   .     S
O456   Zn460   2.008   .     S
O457   Zn460   2.013   .     S
O458   Zn459   2.013   .     S
C461   O497    1.284   .     A
C461   C478    1.402   .     S
C461   O499    1.296   .     A
C462   C464    1.396   .     A
C462   C473    1.394   .     A
C462   I488    2.145   .     S
C463   C481    1.427   .     S
C463   C482    1.396   .     A
C463   C465    1.400   .     A
C464   C466    1.400   .     A
C464   C480    1.427   .     S
C465   I489    2.154   .     S
C465   C467    1.396   .     A
C466   C468    1.396   .     A
C466   I490    2.154   .     S
C467   C469    1.416   .     A
C467   C474    1.399   .     A
C468   C475    1.399   .     A
C468   C470    1.416   .     A
C469   C471    1.418   .     A
C470   C473    1.418   .     A
C470   C55     1.401   1_556 S
C471   C482    1.394   .     A
C471   C477    1.411   .     A
C472   O500    1.296   .     A
C472   C479    1.402   .     S
C472   O498    1.284   .     A
C473   C476    1.411   .     A
C474   H483    1.079   .     S
C475   H484    1.079   .     S
C475   C63     1.384   1_556 S
C476   I491    2.133   .     S
C476   C60     1.384   1_556 S
C477   I492    2.133   .     S
C478   C617    1.337   .     S
C478   H623    1.088   .     S
C479   C754    1.337   1_545 S
C479   H762    1.088   1_545 S
C480   O501    1.291   .     A
C480   O503    1.299   .     A
C481   O504    1.299   .     A
C481   O502    1.291   .     A
C482   I487    2.145   .     S
H485   C754    1.088   1_545 S
H486   C617    1.088   .     S
I494   N542    2.063   .     S
N495   Zn506   2.038   .     S
N495   I539    2.063   .     S
N495   N542    1.277   .     S
N496   Zn505   2.038   .     S
O497   Zn505   1.953   .     S
O498   Zn506   1.953   .     S
O499   Zn506   1.975   .     S
O500   Zn505   1.975   .     S
O501   Zn505   2.008   .     S
O502   Zn506   2.008   .     S
O503   Zn506   2.013   .     S
O504   Zn505   2.013   .     S
C507   O543    1.284   .     A
C507   C524    1.402   .     S
C507   O545    1.296   .     A
C508   C510    1.396   .     A
C508   C519    1.394   .     A
C508   I534    2.145   .     S
C509   C527    1.427   .     S
C509   C528    1.396   .     A
C509   C511    1.400   .     A
C510   C512    1.400   .     A
C510   C526    1.427   .     S
C511   I535    2.154   .     S
C511   C513    1.396   .     A
C512   C514    1.396   .     A
C512   I536    2.154   .     S
C513   C515    1.416   .     A
C513   C520    1.399   .     A
C514   C521    1.399   .     A
C514   C516    1.416   .     A
C515   C517    1.418   .     A
C516   C519    1.418   .     A
C516   C101    1.401   1_556 S
C517   C528    1.394   .     A
C517   C523    1.411   .     A
C518   O546    1.296   .     A
C518   C525    1.402   .     S
C518   O544    1.284   .     A
C519   C522    1.411   .     A
C520   H529    1.079   .     S
C521   H530    1.079   .     S
C521   C109    1.384   1_556 S
C522   I537    2.133   .     S
C522   C106    1.384   1_556 S
C523   I538    2.133   .     S
C524   C663    1.337   .     S
C524   H669    1.088   .     S
C525   C800    1.337   1_545 S
C525   H808    1.088   1_545 S
C526   O547    1.291   .     A
C526   O549    1.299   .     A
C527   O550    1.299   .     A
C527   O548    1.291   .     A
C528   I533    2.145   .     S
H531   C800    1.088   1_545 S
H532   C663    1.088   .     S
I540   N450    2.063   1_655 S
N541   Zn552   2.038   .     S
N541   I447    2.063   1_655 S
N541   N450    1.277   1_655 S
N542   Zn551   2.038   .     S
O543   Zn551   1.953   .     S
O544   Zn552   1.953   .     S
O545   Zn552   1.975   .     S
O546   Zn551   1.975   .     S
O547   Zn551   2.008   .     S
O548   Zn552   2.008   .     S
O549   Zn552   2.013   .     S
O550   Zn551   2.013   .     S
C553   O589    1.284   .     A
C553   C570    1.402   .     S
C553   O591    1.296   .     A
C554   C556    1.396   .     A
C554   C565    1.394   .     A
C554   I580    2.145   .     S
C555   C573    1.427   .     S
C555   C574    1.396   .     A
C555   C557    1.400   .     A
C556   C558    1.400   .     A
C556   C572    1.427   .     S
C557   I581    2.154   .     S
C557   C559    1.396   .     A
C558   C560    1.396   .     A
C558   I582    2.154   .     S
C559   C561    1.416   .     A
C559   C566    1.399   .     A
C560   C567    1.399   .     A
C560   C562    1.416   .     A
C561   C563    1.418   .     A
C562   C565    1.418   .     A
C562   C147    1.401   1_556 S
C563   C574    1.394   .     A
C563   C569    1.411   .     A
C564   O592    1.296   .     A
C564   C571    1.402   .     S
C564   O590    1.284   .     A
C565   C568    1.411   .     A
C566   H575    1.079   .     S
C567   H576    1.079   .     S
C567   C155    1.384   1_556 S
C568   I583    2.133   .     S
C568   C152    1.384   1_556 S
C569   I584    2.133   .     S
C570   C709    1.337   .     S
C570   H715    1.088   .     S
C572   O593    1.291   .     A
C572   O595    1.299   .     A
C573   O596    1.299   .     A
C573   O594    1.291   .     A
C574   I579    2.145   .     S
H578   C709    1.088   .     S
I585   N679    2.063   1_455 S
I586   N634    2.063   .     S
N587   Zn598   2.038   .     S
N587   I631    2.063   .     S
N587   N634    1.277   .     S
N588   Zn597   2.038   .     S
N588   N679    1.277   1_455 S
N588   I678    2.063   1_455 S
O589   Zn597   1.953   .     S
O590   Zn598   1.953   .     S
O591   Zn598   1.975   .     S
O592   Zn597   1.975   .     S
O593   Zn597   2.008   .     S
O594   Zn598   2.008   .     S
O595   Zn598   2.013   .     S
O596   Zn597   2.013   .     S
C599   O635    1.284   .     A
C599   C616    1.402   .     S
C599   O637    1.296   .     A
C600   C602    1.396   .     A
C600   C611    1.394   .     A
C600   I626    2.145   .     S
C601   C619    1.427   .     S
C601   C620    1.396   .     A
C601   C603    1.400   .     A
C602   C604    1.400   .     A
C602   C618    1.427   .     S
C603   I627    2.154   .     S
C603   C605    1.396   .     A
C604   C606    1.396   .     A
C604   I628    2.154   .     S
C605   C607    1.416   .     A
C605   C612    1.399   .     A
C606   C613    1.399   .     A
C606   C608    1.416   .     A
C607   C609    1.418   .     A
C608   C611    1.418   .     A
C608   C193    1.401   1_556 S
C609   C620    1.394   .     A
C609   C615    1.411   .     A
C610   O638    1.296   .     A
C610   C617    1.402   .     S
C610   O636    1.284   .     A
C611   C614    1.411   .     A
C612   H621    1.079   .     S
C613   H622    1.079   .     S
C613   C201    1.384   1_556 S
C614   I629    2.133   .     S
C614   C198    1.384   1_556 S
C615   I630    2.133   .     S
C616   C755    1.337   .     S
C616   H761    1.088   .     S
C618   O639    1.291   .     A
C618   O641    1.299   .     A
C619   O642    1.299   .     A
C619   O640    1.291   .     A
C620   I625    2.145   .     S
H624   C755    1.088   .     S
I632   N680    2.063   .     S
N633   Zn644   2.038   .     S
N633   I677    2.063   .     S
N633   N680    1.277   .     S
N634   Zn643   2.038   .     S
O635   Zn643   1.953   .     S
O636   Zn644   1.953   .     S
O637   Zn644   1.975   .     S
O638   Zn643   1.975   .     S
O639   Zn643   2.008   .     S
O640   Zn644   2.008   .     S
O641   Zn644   2.013   .     S
O642   Zn643   2.013   .     S
C645   O681    1.284   .     A
C645   C662    1.402   .     S
C645   O683    1.296   .     A
C646   C648    1.396   .     A
C646   C657    1.394   .     A
C646   I672    2.145   .     S
C647   C665    1.427   .     S
C647   C666    1.396   .     A
C647   C649    1.400   .     A
C648   C650    1.400   .     A
C648   C664    1.427   .     S
C649   I673    2.154   .     S
C649   C651    1.396   .     A
C650   C652    1.396   .     A
C650   I674    2.154   .     S
C651   C653    1.416   .     A
C651   C658    1.399   .     A
C652   C659    1.399   .     A
C652   C654    1.416   .     A
C653   C655    1.418   .     A
C654   C657    1.418   .     A
C654   C239    1.401   1_556 S
C655   C666    1.394   .     A
C655   C661    1.411   .     A
C656   O684    1.296   .     A
C656   C663    1.402   .     S
C656   O682    1.284   .     A
C657   C660    1.411   .     A
C658   H667    1.079   .     S
C659   H668    1.079   .     S
C659   C247    1.384   1_556 S
C660   I675    2.133   .     S
C660   C244    1.384   1_556 S
C661   I676    2.133   .     S
C662   C801    1.337   .     S
C662   H807    1.088   .     S
C664   O685    1.291   .     A
C664   O687    1.299   .     A
C665   O688    1.299   .     A
C665   O686    1.291   .     A
C666   I671    2.145   .     S
H670   C801    1.088   .     S
I678   N588    2.063   1_655 S
N679   Zn690   2.038   .     S
N679   I585    2.063   1_655 S
N679   N588    1.277   1_655 S
N680   Zn689   2.038   .     S
O681   Zn689   1.953   .     S
O682   Zn690   1.953   .     S
O683   Zn690   1.975   .     S
O684   Zn689   1.975   .     S
O685   Zn689   2.008   .     S
O686   Zn690   2.008   .     S
O687   Zn690   2.013   .     S
O688   Zn689   2.013   .     S
C691   O727    1.284   .     A
C691   C708    1.402   .     S
C691   O729    1.296   .     A
C692   C694    1.396   .     A
C692   C703    1.394   .     A
C692   I718    2.145   .     S
C693   C711    1.427   .     S
C693   C712    1.396   .     A
C693   C695    1.400   .     A
C694   C696    1.400   .     A
C694   C710    1.427   .     S
C695   I719    2.154   .     S
C695   C697    1.396   .     A
C696   C698    1.396   .     A
C696   I720    2.154   .     S
C697   C699    1.416   .     A
C697   C704    1.399   .     A
C698   C705    1.399   .     A
C698   C700    1.416   .     A
C699   C701    1.418   .     A
C700   C703    1.418   .     A
C700   C285    1.401   1_556 S
C701   C712    1.394   .     A
C701   C707    1.411   .     A
C702   O730    1.296   .     A
C702   C709    1.402   .     S
C702   O728    1.284   .     A
C703   C706    1.411   .     A
C704   H713    1.079   .     S
C705   H714    1.079   .     S
C705   C293    1.384   1_556 S
C706   I721    2.133   .     S
C706   C290    1.384   1_556 S
C707   I722    2.133   .     S
C708   C433    1.337   1_565 S
C708   H439    1.088   1_565 S
C710   O731    1.291   .     A
C710   O733    1.299   .     A
C711   O734    1.299   .     A
C711   O732    1.291   .     A
C712   I717    2.145   .     S
H716   C433    1.088   1_565 S
I723   N817    2.063   1_455 S
I724   N772    2.063   .     S
N725   Zn736   2.038   .     S
N725   I769    2.063   .     S
N725   N772    1.277   .     S
N726   Zn735   2.038   .     S
N726   N817    1.277   1_455 S
N726   I816    2.063   1_455 S
O727   Zn735   1.953   .     S
O728   Zn736   1.953   .     S
O729   Zn736   1.975   .     S
O730   Zn735   1.975   .     S
O731   Zn735   2.008   .     S
O732   Zn736   2.008   .     S
O733   Zn736   2.013   .     S
O734   Zn735   2.013   .     S
C737   O773    1.284   .     A
C737   C754    1.402   .     S
C737   O775    1.296   .     A
C738   C740    1.396   .     A
C738   C749    1.394   .     A
C738   I764    2.145   .     S
C739   C757    1.427   .     S
C739   C758    1.396   .     A
C739   C741    1.400   .     A
C740   C742    1.400   .     A
C740   C756    1.427   .     S
C741   I765    2.154   .     S
C741   C743    1.396   .     A
C742   C744    1.396   .     A
C742   I766    2.154   .     S
C743   C745    1.416   .     A
C743   C750    1.399   .     A
C744   C751    1.399   .     A
C744   C746    1.416   .     A
C745   C747    1.418   .     A
C746   C749    1.418   .     A
C746   C331    1.401   1_556 S
C747   C758    1.394   .     A
C747   C753    1.411   .     A
C748   O776    1.296   .     A
C748   C755    1.402   .     S
C748   O774    1.284   .     A
C749   C752    1.411   .     A
C750   H759    1.079   .     S
C751   H760    1.079   .     S
C751   C339    1.384   1_556 S
C752   I767    2.133   .     S
C752   C336    1.384   1_556 S
C753   I768    2.133   .     S
C754   C479    1.337   1_565 S
C754   H485    1.088   1_565 S
C756   O777    1.291   .     A
C756   O779    1.299   .     A
C757   O780    1.299   .     A
C757   O778    1.291   .     A
C758   I763    2.145   .     S
H762   C479    1.088   1_565 S
I770   N818    2.063   .     S
N771   Zn782   2.038   .     S
N771   I815    2.063   .     S
N771   N818    1.277   .     S
N772   Zn781   2.038   .     S
O773   Zn781   1.953   .     S
O774   Zn782   1.953   .     S
O775   Zn782   1.975   .     S
O776   Zn781   1.975   .     S
O777   Zn781   2.008   .     S
O778   Zn782   2.008   .     S
O779   Zn782   2.013   .     S
O780   Zn781   2.013   .     S
C783   O819    1.284   .     A
C783   C800    1.402   .     S
C783   O821    1.296   .     A
C784   C786    1.396   .     A
C784   C795    1.394   .     A
C784   I810    2.145   .     S
C785   C803    1.427   .     S
C785   C804    1.396   .     A
C785   C787    1.400   .     A
C786   C788    1.400   .     A
C786   C802    1.427   .     S
C787   I811    2.154   .     S
C787   C789    1.396   .     A
C788   C790    1.396   .     A
C788   I812    2.154   .     S
C789   C791    1.416   .     A
C789   C796    1.399   .     A
C790   C797    1.399   .     A
C790   C792    1.416   .     A
C791   C793    1.418   .     A
C792   C795    1.418   .     A
C792   C377    1.401   1_556 S
C793   C804    1.394   .     A
C793   C799    1.411   .     A
C794   O822    1.296   .     A
C794   C801    1.402   .     S
C794   O820    1.284   .     A
C795   C798    1.411   .     A
C796   H805    1.079   .     S
C797   H806    1.079   .     S
C797   C385    1.384   1_556 S
C798   I813    2.133   .     S
C798   C382    1.384   1_556 S
C799   I814    2.133   .     S
C800   C525    1.337   1_565 S
C800   H531    1.088   1_565 S
C802   O823    1.291   .     A
C802   O825    1.299   .     A
C803   O826    1.299   .     A
C803   O824    1.291   .     A
C804   I809    2.145   .     S
H808   C525    1.088   1_565 S
I816   N726    2.063   1_655 S
N817   Zn828   2.038   .     S
N817   I723    2.063   1_655 S
N817   N726    1.277   1_655 S
N818   Zn827   2.038   .     S
O819   Zn827   1.953   .     S
O820   Zn828   1.953   .     S
O821   Zn828   1.975   .     S
O822   Zn827   1.975   .     S
O823   Zn827   2.008   .     S
O824   Zn828   2.008   .     S
O825   Zn828   2.013   .     S
O826   Zn827   2.013   .     S
