data_str_m2_o2_o10_pcu_sym.201
_audit_creation_date              2020-01-03
_audit_creation_method            'Materials Studio'
_symmetry_space_group_name_H-M    'P1'
_symmetry_Int_Tables_number       1
_symmetry_cell_setting            triclinic
loop_
_symmetry_equiv_pos_as_xyz
  x,y,z
_cell_length_a                    26.1194
_cell_length_b                    30.2399
_cell_length_c                    27.9199
_cell_angle_alpha                 91.4205
_cell_angle_beta                  99.0533
_cell_angle_gamma                 91.1550
loop_
_atom_site_label
_atom_site_type_symbol
_atom_site_fract_x
_atom_site_fract_y
_atom_site_fract_z
_atom_site_U_iso_or_equiv
_atom_site_adp_type
_atom_site_occupancy
C1     C     0.16613   0.16493   0.24944   0.00000  Uiso   1.00
C2     C     0.16648   0.33496   0.25036   0.00000  Uiso   1.00
C3     C     0.21649   0.25846   0.06294   0.00000  Uiso   1.00
C4     C     0.14744   0.20969   0.44052   0.00000  Uiso   1.00
C5     C     0.21139   0.26251   0.11271   0.00000  Uiso   1.00
C6     C     0.14387   0.21469   0.38970   0.00000  Uiso   1.00
C7     C     0.12538   0.23351   0.09479   0.00000  Uiso   1.00
C8     C     0.19371   0.28139   0.40327   0.00000  Uiso   1.00
C9     C     0.13086   0.22785   0.04544   0.00000  Uiso   1.00
C10    C     0.19904   0.27592   0.45392   0.00000  Uiso   1.00
C11    C     0.17563   0.24068   0.02821   0.00000  Uiso   1.00
C12    C     0.17566   0.24073   0.47374   0.00000  Uiso   1.00
C13    C     0.06786   0.25022   0.23738   0.00000  Uiso   1.00
C14    C     0.26549   0.25007   0.26265   0.00000  Uiso   1.00
C15    C     0.01232   0.25093   0.23071   0.00000  Uiso   1.00
C16    C     0.32108   0.25005   0.26945   0.00000  Uiso   1.00
C17    C     0.15885   0.04805   0.29056   0.00000  Uiso   1.00
C18    C     0.13513   0.45003   0.21019   0.00000  Uiso   1.00
C19    C     0.15986   0.09395   0.29092   0.00000  Uiso   1.00
C20    C     0.13604   0.40407   0.21110   0.00000  Uiso   1.00
C21    C     0.16460   0.11652   0.24845   0.00000  Uiso   1.00
C22    C     0.16506   0.38313   0.25032   0.00000  Uiso   1.00
C23    C     0.16766   0.09244   0.20542   0.00000  Uiso   1.00
C24    C     0.19379   0.40852   0.28815   0.00000  Uiso   1.00
C25    C     0.16685   0.04639   0.20515   0.00000  Uiso   1.00
C26    C     0.19313   0.45440   0.28720   0.00000  Uiso   1.00
C27    C     0.16279   0.02395   0.24784   0.00000  Uiso   1.00
C28    C     0.16362   0.47548   0.24834   0.00000  Uiso   1.00
Cu29   Cu    0.16667   0.25000   0.29821   0.00000  Uiso   1.00
Cu30   Cu    0.16667   0.25001   0.20178   0.00000  Uiso   1.00
H31    H     0.32496   0.25233   0.19390   0.00000  Uiso   1.00
H32    H     0.00845   0.24905   0.30635   0.00000  Uiso   1.00
H33    H     0.15479   0.03136   0.32369   0.00000  Uiso   1.00
H34    H     0.11176   0.46565   0.18006   0.00000  Uiso   1.00
H35    H     0.15690   0.11168   0.32451   0.00000  Uiso   1.00
H36    H     0.11369   0.38485   0.18145   0.00000  Uiso   1.00
H37    H     0.17120   0.10912   0.17217   0.00000  Uiso   1.00
H38    H     0.21804   0.39319   0.31762   0.00000  Uiso   1.00
H39    H     0.17039   0.02834   0.17189   0.00000  Uiso   1.00
H40    H     0.21642   0.47343   0.31643   0.00000  Uiso   1.00
H41    H     0.25255   0.26921   0.05193   0.00000  Uiso   1.00
H42    H     0.12827   0.18140   0.45357   0.00000  Uiso   1.00
H43    H     0.24392   0.27614   0.13772   0.00000  Uiso   1.00
H44    H     0.12259   0.18982   0.36558   0.00000  Uiso   1.00
H45    H     0.09834   0.21536   0.01936   0.00000  Uiso   1.00
H46    H     0.21963   0.30095   0.47845   0.00000  Uiso   1.00
N47    N     0.16667   0.25001   0.12934   0.00000  Uiso   1.00
N48    N     0.16667   0.24999   0.37065   0.00000  Uiso   1.00
O49    O     0.16667   0.18573   0.29072   0.00000  Uiso   1.00
O50    O     0.16666   0.31428   0.20928   0.00000  Uiso   1.00
O51    O     0.16667   0.18573   0.20928   0.00000  Uiso   1.00
O52    O     0.16666   0.31427   0.29072   0.00000  Uiso   1.00
O53    O     0.09161   0.25000   0.28132   0.00000  Uiso   1.00
O54    O     0.24172   0.25001   0.21868   0.00000  Uiso   1.00
O55    O     0.09161   0.25000   0.19988   0.00000  Uiso   1.00
O56    O     0.24172   0.25000   0.30012   0.00000  Uiso   1.00
C57    C     0.07046   0.22339   0.10404   0.00000  Uiso   1.00
C58    C     0.06399   0.17701   0.12401   0.00000  Uiso   1.00
C59    C     0.00684   0.16358   0.12098   0.00000  Uiso   1.00
H60    H     0.31985   0.18792   0.14117   0.00000  Uiso   1.00
H61    H     0.32093   0.16144   0.08253   0.00000  Uiso   1.00
H62    H     0.00364   0.13064   0.13713   0.00000  Uiso   1.00
H63    H     0.08280   0.15232   0.10271   0.00000  Uiso   1.00
H64    H     0.08232   0.17556   0.16225   0.00000  Uiso   1.00
H65    H     0.05448   0.25068   0.12346   0.00000  Uiso   1.00
H66    H     0.04322   0.22394   0.06913   0.00000  Uiso   1.00
C67    C     0.21613   0.32508   0.38931   0.00000  Uiso   1.00
C68    C     0.26873   0.32089   0.37131   0.00000  Uiso   1.00
C69    C     0.30827   0.35645   0.39386   0.00000  Uiso   1.00
H70    H     0.31701   0.35286   0.43380   0.00000  Uiso   1.00
H71    H     0.01146   0.35282   0.37860   0.00000  Uiso   1.00
H72    H     0.29314   0.38996   0.38577   0.00000  Uiso   1.00
H73    H     0.28564   0.28808   0.38022   0.00000  Uiso   1.00
H74    H     0.26325   0.32467   0.33149   0.00000  Uiso   1.00
H75    H     0.18702   0.34330   0.36540   0.00000  Uiso   1.00
H76    H     0.22187   0.34833   0.42135   0.00000  Uiso   1.00
C77    C     0.49946   0.16493   0.24944   0.00000  Uiso   1.00
C78    C     0.49982   0.33496   0.25036   0.00000  Uiso   1.00
C79    C     0.54982   0.25846   0.06294   0.00000  Uiso   1.00
C80    C     0.48078   0.20969   0.44052   0.00000  Uiso   1.00
C81    C     0.54472   0.26251   0.11271   0.00000  Uiso   1.00
C82    C     0.47721   0.21469   0.38970   0.00000  Uiso   1.00
C83    C     0.45871   0.23351   0.09479   0.00000  Uiso   1.00
C84    C     0.52705   0.28139   0.40327   0.00000  Uiso   1.00
C85    C     0.46420   0.22785   0.04544   0.00000  Uiso   1.00
C86    C     0.53237   0.27592   0.45392   0.00000  Uiso   1.00
C87    C     0.50897   0.24068   0.02821   0.00000  Uiso   1.00
C88    C     0.50900   0.24073   0.47374   0.00000  Uiso   1.00
C89    C     0.40120   0.25022   0.23738   0.00000  Uiso   1.00
C90    C     0.59882   0.25007   0.26265   0.00000  Uiso   1.00
C91    C     0.34565   0.25093   0.23071   0.00000  Uiso   1.00
C92    C     0.65442   0.25005   0.26945   0.00000  Uiso   1.00
C93    C     0.49218   0.04805   0.29056   0.00000  Uiso   1.00
C94    C     0.46846   0.45003   0.21019   0.00000  Uiso   1.00
C95    C     0.49320   0.09395   0.29092   0.00000  Uiso   1.00
C96    C     0.46938   0.40407   0.21110   0.00000  Uiso   1.00
C97    C     0.49794   0.11652   0.24845   0.00000  Uiso   1.00
C98    C     0.49839   0.38313   0.25032   0.00000  Uiso   1.00
C99    C     0.50100   0.09244   0.20542   0.00000  Uiso   1.00
C100   C     0.52713   0.40852   0.28815   0.00000  Uiso   1.00
C101   C     0.50018   0.04639   0.20515   0.00000  Uiso   1.00
C102   C     0.52647   0.45440   0.28720   0.00000  Uiso   1.00
C103   C     0.49613   0.02395   0.24784   0.00000  Uiso   1.00
C104   C     0.49695   0.47548   0.24834   0.00000  Uiso   1.00
Cu105  Cu    0.50000   0.25000   0.29821   0.00000  Uiso   1.00
Cu106  Cu    0.50000   0.25001   0.20178   0.00000  Uiso   1.00
H107   H     0.65829   0.25233   0.19390   0.00000  Uiso   1.00
H108   H     0.34178   0.24905   0.30635   0.00000  Uiso   1.00
H109   H     0.48812   0.03136   0.32369   0.00000  Uiso   1.00
H110   H     0.44509   0.46565   0.18006   0.00000  Uiso   1.00
H111   H     0.49023   0.11168   0.32451   0.00000  Uiso   1.00
H112   H     0.44702   0.38485   0.18145   0.00000  Uiso   1.00
H113   H     0.50454   0.10912   0.17217   0.00000  Uiso   1.00
H114   H     0.55137   0.39319   0.31762   0.00000  Uiso   1.00
H115   H     0.50372   0.02834   0.17189   0.00000  Uiso   1.00
H116   H     0.54975   0.47343   0.31643   0.00000  Uiso   1.00
H117   H     0.58589   0.26921   0.05193   0.00000  Uiso   1.00
H118   H     0.46160   0.18140   0.45357   0.00000  Uiso   1.00
H119   H     0.57725   0.27614   0.13772   0.00000  Uiso   1.00
H120   H     0.45592   0.18982   0.36558   0.00000  Uiso   1.00
H121   H     0.43167   0.21536   0.01936   0.00000  Uiso   1.00
H122   H     0.55296   0.30095   0.47845   0.00000  Uiso   1.00
N123   N     0.50000   0.25001   0.12934   0.00000  Uiso   1.00
N124   N     0.50000   0.24999   0.37065   0.00000  Uiso   1.00
O125   O     0.50000   0.18573   0.29072   0.00000  Uiso   1.00
O126   O     0.50000   0.31428   0.20928   0.00000  Uiso   1.00
O127   O     0.50000   0.18573   0.20928   0.00000  Uiso   1.00
O128   O     0.50000   0.31427   0.29072   0.00000  Uiso   1.00
O129   O     0.42495   0.25000   0.28132   0.00000  Uiso   1.00
O130   O     0.57505   0.25001   0.21868   0.00000  Uiso   1.00
O131   O     0.42495   0.25000   0.19988   0.00000  Uiso   1.00
O132   O     0.57505   0.25000   0.30012   0.00000  Uiso   1.00
C133   C     0.40379   0.22339   0.10404   0.00000  Uiso   1.00
C134   C     0.39733   0.17701   0.12401   0.00000  Uiso   1.00
C135   C     0.34018   0.16358   0.12098   0.00000  Uiso   1.00
H136   H     0.65319   0.18792   0.14117   0.00000  Uiso   1.00
H137   H     0.65426   0.16144   0.08253   0.00000  Uiso   1.00
H138   H     0.33697   0.13064   0.13713   0.00000  Uiso   1.00
H139   H     0.41613   0.15232   0.10271   0.00000  Uiso   1.00
H140   H     0.41565   0.17556   0.16225   0.00000  Uiso   1.00
H141   H     0.38781   0.25068   0.12346   0.00000  Uiso   1.00
H142   H     0.37655   0.22394   0.06913   0.00000  Uiso   1.00
C143   C     0.54946   0.32508   0.38931   0.00000  Uiso   1.00
C144   C     0.60206   0.32089   0.37131   0.00000  Uiso   1.00
C145   C     0.64160   0.35645   0.39386   0.00000  Uiso   1.00
H146   H     0.65035   0.35286   0.43380   0.00000  Uiso   1.00
H147   H     0.34480   0.35282   0.37860   0.00000  Uiso   1.00
H148   H     0.62647   0.38996   0.38577   0.00000  Uiso   1.00
H149   H     0.61898   0.28808   0.38022   0.00000  Uiso   1.00
H150   H     0.59659   0.32467   0.33149   0.00000  Uiso   1.00
H151   H     0.52035   0.34330   0.36540   0.00000  Uiso   1.00
H152   H     0.55521   0.34833   0.42135   0.00000  Uiso   1.00
C153   C     0.83279   0.16493   0.24944   0.00000  Uiso   1.00
C154   C     0.83315   0.33496   0.25036   0.00000  Uiso   1.00
C155   C     0.88316   0.25846   0.06294   0.00000  Uiso   1.00
C156   C     0.81411   0.20969   0.44052   0.00000  Uiso   1.00
C157   C     0.87806   0.26251   0.11271   0.00000  Uiso   1.00
C158   C     0.81054   0.21469   0.38970   0.00000  Uiso   1.00
C159   C     0.79205   0.23351   0.09479   0.00000  Uiso   1.00
C160   C     0.86038   0.28139   0.40327   0.00000  Uiso   1.00
C161   C     0.79753   0.22785   0.04544   0.00000  Uiso   1.00
C162   C     0.86571   0.27592   0.45392   0.00000  Uiso   1.00
C163   C     0.84230   0.24068   0.02821   0.00000  Uiso   1.00
C164   C     0.84233   0.24073   0.47374   0.00000  Uiso   1.00
C165   C     0.73453   0.25022   0.23738   0.00000  Uiso   1.00
C166   C     0.93216   0.25007   0.26265   0.00000  Uiso   1.00
C167   C     0.67898   0.25093   0.23071   0.00000  Uiso   1.00
C168   C     0.98775   0.25005   0.26945   0.00000  Uiso   1.00
C169   C     0.82552   0.04805   0.29056   0.00000  Uiso   1.00
C170   C     0.80180   0.45003   0.21019   0.00000  Uiso   1.00
C171   C     0.82653   0.09395   0.29092   0.00000  Uiso   1.00
C172   C     0.80271   0.40407   0.21110   0.00000  Uiso   1.00
C173   C     0.83127   0.11652   0.24845   0.00000  Uiso   1.00
C174   C     0.83172   0.38313   0.25032   0.00000  Uiso   1.00
C175   C     0.83433   0.09244   0.20542   0.00000  Uiso   1.00
C176   C     0.86046   0.40852   0.28815   0.00000  Uiso   1.00
C177   C     0.83352   0.04639   0.20515   0.00000  Uiso   1.00
C178   C     0.85980   0.45440   0.28720   0.00000  Uiso   1.00
C179   C     0.82946   0.02395   0.24784   0.00000  Uiso   1.00
C180   C     0.83028   0.47548   0.24834   0.00000  Uiso   1.00
Cu181  Cu    0.83333   0.25000   0.29821   0.00000  Uiso   1.00
Cu182  Cu    0.83333   0.25001   0.20178   0.00000  Uiso   1.00
H183   H     0.99162   0.25233   0.19390   0.00000  Uiso   1.00
H184   H     0.67512   0.24905   0.30635   0.00000  Uiso   1.00
H185   H     0.82145   0.03136   0.32369   0.00000  Uiso   1.00
H186   H     0.77842   0.46565   0.18006   0.00000  Uiso   1.00
H187   H     0.82356   0.11168   0.32451   0.00000  Uiso   1.00
H188   H     0.78035   0.38485   0.18145   0.00000  Uiso   1.00
H189   H     0.83787   0.10912   0.17217   0.00000  Uiso   1.00
H190   H     0.88471   0.39319   0.31762   0.00000  Uiso   1.00
H191   H     0.83706   0.02834   0.17189   0.00000  Uiso   1.00
H192   H     0.88309   0.47343   0.31643   0.00000  Uiso   1.00
H193   H     0.91922   0.26921   0.05193   0.00000  Uiso   1.00
H194   H     0.79493   0.18140   0.45357   0.00000  Uiso   1.00
H195   H     0.91058   0.27614   0.13772   0.00000  Uiso   1.00
H196   H     0.78925   0.18982   0.36558   0.00000  Uiso   1.00
H197   H     0.76500   0.21536   0.01936   0.00000  Uiso   1.00
H198   H     0.88630   0.30095   0.47845   0.00000  Uiso   1.00
N199   N     0.83333   0.25001   0.12934   0.00000  Uiso   1.00
N200   N     0.83333   0.24999   0.37065   0.00000  Uiso   1.00
O201   O     0.83334   0.18573   0.29072   0.00000  Uiso   1.00
O202   O     0.83333   0.31428   0.20928   0.00000  Uiso   1.00
O203   O     0.83334   0.18573   0.20928   0.00000  Uiso   1.00
O204   O     0.83333   0.31427   0.29072   0.00000  Uiso   1.00
O205   O     0.75828   0.25000   0.28132   0.00000  Uiso   1.00
O206   O     0.90839   0.25001   0.21868   0.00000  Uiso   1.00
O207   O     0.75828   0.25000   0.19988   0.00000  Uiso   1.00
O208   O     0.90839   0.25000   0.30012   0.00000  Uiso   1.00
C209   C     0.73712   0.22339   0.10404   0.00000  Uiso   1.00
C210   C     0.73066   0.17701   0.12401   0.00000  Uiso   1.00
C211   C     0.67351   0.16358   0.12098   0.00000  Uiso   1.00
H212   H     0.98652   0.18792   0.14117   0.00000  Uiso   1.00
H213   H     0.98759   0.16144   0.08253   0.00000  Uiso   1.00
H214   H     0.67031   0.13064   0.13713   0.00000  Uiso   1.00
H215   H     0.74946   0.15232   0.10271   0.00000  Uiso   1.00
H216   H     0.74898   0.17556   0.16225   0.00000  Uiso   1.00
H217   H     0.72114   0.25068   0.12346   0.00000  Uiso   1.00
H218   H     0.70989   0.22394   0.06913   0.00000  Uiso   1.00
C219   C     0.88280   0.32508   0.38931   0.00000  Uiso   1.00
C220   C     0.93539   0.32089   0.37131   0.00000  Uiso   1.00
C221   C     0.97493   0.35645   0.39386   0.00000  Uiso   1.00
H222   H     0.98368   0.35286   0.43380   0.00000  Uiso   1.00
H223   H     0.67813   0.35282   0.37860   0.00000  Uiso   1.00
H224   H     0.95980   0.38996   0.38577   0.00000  Uiso   1.00
H225   H     0.95231   0.28808   0.38022   0.00000  Uiso   1.00
H226   H     0.92992   0.32467   0.33149   0.00000  Uiso   1.00
H227   H     0.85368   0.34330   0.36540   0.00000  Uiso   1.00
H228   H     0.88854   0.34833   0.42135   0.00000  Uiso   1.00
C229   C     0.16613   0.66493   0.24944   0.00000  Uiso   1.00
C230   C     0.16648   0.83496   0.25036   0.00000  Uiso   1.00
C231   C     0.21649   0.75846   0.06294   0.00000  Uiso   1.00
C232   C     0.14744   0.70969   0.44052   0.00000  Uiso   1.00
C233   C     0.21139   0.76251   0.11271   0.00000  Uiso   1.00
C234   C     0.14387   0.71469   0.38970   0.00000  Uiso   1.00
C235   C     0.12538   0.73351   0.09479   0.00000  Uiso   1.00
C236   C     0.19371   0.78139   0.40327   0.00000  Uiso   1.00
C237   C     0.13086   0.72785   0.04544   0.00000  Uiso   1.00
C238   C     0.19904   0.77592   0.45392   0.00000  Uiso   1.00
C239   C     0.17563   0.74068   0.02821   0.00000  Uiso   1.00
C240   C     0.17566   0.74073   0.47374   0.00000  Uiso   1.00
C241   C     0.06786   0.75022   0.23738   0.00000  Uiso   1.00
C242   C     0.26549   0.75007   0.26265   0.00000  Uiso   1.00
C243   C     0.01232   0.75093   0.23071   0.00000  Uiso   1.00
C244   C     0.32108   0.75005   0.26945   0.00000  Uiso   1.00
C245   C     0.15885   0.54805   0.29056   0.00000  Uiso   1.00
C246   C     0.13513   0.95003   0.21019   0.00000  Uiso   1.00
C247   C     0.15986   0.59395   0.29092   0.00000  Uiso   1.00
C248   C     0.13604   0.90407   0.21110   0.00000  Uiso   1.00
C249   C     0.16460   0.61652   0.24845   0.00000  Uiso   1.00
C250   C     0.16506   0.88313   0.25032   0.00000  Uiso   1.00
C251   C     0.16766   0.59244   0.20542   0.00000  Uiso   1.00
C252   C     0.19379   0.90852   0.28815   0.00000  Uiso   1.00
C253   C     0.16685   0.54639   0.20515   0.00000  Uiso   1.00
C254   C     0.19313   0.95440   0.28720   0.00000  Uiso   1.00
C255   C     0.16279   0.52395   0.24784   0.00000  Uiso   1.00
C256   C     0.16362   0.97548   0.24834   0.00000  Uiso   1.00
Cu257  Cu    0.16667   0.75000   0.29821   0.00000  Uiso   1.00
Cu258  Cu    0.16667   0.75001   0.20178   0.00000  Uiso   1.00
H259   H     0.32496   0.75233   0.19390   0.00000  Uiso   1.00
H260   H     0.00845   0.74905   0.30635   0.00000  Uiso   1.00
H261   H     0.15479   0.53136   0.32369   0.00000  Uiso   1.00
H262   H     0.11176   0.96565   0.18006   0.00000  Uiso   1.00
H263   H     0.15690   0.61168   0.32451   0.00000  Uiso   1.00
H264   H     0.11369   0.88485   0.18145   0.00000  Uiso   1.00
H265   H     0.17120   0.60912   0.17217   0.00000  Uiso   1.00
H266   H     0.21804   0.89319   0.31762   0.00000  Uiso   1.00
H267   H     0.17039   0.52834   0.17189   0.00000  Uiso   1.00
H268   H     0.21642   0.97343   0.31643   0.00000  Uiso   1.00
H269   H     0.25255   0.76921   0.05193   0.00000  Uiso   1.00
H270   H     0.12827   0.68140   0.45357   0.00000  Uiso   1.00
H271   H     0.24392   0.77614   0.13772   0.00000  Uiso   1.00
H272   H     0.12259   0.68982   0.36558   0.00000  Uiso   1.00
H273   H     0.09834   0.71536   0.01936   0.00000  Uiso   1.00
H274   H     0.21963   0.80095   0.47845   0.00000  Uiso   1.00
N275   N     0.16667   0.75001   0.12934   0.00000  Uiso   1.00
N276   N     0.16667   0.74999   0.37065   0.00000  Uiso   1.00
O277   O     0.16667   0.68573   0.29072   0.00000  Uiso   1.00
O278   O     0.16666   0.81428   0.20928   0.00000  Uiso   1.00
O279   O     0.16667   0.68573   0.20928   0.00000  Uiso   1.00
O280   O     0.16666   0.81427   0.29072   0.00000  Uiso   1.00
O281   O     0.09161   0.75000   0.28132   0.00000  Uiso   1.00
O282   O     0.24172   0.75001   0.21868   0.00000  Uiso   1.00
O283   O     0.09161   0.75000   0.19988   0.00000  Uiso   1.00
O284   O     0.24172   0.75000   0.30012   0.00000  Uiso   1.00
C285   C     0.07046   0.72339   0.10404   0.00000  Uiso   1.00
C286   C     0.06399   0.67701   0.12401   0.00000  Uiso   1.00
C287   C     0.00684   0.66358   0.12098   0.00000  Uiso   1.00
H288   H     0.31985   0.68792   0.14117   0.00000  Uiso   1.00
H289   H     0.32093   0.66144   0.08253   0.00000  Uiso   1.00
H290   H     0.00364   0.63064   0.13713   0.00000  Uiso   1.00
H291   H     0.08280   0.65232   0.10271   0.00000  Uiso   1.00
H292   H     0.08232   0.67556   0.16225   0.00000  Uiso   1.00
H293   H     0.05448   0.75068   0.12346   0.00000  Uiso   1.00
H294   H     0.04322   0.72394   0.06913   0.00000  Uiso   1.00
C295   C     0.21613   0.82508   0.38931   0.00000  Uiso   1.00
C296   C     0.26873   0.82089   0.37131   0.00000  Uiso   1.00
C297   C     0.30827   0.85645   0.39386   0.00000  Uiso   1.00
H298   H     0.31701   0.85286   0.43380   0.00000  Uiso   1.00
H299   H     0.01146   0.85282   0.37860   0.00000  Uiso   1.00
H300   H     0.29314   0.88996   0.38577   0.00000  Uiso   1.00
H301   H     0.28564   0.78808   0.38022   0.00000  Uiso   1.00
H302   H     0.26325   0.82467   0.33149   0.00000  Uiso   1.00
H303   H     0.18702   0.84330   0.36540   0.00000  Uiso   1.00
H304   H     0.22187   0.84833   0.42135   0.00000  Uiso   1.00
C305   C     0.49946   0.66493   0.24944   0.00000  Uiso   1.00
C306   C     0.49982   0.83496   0.25036   0.00000  Uiso   1.00
C307   C     0.54982   0.75846   0.06294   0.00000  Uiso   1.00
C308   C     0.48078   0.70969   0.44052   0.00000  Uiso   1.00
C309   C     0.54472   0.76251   0.11271   0.00000  Uiso   1.00
C310   C     0.47721   0.71469   0.38970   0.00000  Uiso   1.00
C311   C     0.45871   0.73351   0.09479   0.00000  Uiso   1.00
C312   C     0.52705   0.78139   0.40327   0.00000  Uiso   1.00
C313   C     0.46420   0.72785   0.04544   0.00000  Uiso   1.00
C314   C     0.53237   0.77592   0.45392   0.00000  Uiso   1.00
C315   C     0.50897   0.74068   0.02821   0.00000  Uiso   1.00
C316   C     0.50900   0.74073   0.47374   0.00000  Uiso   1.00
C317   C     0.40120   0.75022   0.23738   0.00000  Uiso   1.00
C318   C     0.59882   0.75007   0.26265   0.00000  Uiso   1.00
C319   C     0.34565   0.75093   0.23071   0.00000  Uiso   1.00
C320   C     0.65442   0.75005   0.26945   0.00000  Uiso   1.00
C321   C     0.49218   0.54805   0.29056   0.00000  Uiso   1.00
C322   C     0.46846   0.95003   0.21019   0.00000  Uiso   1.00
C323   C     0.49320   0.59395   0.29092   0.00000  Uiso   1.00
C324   C     0.46938   0.90407   0.21110   0.00000  Uiso   1.00
C325   C     0.49794   0.61652   0.24845   0.00000  Uiso   1.00
C326   C     0.49839   0.88313   0.25032   0.00000  Uiso   1.00
C327   C     0.50100   0.59244   0.20542   0.00000  Uiso   1.00
C328   C     0.52713   0.90852   0.28815   0.00000  Uiso   1.00
C329   C     0.50018   0.54639   0.20515   0.00000  Uiso   1.00
C330   C     0.52647   0.95440   0.28720   0.00000  Uiso   1.00
C331   C     0.49613   0.52395   0.24784   0.00000  Uiso   1.00
C332   C     0.49695   0.97548   0.24834   0.00000  Uiso   1.00
Cu333  Cu    0.50000   0.75000   0.29821   0.00000  Uiso   1.00
Cu334  Cu    0.50000   0.75001   0.20178   0.00000  Uiso   1.00
H335   H     0.65829   0.75233   0.19390   0.00000  Uiso   1.00
H336   H     0.34178   0.74905   0.30635   0.00000  Uiso   1.00
H337   H     0.48812   0.53136   0.32369   0.00000  Uiso   1.00
H338   H     0.44509   0.96565   0.18006   0.00000  Uiso   1.00
H339   H     0.49023   0.61168   0.32451   0.00000  Uiso   1.00
H340   H     0.44702   0.88485   0.18145   0.00000  Uiso   1.00
H341   H     0.50454   0.60912   0.17217   0.00000  Uiso   1.00
H342   H     0.55137   0.89319   0.31762   0.00000  Uiso   1.00
H343   H     0.50372   0.52834   0.17189   0.00000  Uiso   1.00
H344   H     0.54975   0.97343   0.31643   0.00000  Uiso   1.00
H345   H     0.58589   0.76921   0.05193   0.00000  Uiso   1.00
H346   H     0.46160   0.68140   0.45357   0.00000  Uiso   1.00
H347   H     0.57725   0.77614   0.13772   0.00000  Uiso   1.00
H348   H     0.45592   0.68982   0.36558   0.00000  Uiso   1.00
H349   H     0.43167   0.71536   0.01936   0.00000  Uiso   1.00
H350   H     0.55296   0.80095   0.47845   0.00000  Uiso   1.00
N351   N     0.50000   0.75001   0.12934   0.00000  Uiso   1.00
N352   N     0.50000   0.74999   0.37065   0.00000  Uiso   1.00
O353   O     0.50000   0.68573   0.29072   0.00000  Uiso   1.00
O354   O     0.50000   0.81428   0.20928   0.00000  Uiso   1.00
O355   O     0.50000   0.68573   0.20928   0.00000  Uiso   1.00
O356   O     0.50000   0.81427   0.29072   0.00000  Uiso   1.00
O357   O     0.42495   0.75000   0.28132   0.00000  Uiso   1.00
O358   O     0.57505   0.75001   0.21868   0.00000  Uiso   1.00
O359   O     0.42495   0.75000   0.19988   0.00000  Uiso   1.00
O360   O     0.57505   0.75000   0.30012   0.00000  Uiso   1.00
C361   C     0.40379   0.72339   0.10404   0.00000  Uiso   1.00
C362   C     0.39733   0.67701   0.12401   0.00000  Uiso   1.00
C363   C     0.34018   0.66358   0.12098   0.00000  Uiso   1.00
H364   H     0.65319   0.68792   0.14117   0.00000  Uiso   1.00
H365   H     0.65426   0.66144   0.08253   0.00000  Uiso   1.00
H366   H     0.33697   0.63064   0.13713   0.00000  Uiso   1.00
H367   H     0.41613   0.65232   0.10271   0.00000  Uiso   1.00
H368   H     0.41565   0.67556   0.16225   0.00000  Uiso   1.00
H369   H     0.38781   0.75068   0.12346   0.00000  Uiso   1.00
H370   H     0.37655   0.72394   0.06913   0.00000  Uiso   1.00
C371   C     0.54946   0.82508   0.38931   0.00000  Uiso   1.00
C372   C     0.60206   0.82089   0.37131   0.00000  Uiso   1.00
C373   C     0.64160   0.85645   0.39386   0.00000  Uiso   1.00
H374   H     0.65035   0.85286   0.43380   0.00000  Uiso   1.00
H375   H     0.34480   0.85282   0.37860   0.00000  Uiso   1.00
H376   H     0.62647   0.88996   0.38577   0.00000  Uiso   1.00
H377   H     0.61898   0.78808   0.38022   0.00000  Uiso   1.00
H378   H     0.59659   0.82467   0.33149   0.00000  Uiso   1.00
H379   H     0.52035   0.84330   0.36540   0.00000  Uiso   1.00
H380   H     0.55521   0.84833   0.42135   0.00000  Uiso   1.00
C381   C     0.83279   0.66493   0.24944   0.00000  Uiso   1.00
C382   C     0.83315   0.83496   0.25036   0.00000  Uiso   1.00
C383   C     0.88316   0.75846   0.06294   0.00000  Uiso   1.00
C384   C     0.81411   0.70969   0.44052   0.00000  Uiso   1.00
C385   C     0.87806   0.76251   0.11271   0.00000  Uiso   1.00
C386   C     0.81054   0.71469   0.38970   0.00000  Uiso   1.00
C387   C     0.79205   0.73351   0.09479   0.00000  Uiso   1.00
C388   C     0.86038   0.78139   0.40327   0.00000  Uiso   1.00
C389   C     0.79753   0.72785   0.04544   0.00000  Uiso   1.00
C390   C     0.86571   0.77592   0.45392   0.00000  Uiso   1.00
C391   C     0.84230   0.74068   0.02821   0.00000  Uiso   1.00
C392   C     0.84233   0.74073   0.47374   0.00000  Uiso   1.00
C393   C     0.73453   0.75022   0.23738   0.00000  Uiso   1.00
C394   C     0.93216   0.75007   0.26265   0.00000  Uiso   1.00
C395   C     0.67898   0.75093   0.23071   0.00000  Uiso   1.00
C396   C     0.98775   0.75005   0.26945   0.00000  Uiso   1.00
C397   C     0.82552   0.54805   0.29056   0.00000  Uiso   1.00
C398   C     0.80180   0.95003   0.21019   0.00000  Uiso   1.00
C399   C     0.82653   0.59395   0.29092   0.00000  Uiso   1.00
C400   C     0.80271   0.90407   0.21110   0.00000  Uiso   1.00
C401   C     0.83127   0.61652   0.24845   0.00000  Uiso   1.00
C402   C     0.83172   0.88313   0.25032   0.00000  Uiso   1.00
C403   C     0.83433   0.59244   0.20542   0.00000  Uiso   1.00
C404   C     0.86046   0.90852   0.28815   0.00000  Uiso   1.00
C405   C     0.83352   0.54639   0.20515   0.00000  Uiso   1.00
C406   C     0.85980   0.95440   0.28720   0.00000  Uiso   1.00
C407   C     0.82946   0.52395   0.24784   0.00000  Uiso   1.00
C408   C     0.83028   0.97548   0.24834   0.00000  Uiso   1.00
Cu409  Cu    0.83333   0.75000   0.29821   0.00000  Uiso   1.00
Cu410  Cu    0.83333   0.75001   0.20178   0.00000  Uiso   1.00
H411   H     0.99162   0.75233   0.19390   0.00000  Uiso   1.00
H412   H     0.67512   0.74905   0.30635   0.00000  Uiso   1.00
H413   H     0.82145   0.53136   0.32369   0.00000  Uiso   1.00
H414   H     0.77842   0.96565   0.18006   0.00000  Uiso   1.00
H415   H     0.82356   0.61168   0.32451   0.00000  Uiso   1.00
H416   H     0.78035   0.88485   0.18145   0.00000  Uiso   1.00
H417   H     0.83787   0.60912   0.17217   0.00000  Uiso   1.00
H418   H     0.88471   0.89319   0.31762   0.00000  Uiso   1.00
H419   H     0.83706   0.52834   0.17189   0.00000  Uiso   1.00
H420   H     0.88309   0.97343   0.31643   0.00000  Uiso   1.00
H421   H     0.91922   0.76921   0.05193   0.00000  Uiso   1.00
H422   H     0.79493   0.68140   0.45357   0.00000  Uiso   1.00
H423   H     0.91058   0.77614   0.13772   0.00000  Uiso   1.00
H424   H     0.78925   0.68982   0.36558   0.00000  Uiso   1.00
H425   H     0.76500   0.71536   0.01936   0.00000  Uiso   1.00
H426   H     0.88630   0.80095   0.47845   0.00000  Uiso   1.00
N427   N     0.83333   0.75001   0.12934   0.00000  Uiso   1.00
N428   N     0.83333   0.74999   0.37065   0.00000  Uiso   1.00
O429   O     0.83334   0.68573   0.29072   0.00000  Uiso   1.00
O430   O     0.83333   0.81428   0.20928   0.00000  Uiso   1.00
O431   O     0.83334   0.68573   0.20928   0.00000  Uiso   1.00
O432   O     0.83333   0.81427   0.29072   0.00000  Uiso   1.00
O433   O     0.75828   0.75000   0.28132   0.00000  Uiso   1.00
O434   O     0.90839   0.75001   0.21868   0.00000  Uiso   1.00
O435   O     0.75828   0.75000   0.19988   0.00000  Uiso   1.00
O436   O     0.90839   0.75000   0.30012   0.00000  Uiso   1.00
C437   C     0.73712   0.72339   0.10404   0.00000  Uiso   1.00
C438   C     0.73066   0.67701   0.12401   0.00000  Uiso   1.00
C439   C     0.67351   0.66358   0.12098   0.00000  Uiso   1.00
H440   H     0.98652   0.68792   0.14117   0.00000  Uiso   1.00
H441   H     0.98759   0.66144   0.08253   0.00000  Uiso   1.00
H442   H     0.67031   0.63064   0.13713   0.00000  Uiso   1.00
H443   H     0.74946   0.65232   0.10271   0.00000  Uiso   1.00
H444   H     0.74898   0.67556   0.16225   0.00000  Uiso   1.00
H445   H     0.72114   0.75068   0.12346   0.00000  Uiso   1.00
H446   H     0.70989   0.72394   0.06913   0.00000  Uiso   1.00
C447   C     0.88280   0.82508   0.38931   0.00000  Uiso   1.00
C448   C     0.93539   0.82089   0.37131   0.00000  Uiso   1.00
C449   C     0.97493   0.85645   0.39386   0.00000  Uiso   1.00
H450   H     0.98368   0.85286   0.43380   0.00000  Uiso   1.00
H451   H     0.67813   0.85282   0.37860   0.00000  Uiso   1.00
H452   H     0.95980   0.88996   0.38577   0.00000  Uiso   1.00
H453   H     0.95231   0.78808   0.38022   0.00000  Uiso   1.00
H454   H     0.92992   0.82467   0.33149   0.00000  Uiso   1.00
H455   H     0.85368   0.84330   0.36540   0.00000  Uiso   1.00
H456   H     0.88854   0.84833   0.42135   0.00000  Uiso   1.00
C457   C     0.16613   0.16493   0.74944   0.00000  Uiso   1.00
C458   C     0.16648   0.33496   0.75036   0.00000  Uiso   1.00
C459   C     0.21649   0.25846   0.56294   0.00000  Uiso   1.00
C460   C     0.14744   0.20969   0.94052   0.00000  Uiso   1.00
C461   C     0.21139   0.26251   0.61271   0.00000  Uiso   1.00
C462   C     0.14387   0.21469   0.88970   0.00000  Uiso   1.00
C463   C     0.12538   0.23351   0.59479   0.00000  Uiso   1.00
C464   C     0.19371   0.28139   0.90327   0.00000  Uiso   1.00
C465   C     0.13086   0.22785   0.54544   0.00000  Uiso   1.00
C466   C     0.19904   0.27592   0.95392   0.00000  Uiso   1.00
C467   C     0.17563   0.24068   0.52821   0.00000  Uiso   1.00
C468   C     0.17566   0.24073   0.97374   0.00000  Uiso   1.00
C469   C     0.06786   0.25022   0.73738   0.00000  Uiso   1.00
C470   C     0.26549   0.25007   0.76265   0.00000  Uiso   1.00
C471   C     0.01232   0.25093   0.73071   0.00000  Uiso   1.00
C472   C     0.32108   0.25005   0.76945   0.00000  Uiso   1.00
C473   C     0.15885   0.04805   0.79056   0.00000  Uiso   1.00
C474   C     0.13513   0.45003   0.71019   0.00000  Uiso   1.00
C475   C     0.15986   0.09395   0.79092   0.00000  Uiso   1.00
C476   C     0.13604   0.40407   0.71110   0.00000  Uiso   1.00
C477   C     0.16460   0.11652   0.74845   0.00000  Uiso   1.00
C478   C     0.16506   0.38313   0.75032   0.00000  Uiso   1.00
C479   C     0.16766   0.09244   0.70542   0.00000  Uiso   1.00
C480   C     0.19379   0.40852   0.78815   0.00000  Uiso   1.00
C481   C     0.16685   0.04639   0.70515   0.00000  Uiso   1.00
C482   C     0.19313   0.45440   0.78720   0.00000  Uiso   1.00
C483   C     0.16279   0.02395   0.74784   0.00000  Uiso   1.00
C484   C     0.16362   0.47548   0.74834   0.00000  Uiso   1.00
Cu485  Cu    0.16667   0.25000   0.79821   0.00000  Uiso   1.00
Cu486  Cu    0.16667   0.25001   0.70178   0.00000  Uiso   1.00
H487   H     0.32496   0.25233   0.69390   0.00000  Uiso   1.00
H488   H     0.00845   0.24905   0.80635   0.00000  Uiso   1.00
H489   H     0.15479   0.03136   0.82369   0.00000  Uiso   1.00
H490   H     0.11176   0.46565   0.68006   0.00000  Uiso   1.00
H491   H     0.15690   0.11168   0.82451   0.00000  Uiso   1.00
H492   H     0.11369   0.38485   0.68145   0.00000  Uiso   1.00
H493   H     0.17120   0.10912   0.67217   0.00000  Uiso   1.00
H494   H     0.21804   0.39319   0.81762   0.00000  Uiso   1.00
H495   H     0.17039   0.02834   0.67189   0.00000  Uiso   1.00
H496   H     0.21642   0.47343   0.81643   0.00000  Uiso   1.00
H497   H     0.25255   0.26921   0.55193   0.00000  Uiso   1.00
H498   H     0.12827   0.18140   0.95357   0.00000  Uiso   1.00
H499   H     0.24392   0.27614   0.63772   0.00000  Uiso   1.00
H500   H     0.12259   0.18982   0.86558   0.00000  Uiso   1.00
H501   H     0.09834   0.21536   0.51936   0.00000  Uiso   1.00
H502   H     0.21963   0.30095   0.97845   0.00000  Uiso   1.00
N503   N     0.16667   0.25001   0.62934   0.00000  Uiso   1.00
N504   N     0.16667   0.24999   0.87065   0.00000  Uiso   1.00
O505   O     0.16667   0.18573   0.79072   0.00000  Uiso   1.00
O506   O     0.16666   0.31428   0.70928   0.00000  Uiso   1.00
O507   O     0.16667   0.18573   0.70928   0.00000  Uiso   1.00
O508   O     0.16666   0.31427   0.79072   0.00000  Uiso   1.00
O509   O     0.09161   0.25000   0.78132   0.00000  Uiso   1.00
O510   O     0.24172   0.25001   0.71868   0.00000  Uiso   1.00
O511   O     0.09161   0.25000   0.69988   0.00000  Uiso   1.00
O512   O     0.24172   0.25000   0.80012   0.00000  Uiso   1.00
C513   C     0.07046   0.22339   0.60404   0.00000  Uiso   1.00
C514   C     0.06399   0.17701   0.62401   0.00000  Uiso   1.00
C515   C     0.00684   0.16358   0.62098   0.00000  Uiso   1.00
H516   H     0.31985   0.18792   0.64117   0.00000  Uiso   1.00
H517   H     0.32093   0.16144   0.58253   0.00000  Uiso   1.00
H518   H     0.00364   0.13064   0.63713   0.00000  Uiso   1.00
H519   H     0.08280   0.15232   0.60271   0.00000  Uiso   1.00
H520   H     0.08232   0.17556   0.66225   0.00000  Uiso   1.00
H521   H     0.05448   0.25068   0.62346   0.00000  Uiso   1.00
H522   H     0.04322   0.22394   0.56913   0.00000  Uiso   1.00
C523   C     0.21613   0.32508   0.88931   0.00000  Uiso   1.00
C524   C     0.26873   0.32089   0.87131   0.00000  Uiso   1.00
C525   C     0.30827   0.35645   0.89386   0.00000  Uiso   1.00
H526   H     0.31701   0.35286   0.93380   0.00000  Uiso   1.00
H527   H     0.01146   0.35282   0.87860   0.00000  Uiso   1.00
H528   H     0.29314   0.38996   0.88577   0.00000  Uiso   1.00
H529   H     0.28564   0.28808   0.88022   0.00000  Uiso   1.00
H530   H     0.26325   0.32467   0.83149   0.00000  Uiso   1.00
H531   H     0.18702   0.34330   0.86540   0.00000  Uiso   1.00
H532   H     0.22187   0.34833   0.92135   0.00000  Uiso   1.00
C533   C     0.49946   0.16493   0.74944   0.00000  Uiso   1.00
C534   C     0.49982   0.33496   0.75036   0.00000  Uiso   1.00
C535   C     0.54982   0.25846   0.56294   0.00000  Uiso   1.00
C536   C     0.48078   0.20969   0.94052   0.00000  Uiso   1.00
C537   C     0.54472   0.26251   0.61271   0.00000  Uiso   1.00
C538   C     0.47721   0.21469   0.88970   0.00000  Uiso   1.00
C539   C     0.45871   0.23351   0.59479   0.00000  Uiso   1.00
C540   C     0.52705   0.28139   0.90327   0.00000  Uiso   1.00
C541   C     0.46420   0.22785   0.54544   0.00000  Uiso   1.00
C542   C     0.53237   0.27592   0.95392   0.00000  Uiso   1.00
C543   C     0.50897   0.24068   0.52821   0.00000  Uiso   1.00
C544   C     0.50900   0.24073   0.97374   0.00000  Uiso   1.00
C545   C     0.40120   0.25022   0.73738   0.00000  Uiso   1.00
C546   C     0.59882   0.25007   0.76265   0.00000  Uiso   1.00
C547   C     0.34565   0.25093   0.73071   0.00000  Uiso   1.00
C548   C     0.65442   0.25005   0.76945   0.00000  Uiso   1.00
C549   C     0.49218   0.04805   0.79056   0.00000  Uiso   1.00
C550   C     0.46846   0.45003   0.71019   0.00000  Uiso   1.00
C551   C     0.49320   0.09395   0.79092   0.00000  Uiso   1.00
C552   C     0.46938   0.40407   0.71110   0.00000  Uiso   1.00
C553   C     0.49794   0.11652   0.74845   0.00000  Uiso   1.00
C554   C     0.49839   0.38313   0.75032   0.00000  Uiso   1.00
C555   C     0.50100   0.09244   0.70542   0.00000  Uiso   1.00
C556   C     0.52713   0.40852   0.78815   0.00000  Uiso   1.00
C557   C     0.50018   0.04639   0.70515   0.00000  Uiso   1.00
C558   C     0.52647   0.45440   0.78720   0.00000  Uiso   1.00
C559   C     0.49613   0.02395   0.74784   0.00000  Uiso   1.00
C560   C     0.49695   0.47548   0.74834   0.00000  Uiso   1.00
Cu561  Cu    0.50000   0.25000   0.79821   0.00000  Uiso   1.00
Cu562  Cu    0.50000   0.25001   0.70178   0.00000  Uiso   1.00
H563   H     0.65829   0.25233   0.69390   0.00000  Uiso   1.00
H564   H     0.34178   0.24905   0.80635   0.00000  Uiso   1.00
H565   H     0.48812   0.03136   0.82369   0.00000  Uiso   1.00
H566   H     0.44509   0.46565   0.68006   0.00000  Uiso   1.00
H567   H     0.49023   0.11168   0.82451   0.00000  Uiso   1.00
H568   H     0.44702   0.38485   0.68145   0.00000  Uiso   1.00
H569   H     0.50454   0.10912   0.67217   0.00000  Uiso   1.00
H570   H     0.55137   0.39319   0.81762   0.00000  Uiso   1.00
H571   H     0.50372   0.02834   0.67189   0.00000  Uiso   1.00
H572   H     0.54975   0.47343   0.81643   0.00000  Uiso   1.00
H573   H     0.58589   0.26921   0.55193   0.00000  Uiso   1.00
H574   H     0.46160   0.18140   0.95357   0.00000  Uiso   1.00
H575   H     0.57725   0.27614   0.63772   0.00000  Uiso   1.00
H576   H     0.45592   0.18982   0.86558   0.00000  Uiso   1.00
H577   H     0.43167   0.21536   0.51936   0.00000  Uiso   1.00
H578   H     0.55296   0.30095   0.97845   0.00000  Uiso   1.00
N579   N     0.50000   0.25001   0.62934   0.00000  Uiso   1.00
N580   N     0.50000   0.24999   0.87065   0.00000  Uiso   1.00
O581   O     0.50000   0.18573   0.79072   0.00000  Uiso   1.00
O582   O     0.50000   0.31428   0.70928   0.00000  Uiso   1.00
O583   O     0.50000   0.18573   0.70928   0.00000  Uiso   1.00
O584   O     0.50000   0.31427   0.79072   0.00000  Uiso   1.00
O585   O     0.42495   0.25000   0.78132   0.00000  Uiso   1.00
O586   O     0.57505   0.25001   0.71868   0.00000  Uiso   1.00
O587   O     0.42495   0.25000   0.69988   0.00000  Uiso   1.00
O588   O     0.57505   0.25000   0.80012   0.00000  Uiso   1.00
C589   C     0.40379   0.22339   0.60404   0.00000  Uiso   1.00
C590   C     0.39733   0.17701   0.62401   0.00000  Uiso   1.00
C591   C     0.34018   0.16358   0.62098   0.00000  Uiso   1.00
H592   H     0.65319   0.18792   0.64117   0.00000  Uiso   1.00
H593   H     0.65426   0.16144   0.58253   0.00000  Uiso   1.00
H594   H     0.33697   0.13064   0.63713   0.00000  Uiso   1.00
H595   H     0.41613   0.15232   0.60271   0.00000  Uiso   1.00
H596   H     0.41565   0.17556   0.66225   0.00000  Uiso   1.00
H597   H     0.38781   0.25068   0.62346   0.00000  Uiso   1.00
H598   H     0.37655   0.22394   0.56913   0.00000  Uiso   1.00
C599   C     0.54946   0.32508   0.88931   0.00000  Uiso   1.00
C600   C     0.60206   0.32089   0.87131   0.00000  Uiso   1.00
C601   C     0.64160   0.35645   0.89386   0.00000  Uiso   1.00
H602   H     0.65035   0.35286   0.93380   0.00000  Uiso   1.00
H603   H     0.34480   0.35282   0.87860   0.00000  Uiso   1.00
H604   H     0.62647   0.38996   0.88577   0.00000  Uiso   1.00
H605   H     0.61898   0.28808   0.88022   0.00000  Uiso   1.00
H606   H     0.59659   0.32467   0.83149   0.00000  Uiso   1.00
H607   H     0.52035   0.34330   0.86540   0.00000  Uiso   1.00
H608   H     0.55521   0.34833   0.92135   0.00000  Uiso   1.00
C609   C     0.83279   0.16493   0.74944   0.00000  Uiso   1.00
C610   C     0.83315   0.33496   0.75036   0.00000  Uiso   1.00
C611   C     0.88316   0.25846   0.56294   0.00000  Uiso   1.00
C612   C     0.81411   0.20969   0.94052   0.00000  Uiso   1.00
C613   C     0.87806   0.26251   0.61271   0.00000  Uiso   1.00
C614   C     0.81054   0.21469   0.88970   0.00000  Uiso   1.00
C615   C     0.79205   0.23351   0.59479   0.00000  Uiso   1.00
C616   C     0.86038   0.28139   0.90327   0.00000  Uiso   1.00
C617   C     0.79753   0.22785   0.54544   0.00000  Uiso   1.00
C618   C     0.86571   0.27592   0.95392   0.00000  Uiso   1.00
C619   C     0.84230   0.24068   0.52821   0.00000  Uiso   1.00
C620   C     0.84233   0.24073   0.97374   0.00000  Uiso   1.00
C621   C     0.73453   0.25022   0.73738   0.00000  Uiso   1.00
C622   C     0.93216   0.25007   0.76265   0.00000  Uiso   1.00
C623   C     0.67898   0.25093   0.73071   0.00000  Uiso   1.00
C624   C     0.98775   0.25005   0.76945   0.00000  Uiso   1.00
C625   C     0.82552   0.04805   0.79056   0.00000  Uiso   1.00
C626   C     0.80180   0.45003   0.71019   0.00000  Uiso   1.00
C627   C     0.82653   0.09395   0.79092   0.00000  Uiso   1.00
C628   C     0.80271   0.40407   0.71110   0.00000  Uiso   1.00
C629   C     0.83127   0.11652   0.74845   0.00000  Uiso   1.00
C630   C     0.83172   0.38313   0.75032   0.00000  Uiso   1.00
C631   C     0.83433   0.09244   0.70542   0.00000  Uiso   1.00
C632   C     0.86046   0.40852   0.78815   0.00000  Uiso   1.00
C633   C     0.83352   0.04639   0.70515   0.00000  Uiso   1.00
C634   C     0.85980   0.45440   0.78720   0.00000  Uiso   1.00
C635   C     0.82946   0.02395   0.74784   0.00000  Uiso   1.00
C636   C     0.83028   0.47548   0.74834   0.00000  Uiso   1.00
Cu637  Cu    0.83333   0.25000   0.79821   0.00000  Uiso   1.00
Cu638  Cu    0.83333   0.25001   0.70178   0.00000  Uiso   1.00
H639   H     0.99162   0.25233   0.69390   0.00000  Uiso   1.00
H640   H     0.67512   0.24905   0.80635   0.00000  Uiso   1.00
H641   H     0.82145   0.03136   0.82369   0.00000  Uiso   1.00
H642   H     0.77842   0.46565   0.68006   0.00000  Uiso   1.00
H643   H     0.82356   0.11168   0.82451   0.00000  Uiso   1.00
H644   H     0.78035   0.38485   0.68145   0.00000  Uiso   1.00
H645   H     0.83787   0.10912   0.67217   0.00000  Uiso   1.00
H646   H     0.88471   0.39319   0.81762   0.00000  Uiso   1.00
H647   H     0.83706   0.02834   0.67189   0.00000  Uiso   1.00
H648   H     0.88309   0.47343   0.81643   0.00000  Uiso   1.00
H649   H     0.91922   0.26921   0.55193   0.00000  Uiso   1.00
H650   H     0.79493   0.18140   0.95357   0.00000  Uiso   1.00
H651   H     0.91058   0.27614   0.63772   0.00000  Uiso   1.00
H652   H     0.78925   0.18982   0.86558   0.00000  Uiso   1.00
H653   H     0.76500   0.21536   0.51936   0.00000  Uiso   1.00
H654   H     0.88630   0.30095   0.97845   0.00000  Uiso   1.00
N655   N     0.83333   0.25001   0.62934   0.00000  Uiso   1.00
N656   N     0.83333   0.24999   0.87065   0.00000  Uiso   1.00
O657   O     0.83334   0.18573   0.79072   0.00000  Uiso   1.00
O658   O     0.83333   0.31428   0.70928   0.00000  Uiso   1.00
O659   O     0.83334   0.18573   0.70928   0.00000  Uiso   1.00
O660   O     0.83333   0.31427   0.79072   0.00000  Uiso   1.00
O661   O     0.75828   0.25000   0.78132   0.00000  Uiso   1.00
O662   O     0.90839   0.25001   0.71868   0.00000  Uiso   1.00
O663   O     0.75828   0.25000   0.69988   0.00000  Uiso   1.00
O664   O     0.90839   0.25000   0.80012   0.00000  Uiso   1.00
C665   C     0.73712   0.22339   0.60404   0.00000  Uiso   1.00
C666   C     0.73066   0.17701   0.62401   0.00000  Uiso   1.00
C667   C     0.67351   0.16358   0.62098   0.00000  Uiso   1.00
H668   H     0.98652   0.18792   0.64117   0.00000  Uiso   1.00
H669   H     0.98759   0.16144   0.58253   0.00000  Uiso   1.00
H670   H     0.67031   0.13064   0.63713   0.00000  Uiso   1.00
H671   H     0.74946   0.15232   0.60271   0.00000  Uiso   1.00
H672   H     0.74898   0.17556   0.66225   0.00000  Uiso   1.00
H673   H     0.72114   0.25068   0.62346   0.00000  Uiso   1.00
H674   H     0.70989   0.22394   0.56913   0.00000  Uiso   1.00
C675   C     0.88280   0.32508   0.88931   0.00000  Uiso   1.00
C676   C     0.93539   0.32089   0.87131   0.00000  Uiso   1.00
C677   C     0.97493   0.35645   0.89386   0.00000  Uiso   1.00
H678   H     0.98368   0.35286   0.93380   0.00000  Uiso   1.00
H679   H     0.67813   0.35282   0.87860   0.00000  Uiso   1.00
H680   H     0.95980   0.38996   0.88577   0.00000  Uiso   1.00
H681   H     0.95231   0.28808   0.88022   0.00000  Uiso   1.00
H682   H     0.92992   0.32467   0.83149   0.00000  Uiso   1.00
H683   H     0.85368   0.34330   0.86540   0.00000  Uiso   1.00
H684   H     0.88854   0.34833   0.92135   0.00000  Uiso   1.00
C685   C     0.16613   0.66493   0.74944   0.00000  Uiso   1.00
C686   C     0.16648   0.83496   0.75036   0.00000  Uiso   1.00
C687   C     0.21649   0.75846   0.56294   0.00000  Uiso   1.00
C688   C     0.14744   0.70969   0.94052   0.00000  Uiso   1.00
C689   C     0.21139   0.76251   0.61271   0.00000  Uiso   1.00
C690   C     0.14387   0.71469   0.88970   0.00000  Uiso   1.00
C691   C     0.12538   0.73351   0.59479   0.00000  Uiso   1.00
C692   C     0.19371   0.78139   0.90327   0.00000  Uiso   1.00
C693   C     0.13086   0.72785   0.54544   0.00000  Uiso   1.00
C694   C     0.19904   0.77592   0.95392   0.00000  Uiso   1.00
C695   C     0.17563   0.74068   0.52821   0.00000  Uiso   1.00
C696   C     0.17566   0.74073   0.97374   0.00000  Uiso   1.00
C697   C     0.06786   0.75022   0.73738   0.00000  Uiso   1.00
C698   C     0.26549   0.75007   0.76265   0.00000  Uiso   1.00
C699   C     0.01232   0.75093   0.73071   0.00000  Uiso   1.00
C700   C     0.32108   0.75005   0.76945   0.00000  Uiso   1.00
C701   C     0.15885   0.54805   0.79056   0.00000  Uiso   1.00
C702   C     0.13513   0.95003   0.71019   0.00000  Uiso   1.00
C703   C     0.15986   0.59395   0.79092   0.00000  Uiso   1.00
C704   C     0.13604   0.90407   0.71110   0.00000  Uiso   1.00
C705   C     0.16460   0.61652   0.74845   0.00000  Uiso   1.00
C706   C     0.16506   0.88313   0.75032   0.00000  Uiso   1.00
C707   C     0.16766   0.59244   0.70542   0.00000  Uiso   1.00
C708   C     0.19379   0.90852   0.78815   0.00000  Uiso   1.00
C709   C     0.16685   0.54639   0.70515   0.00000  Uiso   1.00
C710   C     0.19313   0.95440   0.78720   0.00000  Uiso   1.00
C711   C     0.16279   0.52395   0.74784   0.00000  Uiso   1.00
C712   C     0.16362   0.97548   0.74834   0.00000  Uiso   1.00
Cu713  Cu    0.16667   0.75000   0.79821   0.00000  Uiso   1.00
Cu714  Cu    0.16667   0.75001   0.70178   0.00000  Uiso   1.00
H715   H     0.32496   0.75233   0.69390   0.00000  Uiso   1.00
H716   H     0.00845   0.74905   0.80635   0.00000  Uiso   1.00
H717   H     0.15479   0.53136   0.82369   0.00000  Uiso   1.00
H718   H     0.11176   0.96565   0.68006   0.00000  Uiso   1.00
H719   H     0.15690   0.61168   0.82451   0.00000  Uiso   1.00
H720   H     0.11369   0.88485   0.68145   0.00000  Uiso   1.00
H721   H     0.17120   0.60912   0.67217   0.00000  Uiso   1.00
H722   H     0.21804   0.89319   0.81762   0.00000  Uiso   1.00
H723   H     0.17039   0.52834   0.67189   0.00000  Uiso   1.00
H724   H     0.21642   0.97343   0.81643   0.00000  Uiso   1.00
H725   H     0.25255   0.76921   0.55193   0.00000  Uiso   1.00
H726   H     0.12827   0.68140   0.95357   0.00000  Uiso   1.00
H727   H     0.24392   0.77614   0.63772   0.00000  Uiso   1.00
H728   H     0.12259   0.68982   0.86558   0.00000  Uiso   1.00
H729   H     0.09834   0.71536   0.51936   0.00000  Uiso   1.00
H730   H     0.21963   0.80095   0.97845   0.00000  Uiso   1.00
N731   N     0.16667   0.75001   0.62934   0.00000  Uiso   1.00
N732   N     0.16667   0.74999   0.87065   0.00000  Uiso   1.00
O733   O     0.16667   0.68573   0.79072   0.00000  Uiso   1.00
O734   O     0.16666   0.81428   0.70928   0.00000  Uiso   1.00
O735   O     0.16667   0.68573   0.70928   0.00000  Uiso   1.00
O736   O     0.16666   0.81427   0.79072   0.00000  Uiso   1.00
O737   O     0.09161   0.75000   0.78132   0.00000  Uiso   1.00
O738   O     0.24172   0.75001   0.71868   0.00000  Uiso   1.00
O739   O     0.09161   0.75000   0.69988   0.00000  Uiso   1.00
O740   O     0.24172   0.75000   0.80012   0.00000  Uiso   1.00
C741   C     0.07046   0.72339   0.60404   0.00000  Uiso   1.00
C742   C     0.06399   0.67701   0.62401   0.00000  Uiso   1.00
C743   C     0.00684   0.66358   0.62098   0.00000  Uiso   1.00
H744   H     0.31985   0.68792   0.64117   0.00000  Uiso   1.00
H745   H     0.32093   0.66144   0.58253   0.00000  Uiso   1.00
H746   H     0.00364   0.63064   0.63713   0.00000  Uiso   1.00
H747   H     0.08280   0.65232   0.60271   0.00000  Uiso   1.00
H748   H     0.08232   0.67556   0.66225   0.00000  Uiso   1.00
H749   H     0.05448   0.75068   0.62346   0.00000  Uiso   1.00
H750   H     0.04322   0.72394   0.56913   0.00000  Uiso   1.00
C751   C     0.21613   0.82508   0.88931   0.00000  Uiso   1.00
C752   C     0.26873   0.82089   0.87131   0.00000  Uiso   1.00
C753   C     0.30827   0.85645   0.89386   0.00000  Uiso   1.00
H754   H     0.31701   0.85286   0.93380   0.00000  Uiso   1.00
H755   H     0.01146   0.85282   0.87860   0.00000  Uiso   1.00
H756   H     0.29314   0.88996   0.88577   0.00000  Uiso   1.00
H757   H     0.28564   0.78808   0.88022   0.00000  Uiso   1.00
H758   H     0.26325   0.82467   0.83149   0.00000  Uiso   1.00
H759   H     0.18702   0.84330   0.86540   0.00000  Uiso   1.00
H760   H     0.22187   0.84833   0.92135   0.00000  Uiso   1.00
C761   C     0.49946   0.66493   0.74944   0.00000  Uiso   1.00
C762   C     0.49982   0.83496   0.75036   0.00000  Uiso   1.00
C763   C     0.54982   0.75846   0.56294   0.00000  Uiso   1.00
C764   C     0.48078   0.70969   0.94052   0.00000  Uiso   1.00
C765   C     0.54472   0.76251   0.61271   0.00000  Uiso   1.00
C766   C     0.47721   0.71469   0.88970   0.00000  Uiso   1.00
C767   C     0.45871   0.73351   0.59479   0.00000  Uiso   1.00
C768   C     0.52705   0.78139   0.90327   0.00000  Uiso   1.00
C769   C     0.46420   0.72785   0.54544   0.00000  Uiso   1.00
C770   C     0.53237   0.77592   0.95392   0.00000  Uiso   1.00
C771   C     0.50897   0.74068   0.52821   0.00000  Uiso   1.00
C772   C     0.50900   0.74073   0.97374   0.00000  Uiso   1.00
C773   C     0.40120   0.75022   0.73738   0.00000  Uiso   1.00
C774   C     0.59882   0.75007   0.76265   0.00000  Uiso   1.00
C775   C     0.34565   0.75093   0.73071   0.00000  Uiso   1.00
C776   C     0.65442   0.75005   0.76945   0.00000  Uiso   1.00
C777   C     0.49218   0.54805   0.79056   0.00000  Uiso   1.00
C778   C     0.46846   0.95003   0.71019   0.00000  Uiso   1.00
C779   C     0.49320   0.59395   0.79092   0.00000  Uiso   1.00
C780   C     0.46938   0.90407   0.71110   0.00000  Uiso   1.00
C781   C     0.49794   0.61652   0.74845   0.00000  Uiso   1.00
C782   C     0.49839   0.88313   0.75032   0.00000  Uiso   1.00
C783   C     0.50100   0.59244   0.70542   0.00000  Uiso   1.00
C784   C     0.52713   0.90852   0.78815   0.00000  Uiso   1.00
C785   C     0.50018   0.54639   0.70515   0.00000  Uiso   1.00
C786   C     0.52647   0.95440   0.78720   0.00000  Uiso   1.00
C787   C     0.49613   0.52395   0.74784   0.00000  Uiso   1.00
C788   C     0.49695   0.97548   0.74834   0.00000  Uiso   1.00
Cu789  Cu    0.50000   0.75000   0.79821   0.00000  Uiso   1.00
Cu790  Cu    0.50000   0.75001   0.70178   0.00000  Uiso   1.00
H791   H     0.65829   0.75233   0.69390   0.00000  Uiso   1.00
H792   H     0.34178   0.74905   0.80635   0.00000  Uiso   1.00
H793   H     0.48812   0.53136   0.82369   0.00000  Uiso   1.00
H794   H     0.44509   0.96565   0.68006   0.00000  Uiso   1.00
H795   H     0.49023   0.61168   0.82451   0.00000  Uiso   1.00
H796   H     0.44702   0.88485   0.68145   0.00000  Uiso   1.00
H797   H     0.50454   0.60912   0.67217   0.00000  Uiso   1.00
H798   H     0.55137   0.89319   0.81762   0.00000  Uiso   1.00
H799   H     0.50372   0.52834   0.67189   0.00000  Uiso   1.00
H800   H     0.54975   0.97343   0.81643   0.00000  Uiso   1.00
H801   H     0.58589   0.76921   0.55193   0.00000  Uiso   1.00
H802   H     0.46160   0.68140   0.95357   0.00000  Uiso   1.00
H803   H     0.57725   0.77614   0.63772   0.00000  Uiso   1.00
H804   H     0.45592   0.68982   0.86558   0.00000  Uiso   1.00
H805   H     0.43167   0.71536   0.51936   0.00000  Uiso   1.00
H806   H     0.55296   0.80095   0.97845   0.00000  Uiso   1.00
N807   N     0.50000   0.75001   0.62934   0.00000  Uiso   1.00
N808   N     0.50000   0.74999   0.87065   0.00000  Uiso   1.00
O809   O     0.50000   0.68573   0.79072   0.00000  Uiso   1.00
O810   O     0.50000   0.81428   0.70928   0.00000  Uiso   1.00
O811   O     0.50000   0.68573   0.70928   0.00000  Uiso   1.00
O812   O     0.50000   0.81427   0.79072   0.00000  Uiso   1.00
O813   O     0.42495   0.75000   0.78132   0.00000  Uiso   1.00
O814   O     0.57505   0.75001   0.71868   0.00000  Uiso   1.00
O815   O     0.42495   0.75000   0.69988   0.00000  Uiso   1.00
O816   O     0.57505   0.75000   0.80012   0.00000  Uiso   1.00
C817   C     0.40379   0.72339   0.60404   0.00000  Uiso   1.00
C818   C     0.39733   0.67701   0.62401   0.00000  Uiso   1.00
C819   C     0.34018   0.66358   0.62098   0.00000  Uiso   1.00
H820   H     0.65319   0.68792   0.64117   0.00000  Uiso   1.00
H821   H     0.65426   0.66144   0.58253   0.00000  Uiso   1.00
H822   H     0.33697   0.63064   0.63713   0.00000  Uiso   1.00
H823   H     0.41613   0.65232   0.60271   0.00000  Uiso   1.00
H824   H     0.41565   0.67556   0.66225   0.00000  Uiso   1.00
H825   H     0.38781   0.75068   0.62346   0.00000  Uiso   1.00
H826   H     0.37655   0.72394   0.56913   0.00000  Uiso   1.00
C827   C     0.54946   0.82508   0.88931   0.00000  Uiso   1.00
C828   C     0.60206   0.82089   0.87131   0.00000  Uiso   1.00
C829   C     0.64160   0.85645   0.89386   0.00000  Uiso   1.00
H830   H     0.65035   0.85286   0.93380   0.00000  Uiso   1.00
H831   H     0.34480   0.85282   0.87860   0.00000  Uiso   1.00
H832   H     0.62647   0.88996   0.88577   0.00000  Uiso   1.00
H833   H     0.61898   0.78808   0.88022   0.00000  Uiso   1.00
H834   H     0.59659   0.82467   0.83149   0.00000  Uiso   1.00
H835   H     0.52035   0.84330   0.86540   0.00000  Uiso   1.00
H836   H     0.55521   0.84833   0.92135   0.00000  Uiso   1.00
C837   C     0.83279   0.66493   0.74944   0.00000  Uiso   1.00
C838   C     0.83315   0.83496   0.75036   0.00000  Uiso   1.00
C839   C     0.88316   0.75846   0.56294   0.00000  Uiso   1.00
C840   C     0.81411   0.70969   0.94052   0.00000  Uiso   1.00
C841   C     0.87806   0.76251   0.61271   0.00000  Uiso   1.00
C842   C     0.81054   0.71469   0.88970   0.00000  Uiso   1.00
C843   C     0.79205   0.73351   0.59479   0.00000  Uiso   1.00
C844   C     0.86038   0.78139   0.90327   0.00000  Uiso   1.00
C845   C     0.79753   0.72785   0.54544   0.00000  Uiso   1.00
C846   C     0.86571   0.77592   0.95392   0.00000  Uiso   1.00
C847   C     0.84230   0.74068   0.52821   0.00000  Uiso   1.00
C848   C     0.84233   0.74073   0.97374   0.00000  Uiso   1.00
C849   C     0.73453   0.75022   0.73738   0.00000  Uiso   1.00
C850   C     0.93216   0.75007   0.76265   0.00000  Uiso   1.00
C851   C     0.67898   0.75093   0.73071   0.00000  Uiso   1.00
C852   C     0.98775   0.75005   0.76945   0.00000  Uiso   1.00
C853   C     0.82552   0.54805   0.79056   0.00000  Uiso   1.00
C854   C     0.80180   0.95003   0.71019   0.00000  Uiso   1.00
C855   C     0.82653   0.59395   0.79092   0.00000  Uiso   1.00
C856   C     0.80271   0.90407   0.71110   0.00000  Uiso   1.00
C857   C     0.83127   0.61652   0.74845   0.00000  Uiso   1.00
C858   C     0.83172   0.88313   0.75032   0.00000  Uiso   1.00
C859   C     0.83433   0.59244   0.70542   0.00000  Uiso   1.00
C860   C     0.86046   0.90852   0.78815   0.00000  Uiso   1.00
C861   C     0.83352   0.54639   0.70515   0.00000  Uiso   1.00
C862   C     0.85980   0.95440   0.78720   0.00000  Uiso   1.00
C863   C     0.82946   0.52395   0.74784   0.00000  Uiso   1.00
C864   C     0.83028   0.97548   0.74834   0.00000  Uiso   1.00
Cu865  Cu    0.83333   0.75000   0.79821   0.00000  Uiso   1.00
Cu866  Cu    0.83333   0.75001   0.70178   0.00000  Uiso   1.00
H867   H     0.99162   0.75233   0.69390   0.00000  Uiso   1.00
H868   H     0.67512   0.74905   0.80635   0.00000  Uiso   1.00
H869   H     0.82145   0.53136   0.82369   0.00000  Uiso   1.00
H870   H     0.77842   0.96565   0.68006   0.00000  Uiso   1.00
H871   H     0.82356   0.61168   0.82451   0.00000  Uiso   1.00
H872   H     0.78035   0.88485   0.68145   0.00000  Uiso   1.00
H873   H     0.83787   0.60912   0.67217   0.00000  Uiso   1.00
H874   H     0.88471   0.89319   0.81762   0.00000  Uiso   1.00
H875   H     0.83706   0.52834   0.67189   0.00000  Uiso   1.00
H876   H     0.88309   0.97343   0.81643   0.00000  Uiso   1.00
H877   H     0.91922   0.76921   0.55193   0.00000  Uiso   1.00
H878   H     0.79493   0.68140   0.95357   0.00000  Uiso   1.00
H879   H     0.91058   0.77614   0.63772   0.00000  Uiso   1.00
H880   H     0.78925   0.68982   0.86558   0.00000  Uiso   1.00
H881   H     0.76500   0.71536   0.51936   0.00000  Uiso   1.00
H882   H     0.88630   0.80095   0.97845   0.00000  Uiso   1.00
N883   N     0.83333   0.75001   0.62934   0.00000  Uiso   1.00
N884   N     0.83333   0.74999   0.87065   0.00000  Uiso   1.00
O885   O     0.83334   0.68573   0.79072   0.00000  Uiso   1.00
O886   O     0.83333   0.81428   0.70928   0.00000  Uiso   1.00
O887   O     0.83334   0.68573   0.70928   0.00000  Uiso   1.00
O888   O     0.83333   0.81427   0.79072   0.00000  Uiso   1.00
O889   O     0.75828   0.75000   0.78132   0.00000  Uiso   1.00
O890   O     0.90839   0.75001   0.71868   0.00000  Uiso   1.00
O891   O     0.75828   0.75000   0.69988   0.00000  Uiso   1.00
O892   O     0.90839   0.75000   0.80012   0.00000  Uiso   1.00
C893   C     0.73712   0.72339   0.60404   0.00000  Uiso   1.00
C894   C     0.73066   0.67701   0.62401   0.00000  Uiso   1.00
C895   C     0.67351   0.66358   0.62098   0.00000  Uiso   1.00
H896   H     0.98652   0.68792   0.64117   0.00000  Uiso   1.00
H897   H     0.98759   0.66144   0.58253   0.00000  Uiso   1.00
H898   H     0.67031   0.63064   0.63713   0.00000  Uiso   1.00
H899   H     0.74946   0.65232   0.60271   0.00000  Uiso   1.00
H900   H     0.74898   0.67556   0.66225   0.00000  Uiso   1.00
H901   H     0.72114   0.75068   0.62346   0.00000  Uiso   1.00
H902   H     0.70989   0.72394   0.56913   0.00000  Uiso   1.00
C903   C     0.88280   0.82508   0.88931   0.00000  Uiso   1.00
C904   C     0.93539   0.82089   0.87131   0.00000  Uiso   1.00
C905   C     0.97493   0.85645   0.89386   0.00000  Uiso   1.00
H906   H     0.98368   0.85286   0.93380   0.00000  Uiso   1.00
H907   H     0.67813   0.85282   0.87860   0.00000  Uiso   1.00
H908   H     0.95980   0.88996   0.88577   0.00000  Uiso   1.00
H909   H     0.95231   0.78808   0.88022   0.00000  Uiso   1.00
H910   H     0.92992   0.82467   0.83149   0.00000  Uiso   1.00
H911   H     0.85368   0.84330   0.86540   0.00000  Uiso   1.00
H912   H     0.88854   0.84833   0.92135   0.00000  Uiso   1.00
loop_
_geom_bond_atom_site_label_1
_geom_bond_atom_site_label_2
_geom_bond_distance
_geom_bond_site_symmetry_2
_ccdc_geom_bond_type
C1     C21     1.463   .     S
C1     O51     1.301   .     A
C1     O49     1.297   .     A
C2     O50     1.293   .     A
C2     C22     1.458   .     S
C2     O52     1.302   .     A
C3     H41     1.082   .     S
C3     C5      1.419   .     A
C3     C11     1.412   .     A
C4     C12     1.414   .     A
C4     C6      1.419   .     A
C4     H42     1.082   .     S
C5     N47     1.373   .     A
C5     H43     1.079   .     S
C6     N48     1.371   .     A
C6     H44     1.081   .     S
C7     N47     1.403   .     A
C7     C9      1.414   .     A
C7     C57     1.524   .     S
C8     N48     1.399   .     A
C8     C67     1.519   .     S
C8     C10     1.413   .     A
C9     H45     1.083   .     S
C9     C11     1.385   .     A
C10    C12     1.386   .     A
C10    H46     1.083   .     S
C11    C468    1.521   1_554 S
C12    C467    1.521   .     S
C13    O53     1.285   .     A
C13    C15     1.434   .     S
C13    O55     1.298   .     A
C14    O56     1.298   .     A
C14    O54     1.285   .     A
C14    C16     1.435   .     S
C15    C168    1.342   1_455 S
C15    H183    1.086   1_455 S
C16    C91     1.342   .     S
C16    H108    1.087   .     S
C17    C19     1.387   .     A
C17    H33     1.083   .     S
C17    C27     1.401   .     A
C18    C20     1.391   .     A
C18    C28     1.402   .     A
C18    H34     1.083   .     S
C19    C21     1.403   .     A
C19    H35     1.083   .     S
C20    C22     1.402   .     A
C20    H36     1.084   .     S
C21    C23     1.403   .     A
C22    C24     1.398   .     A
C23    H37     1.083   .     S
C23    C25     1.392   .     A
C24    C26     1.389   .     A
C24    H38     1.077   .     S
C25    C27     1.403   .     A
C25    H39     1.083   .     S
C26    C28     1.403   .     A
C26    H40     1.083   .     S
C27    C256    1.467   1_545 S
C28    C255    1.467   .     S
Cu29   O49     1.950   .     S
Cu29   N48     2.023   .     S
Cu29   O53     1.943   .     S
Cu29   Cu30    2.692   .     S
Cu29   O56     1.953   .     S
Cu29   O52     1.960   .     S
Cu30   O51     1.960   .     S
Cu30   O54     1.943   .     S
Cu30   O50     1.950   .     S
Cu30   N47     2.023   .     S
Cu30   O55     1.953   .     S
H31    C91     1.086   .     S
H32    C168    1.087   1_455 S
C57    H66     1.113   .     S
C57    H65     1.101   .     S
C57    C58     1.538   .     S
C58    H64     1.101   .     S
C58    H63     1.112   .     S
C58    C59     1.528   .     S
C59    H62     1.111   .     S
C59    H212    1.110   1_455 S
C59    H213    1.111   1_455 S
H60    C135    1.110   .     S
H61    C135    1.111   .     S
C67    C68     1.542   .     S
C67    H75     1.097   .     S
C67    H76     1.113   .     S
C68    H74     1.107   .     S
C68    C69     1.529   .     S
C68    H73     1.112   .     S
C69    H72     1.111   .     S
C69    H70     1.111   .     S
C69    H147    1.111   .     S
H71    C221    1.111   1_455 S
C77    C97     1.463   .     S
C77    O127    1.301   .     A
C77    O125    1.297   .     A
C78    O126    1.293   .     A
C78    C98     1.458   .     S
C78    O128    1.302   .     A
C79    H117    1.082   .     S
C79    C81     1.419   .     A
C79    C87     1.412   .     A
C80    C88     1.414   .     A
C80    C82     1.419   .     A
C80    H118    1.082   .     S
C81    N123    1.373   .     A
C81    H119    1.079   .     S
C82    N124    1.371   .     A
C82    H120    1.081   .     S
C83    N123    1.403   .     A
C83    C85     1.414   .     A
C83    C133    1.524   .     S
C84    N124    1.399   .     A
C84    C143    1.519   .     S
C84    C86     1.413   .     A
C85    H121    1.083   .     S
C85    C87     1.385   .     A
C86    C88     1.386   .     A
C86    H122    1.083   .     S
C87    C544    1.521   1_554 S
C88    C543    1.521   .     S
C89    O129    1.285   .     A
C89    C91     1.434   .     S
C89    O131    1.298   .     A
C90    O132    1.298   .     A
C90    O130    1.285   .     A
C90    C92     1.435   .     S
C92    C167    1.342   .     S
C92    H184    1.087   .     S
C93    C95     1.387   .     A
C93    H109    1.083   .     S
C93    C103    1.401   .     A
C94    C96     1.391   .     A
C94    C104    1.402   .     A
C94    H110    1.083   .     S
C95    C97     1.403   .     A
C95    H111    1.083   .     S
C96    C98     1.402   .     A
C96    H112    1.084   .     S
C97    C99     1.403   .     A
C98    C100    1.398   .     A
C99    H113    1.083   .     S
C99    C101    1.392   .     A
C100   C102    1.389   .     A
C100   H114    1.077   .     S
C101   C103    1.403   .     A
C101   H115    1.083   .     S
C102   C104    1.403   .     A
C102   H116    1.083   .     S
C103   C332    1.467   1_545 S
C104   C331    1.467   .     S
Cu105  O125    1.950   .     S
Cu105  N124    2.023   .     S
Cu105  O129    1.943   .     S
Cu105  Cu106   2.692   .     S
Cu105  O132    1.953   .     S
Cu105  O128    1.960   .     S
Cu106  O127    1.960   .     S
Cu106  O130    1.943   .     S
Cu106  O126    1.950   .     S
Cu106  N123    2.023   .     S
Cu106  O131    1.953   .     S
H107   C167    1.086   .     S
C133   H142    1.113   .     S
C133   H141    1.101   .     S
C133   C134    1.538   .     S
C134   H140    1.101   .     S
C134   H139    1.112   .     S
C134   C135    1.528   .     S
C135   H138    1.111   .     S
H136   C211    1.110   .     S
H137   C211    1.111   .     S
C143   C144    1.542   .     S
C143   H151    1.097   .     S
C143   H152    1.113   .     S
C144   H150    1.107   .     S
C144   C145    1.529   .     S
C144   H149    1.112   .     S
C145   H148    1.111   .     S
C145   H146    1.111   .     S
C145   H223    1.111   .     S
C153   C173    1.463   .     S
C153   O203    1.301   .     A
C153   O201    1.297   .     A
C154   O202    1.293   .     A
C154   C174    1.458   .     S
C154   O204    1.302   .     A
C155   H193    1.082   .     S
C155   C157    1.419   .     A
C155   C163    1.412   .     A
C156   C164    1.414   .     A
C156   C158    1.419   .     A
C156   H194    1.082   .     S
C157   N199    1.373   .     A
C157   H195    1.079   .     S
C158   N200    1.371   .     A
C158   H196    1.081   .     S
C159   N199    1.403   .     A
C159   C161    1.414   .     A
C159   C209    1.524   .     S
C160   N200    1.399   .     A
C160   C219    1.519   .     S
C160   C162    1.413   .     A
C161   H197    1.083   .     S
C161   C163    1.385   .     A
C162   C164    1.386   .     A
C162   H198    1.083   .     S
C163   C620    1.521   1_554 S
C164   C619    1.521   .     S
C165   O205    1.285   .     A
C165   C167    1.434   .     S
C165   O207    1.298   .     A
C166   O208    1.298   .     A
C166   O206    1.285   .     A
C166   C168    1.435   .     S
C168   C15     1.342   1_655 S
C168   H32     1.087   1_655 S
C169   C171    1.387   .     A
C169   H185    1.083   .     S
C169   C179    1.401   .     A
C170   C172    1.391   .     A
C170   C180    1.402   .     A
C170   H186    1.083   .     S
C171   C173    1.403   .     A
C171   H187    1.083   .     S
C172   C174    1.402   .     A
C172   H188    1.084   .     S
C173   C175    1.403   .     A
C174   C176    1.398   .     A
C175   H189    1.083   .     S
C175   C177    1.392   .     A
C176   C178    1.389   .     A
C176   H190    1.077   .     S
C177   C179    1.403   .     A
C177   H191    1.083   .     S
C178   C180    1.403   .     A
C178   H192    1.083   .     S
C179   C408    1.467   1_545 S
C180   C407    1.467   .     S
Cu181  O201    1.950   .     S
Cu181  N200    2.023   .     S
Cu181  O205    1.943   .     S
Cu181  Cu182   2.692   .     S
Cu181  O208    1.953   .     S
Cu181  O204    1.960   .     S
Cu182  O203    1.960   .     S
Cu182  O206    1.943   .     S
Cu182  O202    1.950   .     S
Cu182  N199    2.023   .     S
Cu182  O207    1.953   .     S
H183   C15     1.086   1_655 S
C209   H218    1.113   .     S
C209   H217    1.101   .     S
C209   C210    1.538   .     S
C210   H216    1.101   .     S
C210   H215    1.112   .     S
C210   C211    1.528   .     S
C211   H214    1.111   .     S
H212   C59     1.110   1_655 S
H213   C59     1.111   1_655 S
C219   C220    1.542   .     S
C219   H227    1.097   .     S
C219   H228    1.113   .     S
C220   H226    1.107   .     S
C220   C221    1.529   .     S
C220   H225    1.112   .     S
C221   H224    1.111   .     S
C221   H222    1.111   .     S
C221   H71     1.111   1_655 S
C229   C249    1.463   .     S
C229   O279    1.301   .     A
C229   O277    1.297   .     A
C230   O278    1.293   .     A
C230   C250    1.458   .     S
C230   O280    1.302   .     A
C231   H269    1.082   .     S
C231   C233    1.419   .     A
C231   C239    1.412   .     A
C232   C240    1.414   .     A
C232   C234    1.419   .     A
C232   H270    1.082   .     S
C233   N275    1.373   .     A
C233   H271    1.079   .     S
C234   N276    1.371   .     A
C234   H272    1.081   .     S
C235   N275    1.403   .     A
C235   C237    1.414   .     A
C235   C285    1.524   .     S
C236   N276    1.399   .     A
C236   C295    1.519   .     S
C236   C238    1.413   .     A
C237   H273    1.083   .     S
C237   C239    1.385   .     A
C238   C240    1.386   .     A
C238   H274    1.083   .     S
C239   C696    1.521   1_554 S
C240   C695    1.521   .     S
C241   O281    1.285   .     A
C241   C243    1.434   .     S
C241   O283    1.298   .     A
C242   O284    1.298   .     A
C242   O282    1.285   .     A
C242   C244    1.435   .     S
C243   C396    1.342   1_455 S
C243   H411    1.086   1_455 S
C244   C319    1.342   .     S
C244   H336    1.087   .     S
C245   C247    1.387   .     A
C245   H261    1.083   .     S
C245   C255    1.401   .     A
C246   C248    1.391   .     A
C246   C256    1.402   .     A
C246   H262    1.083   .     S
C247   C249    1.403   .     A
C247   H263    1.083   .     S
C248   C250    1.402   .     A
C248   H264    1.084   .     S
C249   C251    1.403   .     A
C250   C252    1.398   .     A
C251   H265    1.083   .     S
C251   C253    1.392   .     A
C252   C254    1.389   .     A
C252   H266    1.077   .     S
C253   C255    1.403   .     A
C253   H267    1.083   .     S
C254   C256    1.403   .     A
C254   H268    1.083   .     S
C256   C27     1.467   1_565 S
Cu257  O277    1.950   .     S
Cu257  N276    2.023   .     S
Cu257  O281    1.943   .     S
Cu257  Cu258   2.692   .     S
Cu257  O284    1.953   .     S
Cu257  O280    1.960   .     S
Cu258  O279    1.960   .     S
Cu258  O282    1.943   .     S
Cu258  O278    1.950   .     S
Cu258  N275    2.023   .     S
Cu258  O283    1.953   .     S
H259   C319    1.086   .     S
H260   C396    1.087   1_455 S
C285   H294    1.113   .     S
C285   H293    1.101   .     S
C285   C286    1.538   .     S
C286   H292    1.101   .     S
C286   H291    1.112   .     S
C286   C287    1.528   .     S
C287   H290    1.111   .     S
C287   H440    1.110   1_455 S
C287   H441    1.111   1_455 S
H288   C363    1.110   .     S
H289   C363    1.111   .     S
C295   C296    1.542   .     S
C295   H303    1.097   .     S
C295   H304    1.113   .     S
C296   H302    1.107   .     S
C296   C297    1.529   .     S
C296   H301    1.112   .     S
C297   H300    1.111   .     S
C297   H298    1.111   .     S
C297   H375    1.111   .     S
H299   C449    1.111   1_455 S
C305   C325    1.463   .     S
C305   O355    1.301   .     A
C305   O353    1.297   .     A
C306   O354    1.293   .     A
C306   C326    1.458   .     S
C306   O356    1.302   .     A
C307   H345    1.082   .     S
C307   C309    1.419   .     A
C307   C315    1.412   .     A
C308   C316    1.414   .     A
C308   C310    1.419   .     A
C308   H346    1.082   .     S
C309   N351    1.373   .     A
C309   H347    1.079   .     S
C310   N352    1.371   .     A
C310   H348    1.081   .     S
C311   N351    1.403   .     A
C311   C313    1.414   .     A
C311   C361    1.524   .     S
C312   N352    1.399   .     A
C312   C371    1.519   .     S
C312   C314    1.413   .     A
C313   H349    1.083   .     S
C313   C315    1.385   .     A
C314   C316    1.386   .     A
C314   H350    1.083   .     S
C315   C772    1.521   1_554 S
C316   C771    1.521   .     S
C317   O357    1.285   .     A
C317   C319    1.434   .     S
C317   O359    1.298   .     A
C318   O360    1.298   .     A
C318   O358    1.285   .     A
C318   C320    1.435   .     S
C320   C395    1.342   .     S
C320   H412    1.087   .     S
C321   C323    1.387   .     A
C321   H337    1.083   .     S
C321   C331    1.401   .     A
C322   C324    1.391   .     A
C322   C332    1.402   .     A
C322   H338    1.083   .     S
C323   C325    1.403   .     A
C323   H339    1.083   .     S
C324   C326    1.402   .     A
C324   H340    1.084   .     S
C325   C327    1.403   .     A
C326   C328    1.398   .     A
C327   H341    1.083   .     S
C327   C329    1.392   .     A
C328   C330    1.389   .     A
C328   H342    1.077   .     S
C329   C331    1.403   .     A
C329   H343    1.083   .     S
C330   C332    1.403   .     A
C330   H344    1.083   .     S
C332   C103    1.467   1_565 S
Cu333  O353    1.950   .     S
Cu333  N352    2.023   .     S
Cu333  O357    1.943   .     S
Cu333  Cu334   2.692   .     S
Cu333  O360    1.953   .     S
Cu333  O356    1.960   .     S
Cu334  O355    1.960   .     S
Cu334  O358    1.943   .     S
Cu334  O354    1.950   .     S
Cu334  N351    2.023   .     S
Cu334  O359    1.953   .     S
H335   C395    1.086   .     S
C361   H370    1.113   .     S
C361   H369    1.101   .     S
C361   C362    1.538   .     S
C362   H368    1.101   .     S
C362   H367    1.112   .     S
C362   C363    1.528   .     S
C363   H366    1.111   .     S
H364   C439    1.110   .     S
H365   C439    1.111   .     S
C371   C372    1.542   .     S
C371   H379    1.097   .     S
C371   H380    1.113   .     S
C372   H378    1.107   .     S
C372   C373    1.529   .     S
C372   H377    1.112   .     S
C373   H376    1.111   .     S
C373   H374    1.111   .     S
C373   H451    1.111   .     S
C381   C401    1.463   .     S
C381   O431    1.301   .     A
C381   O429    1.297   .     A
C382   O430    1.293   .     A
C382   C402    1.458   .     S
C382   O432    1.302   .     A
C383   H421    1.082   .     S
C383   C385    1.419   .     A
C383   C391    1.412   .     A
C384   C392    1.414   .     A
C384   C386    1.419   .     A
C384   H422    1.082   .     S
C385   N427    1.373   .     A
C385   H423    1.079   .     S
C386   N428    1.371   .     A
C386   H424    1.081   .     S
C387   N427    1.403   .     A
C387   C389    1.414   .     A
C387   C437    1.524   .     S
C388   N428    1.399   .     A
C388   C447    1.519   .     S
C388   C390    1.413   .     A
C389   H425    1.083   .     S
C389   C391    1.385   .     A
C390   C392    1.386   .     A
C390   H426    1.083   .     S
C391   C848    1.521   1_554 S
C392   C847    1.521   .     S
C393   O433    1.285   .     A
C393   C395    1.434   .     S
C393   O435    1.298   .     A
C394   O436    1.298   .     A
C394   O434    1.285   .     A
C394   C396    1.435   .     S
C396   C243    1.342   1_655 S
C396   H260    1.087   1_655 S
C397   C399    1.387   .     A
C397   H413    1.083   .     S
C397   C407    1.401   .     A
C398   C400    1.391   .     A
C398   C408    1.402   .     A
C398   H414    1.083   .     S
C399   C401    1.403   .     A
C399   H415    1.083   .     S
C400   C402    1.402   .     A
C400   H416    1.084   .     S
C401   C403    1.403   .     A
C402   C404    1.398   .     A
C403   H417    1.083   .     S
C403   C405    1.392   .     A
C404   C406    1.389   .     A
C404   H418    1.077   .     S
C405   C407    1.403   .     A
C405   H419    1.083   .     S
C406   C408    1.403   .     A
C406   H420    1.083   .     S
C408   C179    1.467   1_565 S
Cu409  O429    1.950   .     S
Cu409  N428    2.023   .     S
Cu409  O433    1.943   .     S
Cu409  Cu410   2.692   .     S
Cu409  O436    1.953   .     S
Cu409  O432    1.960   .     S
Cu410  O431    1.960   .     S
Cu410  O434    1.943   .     S
Cu410  O430    1.950   .     S
Cu410  N427    2.023   .     S
Cu410  O435    1.953   .     S
H411   C243    1.086   1_655 S
C437   H446    1.113   .     S
C437   H445    1.101   .     S
C437   C438    1.538   .     S
C438   H444    1.101   .     S
C438   H443    1.112   .     S
C438   C439    1.528   .     S
C439   H442    1.111   .     S
H440   C287    1.110   1_655 S
H441   C287    1.111   1_655 S
C447   C448    1.542   .     S
C447   H455    1.097   .     S
C447   H456    1.113   .     S
C448   H454    1.107   .     S
C448   C449    1.529   .     S
C448   H453    1.112   .     S
C449   H452    1.111   .     S
C449   H450    1.111   .     S
C449   H299    1.111   1_655 S
C457   C477    1.463   .     S
C457   O507    1.301   .     A
C457   O505    1.297   .     A
C458   O506    1.293   .     A
C458   C478    1.458   .     S
C458   O508    1.302   .     A
C459   H497    1.082   .     S
C459   C461    1.419   .     A
C459   C467    1.412   .     A
C460   C468    1.414   .     A
C460   C462    1.419   .     A
C460   H498    1.082   .     S
C461   N503    1.373   .     A
C461   H499    1.079   .     S
C462   N504    1.371   .     A
C462   H500    1.081   .     S
C463   N503    1.403   .     A
C463   C465    1.414   .     A
C463   C513    1.524   .     S
C464   N504    1.399   .     A
C464   C523    1.519   .     S
C464   C466    1.413   .     A
C465   H501    1.083   .     S
C465   C467    1.385   .     A
C466   C468    1.386   .     A
C466   H502    1.083   .     S
C468   C11     1.521   1_556 S
C469   O509    1.285   .     A
C469   C471    1.434   .     S
C469   O511    1.298   .     A
C470   O512    1.298   .     A
C470   O510    1.285   .     A
C470   C472    1.435   .     S
C471   C624    1.342   1_455 S
C471   H639    1.086   1_455 S
C472   C547    1.342   .     S
C472   H564    1.087   .     S
C473   C475    1.387   .     A
C473   H489    1.083   .     S
C473   C483    1.401   .     A
C474   C476    1.391   .     A
C474   C484    1.402   .     A
C474   H490    1.083   .     S
C475   C477    1.403   .     A
C475   H491    1.083   .     S
C476   C478    1.402   .     A
C476   H492    1.084   .     S
C477   C479    1.403   .     A
C478   C480    1.398   .     A
C479   H493    1.083   .     S
C479   C481    1.392   .     A
C480   C482    1.389   .     A
C480   H494    1.077   .     S
C481   C483    1.403   .     A
C481   H495    1.083   .     S
C482   C484    1.403   .     A
C482   H496    1.083   .     S
C483   C712    1.467   1_545 S
C484   C711    1.467   .     S
Cu485  O505    1.950   .     S
Cu485  N504    2.023   .     S
Cu485  O509    1.943   .     S
Cu485  Cu486   2.692   .     S
Cu485  O512    1.953   .     S
Cu485  O508    1.960   .     S
Cu486  O507    1.960   .     S
Cu486  O510    1.943   .     S
Cu486  O506    1.950   .     S
Cu486  N503    2.023   .     S
Cu486  O511    1.953   .     S
H487   C547    1.086   .     S
H488   C624    1.087   1_455 S
C513   H522    1.113   .     S
C513   H521    1.101   .     S
C513   C514    1.538   .     S
C514   H520    1.101   .     S
C514   H519    1.112   .     S
C514   C515    1.528   .     S
C515   H518    1.111   .     S
C515   H668    1.110   1_455 S
C515   H669    1.111   1_455 S
H516   C591    1.110   .     S
H517   C591    1.111   .     S
C523   C524    1.542   .     S
C523   H531    1.097   .     S
C523   H532    1.113   .     S
C524   H530    1.107   .     S
C524   C525    1.529   .     S
C524   H529    1.112   .     S
C525   H528    1.111   .     S
C525   H526    1.111   .     S
C525   H603    1.111   .     S
H527   C677    1.111   1_455 S
C533   C553    1.463   .     S
C533   O583    1.301   .     A
C533   O581    1.297   .     A
C534   O582    1.293   .     A
C534   C554    1.458   .     S
C534   O584    1.302   .     A
C535   H573    1.082   .     S
C535   C537    1.419   .     A
C535   C543    1.412   .     A
C536   C544    1.414   .     A
C536   C538    1.419   .     A
C536   H574    1.082   .     S
C537   N579    1.373   .     A
C537   H575    1.079   .     S
C538   N580    1.371   .     A
C538   H576    1.081   .     S
C539   N579    1.403   .     A
C539   C541    1.414   .     A
C539   C589    1.524   .     S
C540   N580    1.399   .     A
C540   C599    1.519   .     S
C540   C542    1.413   .     A
C541   H577    1.083   .     S
C541   C543    1.385   .     A
C542   C544    1.386   .     A
C542   H578    1.083   .     S
C544   C87     1.521   1_556 S
C545   O585    1.285   .     A
C545   C547    1.434   .     S
C545   O587    1.298   .     A
C546   O588    1.298   .     A
C546   O586    1.285   .     A
C546   C548    1.435   .     S
C548   C623    1.342   .     S
C548   H640    1.087   .     S
C549   C551    1.387   .     A
C549   H565    1.083   .     S
C549   C559    1.401   .     A
C550   C552    1.391   .     A
C550   C560    1.402   .     A
C550   H566    1.083   .     S
C551   C553    1.403   .     A
C551   H567    1.083   .     S
C552   C554    1.402   .     A
C552   H568    1.084   .     S
C553   C555    1.403   .     A
C554   C556    1.398   .     A
C555   H569    1.083   .     S
C555   C557    1.392   .     A
C556   C558    1.389   .     A
C556   H570    1.077   .     S
C557   C559    1.403   .     A
C557   H571    1.083   .     S
C558   C560    1.403   .     A
C558   H572    1.083   .     S
C559   C788    1.467   1_545 S
C560   C787    1.467   .     S
Cu561  O581    1.950   .     S
Cu561  N580    2.023   .     S
Cu561  O585    1.943   .     S
Cu561  Cu562   2.692   .     S
Cu561  O588    1.953   .     S
Cu561  O584    1.960   .     S
Cu562  O583    1.960   .     S
Cu562  O586    1.943   .     S
Cu562  O582    1.950   .     S
Cu562  N579    2.023   .     S
Cu562  O587    1.953   .     S
H563   C623    1.086   .     S
C589   H598    1.113   .     S
C589   H597    1.101   .     S
C589   C590    1.538   .     S
C590   H596    1.101   .     S
C590   H595    1.112   .     S
C590   C591    1.528   .     S
C591   H594    1.111   .     S
H592   C667    1.110   .     S
H593   C667    1.111   .     S
C599   C600    1.542   .     S
C599   H607    1.097   .     S
C599   H608    1.113   .     S
C600   H606    1.107   .     S
C600   C601    1.529   .     S
C600   H605    1.112   .     S
C601   H604    1.111   .     S
C601   H602    1.111   .     S
C601   H679    1.111   .     S
C609   C629    1.463   .     S
C609   O659    1.301   .     A
C609   O657    1.297   .     A
C610   O658    1.293   .     A
C610   C630    1.458   .     S
C610   O660    1.302   .     A
C611   H649    1.082   .     S
C611   C613    1.419   .     A
C611   C619    1.412   .     A
C612   C620    1.414   .     A
C612   C614    1.419   .     A
C612   H650    1.082   .     S
C613   N655    1.373   .     A
C613   H651    1.079   .     S
C614   N656    1.371   .     A
C614   H652    1.081   .     S
C615   N655    1.403   .     A
C615   C617    1.414   .     A
C615   C665    1.524   .     S
C616   N656    1.399   .     A
C616   C675    1.519   .     S
C616   C618    1.413   .     A
C617   H653    1.083   .     S
C617   C619    1.385   .     A
C618   C620    1.386   .     A
C618   H654    1.083   .     S
C620   C163    1.521   1_556 S
C621   O661    1.285   .     A
C621   C623    1.434   .     S
C621   O663    1.298   .     A
C622   O664    1.298   .     A
C622   O662    1.285   .     A
C622   C624    1.435   .     S
C624   C471    1.342   1_655 S
C624   H488    1.087   1_655 S
C625   C627    1.387   .     A
C625   H641    1.083   .     S
C625   C635    1.401   .     A
C626   C628    1.391   .     A
C626   C636    1.402   .     A
C626   H642    1.083   .     S
C627   C629    1.403   .     A
C627   H643    1.083   .     S
C628   C630    1.402   .     A
C628   H644    1.084   .     S
C629   C631    1.403   .     A
C630   C632    1.398   .     A
C631   H645    1.083   .     S
C631   C633    1.392   .     A
C632   C634    1.389   .     A
C632   H646    1.077   .     S
C633   C635    1.403   .     A
C633   H647    1.083   .     S
C634   C636    1.403   .     A
C634   H648    1.083   .     S
C635   C864    1.467   1_545 S
C636   C863    1.467   .     S
Cu637  O657    1.950   .     S
Cu637  N656    2.023   .     S
Cu637  O661    1.943   .     S
Cu637  Cu638   2.692   .     S
Cu637  O664    1.953   .     S
Cu637  O660    1.960   .     S
Cu638  O659    1.960   .     S
Cu638  O662    1.943   .     S
Cu638  O658    1.950   .     S
Cu638  N655    2.023   .     S
Cu638  O663    1.953   .     S
H639   C471    1.086   1_655 S
C665   H674    1.113   .     S
C665   H673    1.101   .     S
C665   C666    1.538   .     S
C666   H672    1.101   .     S
C666   H671    1.112   .     S
C666   C667    1.528   .     S
C667   H670    1.111   .     S
H668   C515    1.110   1_655 S
H669   C515    1.111   1_655 S
C675   C676    1.542   .     S
C675   H683    1.097   .     S
C675   H684    1.113   .     S
C676   H682    1.107   .     S
C676   C677    1.529   .     S
C676   H681    1.112   .     S
C677   H680    1.111   .     S
C677   H678    1.111   .     S
C677   H527    1.111   1_655 S
C685   C705    1.463   .     S
C685   O735    1.301   .     A
C685   O733    1.297   .     A
C686   O734    1.293   .     A
C686   C706    1.458   .     S
C686   O736    1.302   .     A
C687   H725    1.082   .     S
C687   C689    1.419   .     A
C687   C695    1.412   .     A
C688   C696    1.414   .     A
C688   C690    1.419   .     A
C688   H726    1.082   .     S
C689   N731    1.373   .     A
C689   H727    1.079   .     S
C690   N732    1.371   .     A
C690   H728    1.081   .     S
C691   N731    1.403   .     A
C691   C693    1.414   .     A
C691   C741    1.524   .     S
C692   N732    1.399   .     A
C692   C751    1.519   .     S
C692   C694    1.413   .     A
C693   H729    1.083   .     S
C693   C695    1.385   .     A
C694   C696    1.386   .     A
C694   H730    1.083   .     S
C696   C239    1.521   1_556 S
C697   O737    1.285   .     A
C697   C699    1.434   .     S
C697   O739    1.298   .     A
C698   O740    1.298   .     A
C698   O738    1.285   .     A
C698   C700    1.435   .     S
C699   C852    1.342   1_455 S
C699   H867    1.086   1_455 S
C700   C775    1.342   .     S
C700   H792    1.087   .     S
C701   C703    1.387   .     A
C701   H717    1.083   .     S
C701   C711    1.401   .     A
C702   C704    1.391   .     A
C702   C712    1.402   .     A
C702   H718    1.083   .     S
C703   C705    1.403   .     A
C703   H719    1.083   .     S
C704   C706    1.402   .     A
C704   H720    1.084   .     S
C705   C707    1.403   .     A
C706   C708    1.398   .     A
C707   H721    1.083   .     S
C707   C709    1.392   .     A
C708   C710    1.389   .     A
C708   H722    1.077   .     S
C709   C711    1.403   .     A
C709   H723    1.083   .     S
C710   C712    1.403   .     A
C710   H724    1.083   .     S
C712   C483    1.467   1_565 S
Cu713  O733    1.950   .     S
Cu713  N732    2.023   .     S
Cu713  O737    1.943   .     S
Cu713  Cu714   2.692   .     S
Cu713  O740    1.953   .     S
Cu713  O736    1.960   .     S
Cu714  O735    1.960   .     S
Cu714  O738    1.943   .     S
Cu714  O734    1.950   .     S
Cu714  N731    2.023   .     S
Cu714  O739    1.953   .     S
H715   C775    1.086   .     S
H716   C852    1.087   1_455 S
C741   H750    1.113   .     S
C741   H749    1.101   .     S
C741   C742    1.538   .     S
C742   H748    1.101   .     S
C742   H747    1.112   .     S
C742   C743    1.528   .     S
C743   H746    1.111   .     S
C743   H896    1.110   1_455 S
C743   H897    1.111   1_455 S
H744   C819    1.110   .     S
H745   C819    1.111   .     S
C751   C752    1.542   .     S
C751   H759    1.097   .     S
C751   H760    1.113   .     S
C752   H758    1.107   .     S
C752   C753    1.529   .     S
C752   H757    1.112   .     S
C753   H756    1.111   .     S
C753   H754    1.111   .     S
C753   H831    1.111   .     S
H755   C905    1.111   1_455 S
C761   C781    1.463   .     S
C761   O811    1.301   .     A
C761   O809    1.297   .     A
C762   O810    1.293   .     A
C762   C782    1.458   .     S
C762   O812    1.302   .     A
C763   H801    1.082   .     S
C763   C765    1.419   .     A
C763   C771    1.412   .     A
C764   C772    1.414   .     A
C764   C766    1.419   .     A
C764   H802    1.082   .     S
C765   N807    1.373   .     A
C765   H803    1.079   .     S
C766   N808    1.371   .     A
C766   H804    1.081   .     S
C767   N807    1.403   .     A
C767   C769    1.414   .     A
C767   C817    1.524   .     S
C768   N808    1.399   .     A
C768   C827    1.519   .     S
C768   C770    1.413   .     A
C769   H805    1.083   .     S
C769   C771    1.385   .     A
C770   C772    1.386   .     A
C770   H806    1.083   .     S
C772   C315    1.521   1_556 S
C773   O813    1.285   .     A
C773   C775    1.434   .     S
C773   O815    1.298   .     A
C774   O816    1.298   .     A
C774   O814    1.285   .     A
C774   C776    1.435   .     S
C776   C851    1.342   .     S
C776   H868    1.087   .     S
C777   C779    1.387   .     A
C777   H793    1.083   .     S
C777   C787    1.401   .     A
C778   C780    1.391   .     A
C778   C788    1.402   .     A
C778   H794    1.083   .     S
C779   C781    1.403   .     A
C779   H795    1.083   .     S
C780   C782    1.402   .     A
C780   H796    1.084   .     S
C781   C783    1.403   .     A
C782   C784    1.398   .     A
C783   H797    1.083   .     S
C783   C785    1.392   .     A
C784   C786    1.389   .     A
C784   H798    1.077   .     S
C785   C787    1.403   .     A
C785   H799    1.083   .     S
C786   C788    1.403   .     A
C786   H800    1.083   .     S
C788   C559    1.467   1_565 S
Cu789  O809    1.950   .     S
Cu789  N808    2.023   .     S
Cu789  O813    1.943   .     S
Cu789  Cu790   2.692   .     S
Cu789  O816    1.953   .     S
Cu789  O812    1.960   .     S
Cu790  O811    1.960   .     S
Cu790  O814    1.943   .     S
Cu790  O810    1.950   .     S
Cu790  N807    2.023   .     S
Cu790  O815    1.953   .     S
H791   C851    1.086   .     S
C817   H826    1.113   .     S
C817   H825    1.101   .     S
C817   C818    1.538   .     S
C818   H824    1.101   .     S
C818   H823    1.112   .     S
C818   C819    1.528   .     S
C819   H822    1.111   .     S
H820   C895    1.110   .     S
H821   C895    1.111   .     S
C827   C828    1.542   .     S
C827   H835    1.097   .     S
C827   H836    1.113   .     S
C828   H834    1.107   .     S
C828   C829    1.529   .     S
C828   H833    1.112   .     S
C829   H832    1.111   .     S
C829   H830    1.111   .     S
C829   H907    1.111   .     S
C837   C857    1.463   .     S
C837   O887    1.301   .     A
C837   O885    1.297   .     A
C838   O886    1.293   .     A
C838   C858    1.458   .     S
C838   O888    1.302   .     A
C839   H877    1.082   .     S
C839   C841    1.419   .     A
C839   C847    1.412   .     A
C840   C848    1.414   .     A
C840   C842    1.419   .     A
C840   H878    1.082   .     S
C841   N883    1.373   .     A
C841   H879    1.079   .     S
C842   N884    1.371   .     A
C842   H880    1.081   .     S
C843   N883    1.403   .     A
C843   C845    1.414   .     A
C843   C893    1.524   .     S
C844   N884    1.399   .     A
C844   C903    1.519   .     S
C844   C846    1.413   .     A
C845   H881    1.083   .     S
C845   C847    1.385   .     A
C846   C848    1.386   .     A
C846   H882    1.083   .     S
C848   C391    1.521   1_556 S
C849   O889    1.285   .     A
C849   C851    1.434   .     S
C849   O891    1.298   .     A
C850   O892    1.298   .     A
C850   O890    1.285   .     A
C850   C852    1.435   .     S
C852   C699    1.342   1_655 S
C852   H716    1.087   1_655 S
C853   C855    1.387   .     A
C853   H869    1.083   .     S
C853   C863    1.401   .     A
C854   C856    1.391   .     A
C854   C864    1.402   .     A
C854   H870    1.083   .     S
C855   C857    1.403   .     A
C855   H871    1.083   .     S
C856   C858    1.402   .     A
C856   H872    1.084   .     S
C857   C859    1.403   .     A
C858   C860    1.398   .     A
C859   H873    1.083   .     S
C859   C861    1.392   .     A
C860   C862    1.389   .     A
C860   H874    1.077   .     S
C861   C863    1.403   .     A
C861   H875    1.083   .     S
C862   C864    1.403   .     A
C862   H876    1.083   .     S
C864   C635    1.467   1_565 S
Cu865  O885    1.950   .     S
Cu865  N884    2.023   .     S
Cu865  O889    1.943   .     S
Cu865  Cu866   2.692   .     S
Cu865  O892    1.953   .     S
Cu865  O888    1.960   .     S
Cu866  O887    1.960   .     S
Cu866  O890    1.943   .     S
Cu866  O886    1.950   .     S
Cu866  N883    2.023   .     S
Cu866  O891    1.953   .     S
H867   C699    1.086   1_655 S
C893   H902    1.113   .     S
C893   H901    1.101   .     S
C893   C894    1.538   .     S
C894   H900    1.101   .     S
C894   H899    1.112   .     S
C894   C895    1.528   .     S
C895   H898    1.111   .     S
H896   C743    1.110   1_655 S
H897   C743    1.111   1_655 S
C903   C904    1.542   .     S
C903   H911    1.097   .     S
C903   H912    1.113   .     S
C904   H910    1.107   .     S
C904   C905    1.529   .     S
C904   H909    1.112   .     S
C905   H908    1.111   .     S
C905   H906    1.111   .     S
C905   H755    1.111   1_655 S
