data_str_m1_o1_o5_pcu_sym.5
_audit_creation_date              2020-01-03
_audit_creation_method            'Materials Studio'
_symmetry_space_group_name_H-M    'P1'
_symmetry_Int_Tables_number       1
_symmetry_cell_setting            triclinic
loop_
_symmetry_equiv_pos_as_xyz
  x,y,z
_cell_length_a                    36.7355
_cell_length_b                    36.7355
_cell_length_c                    22.4140
_cell_angle_alpha                 89.9919
_cell_angle_beta                  89.9911
_cell_angle_gamma                 89.9993
loop_
_atom_site_label
_atom_site_type_symbol
_atom_site_fract_x
_atom_site_fract_y
_atom_site_fract_z
_atom_site_U_iso_or_equiv
_atom_site_adp_type
_atom_site_occupancy
C1     C     0.00000   0.25001   0.02668   0.00000  Uiso   1.00
C2     C     0.49999   0.25000   0.58994   0.00000  Uiso   1.00
C3     C     0.25000   0.49999   0.41006   0.00000  Uiso   1.00
C4     C     0.25000  -0.00000   0.58994   0.00000  Uiso   1.00
C5     C     0.25001  -0.00000   0.91006   0.00000  Uiso   1.00
C6     C     0.25000   0.00000   0.08994   0.00000  Uiso   1.00
C7     C    -0.00000   0.25000   0.91006   0.00000  Uiso   1.00
C8     C     0.00000   0.25001   0.08994   0.00000  Uiso   1.00
C9     C     0.07000   0.17992   0.24992   0.00000  Uiso   1.00
C10    C     0.42999   0.32008   0.75010   0.00000  Uiso   1.00
C11    C     0.17999   0.42993   0.25009   0.00000  Uiso   1.00
C12    C     0.49999   0.25001   0.97332   0.00000  Uiso   1.00
C13    C     0.32001   0.07008   0.74990   0.00000  Uiso   1.00
C14    C     0.42999   0.32007   0.24991   0.00000  Uiso   1.00
C15    C     0.07000   0.17992   0.75008   0.00000  Uiso   1.00
C16    C     0.32000   0.07008   0.25008   0.00000  Uiso   1.00
C17    C     0.18000   0.42991   0.74992   0.00000  Uiso   1.00
C18    C     0.07000   0.32009   0.75008   0.00000  Uiso   1.00
C19    C     0.43000   0.17992   0.24992   0.00000  Uiso   1.00
C20    C     0.18000   0.07008   0.74992   0.00000  Uiso   1.00
C21    C     0.32001   0.42993   0.25009   0.00000  Uiso   1.00
C22    C     0.42999   0.17992   0.75010   0.00000  Uiso   1.00
C23    C     0.25001  -0.00000   0.02667   0.00000  Uiso   1.00
C24    C     0.07001   0.32007   0.24991   0.00000  Uiso   1.00
C25    C     0.32001   0.42992   0.74990   0.00000  Uiso   1.00
C26    C     0.17999   0.07008   0.25008   0.00000  Uiso   1.00
C27    C     0.11470   0.35830   0.19575   0.00000  Uiso   1.00
C28    C     0.38530   0.14170   0.80425   0.00000  Uiso   1.00
C29    C     0.35882   0.38608   0.19575   0.00000  Uiso   1.00
C30    C     0.16196   0.13495   0.75651   0.00000  Uiso   1.00
C31    C     0.36518   0.16208   0.24505   0.00000  Uiso   1.00
C32    C     0.13481   0.33792   0.75512   0.00000  Uiso   1.00
C33    C     0.16197   0.13495   0.24365   0.00000  Uiso   1.00
C34    C     0.25001  -0.00000   0.97332   0.00000  Uiso   1.00
C35    C     0.35880   0.38606   0.80425   0.00000  Uiso   1.00
C36    C     0.13481   0.16208   0.75509   0.00000  Uiso   1.00
C37    C     0.38534   0.35832   0.19574   0.00000  Uiso   1.00
C38    C     0.35878   0.11394   0.80424   0.00000  Uiso   1.00
C39    C     0.14121   0.38606   0.19575   0.00000  Uiso   1.00
C40    C     0.38532   0.35831   0.80425   0.00000  Uiso   1.00
C41    C     0.13482   0.16208   0.24505   0.00000  Uiso   1.00
C42    C     0.16196   0.36505   0.75655   0.00000  Uiso   1.00
C43    C     0.33803   0.13495   0.24363   0.00000  Uiso   1.00
C44    C     0.36470   0.10830   0.69575   0.00000  Uiso   1.00
C45    C     0.25000   0.49999   0.52667   0.00000  Uiso   1.00
C46    C     0.13530   0.39170   0.30425   0.00000  Uiso   1.00
C47    C     0.08804   0.11505   0.74349   0.00000  Uiso   1.00
C48    C     0.39118   0.36392   0.30425   0.00000  Uiso   1.00
C49    C     0.11519   0.41208   0.74488   0.00000  Uiso   1.00
C50    C     0.38482   0.08792   0.25495   0.00000  Uiso   1.00
C51    C     0.39120   0.36394   0.69575   0.00000  Uiso   1.00
C52    C     0.08802   0.11505   0.25635   0.00000  Uiso   1.00
C53    C     0.36466   0.39168   0.30425   0.00000  Uiso   1.00
C54    C     0.11519   0.08792   0.74491   0.00000  Uiso   1.00
C55    C     0.10879   0.36394   0.30425   0.00000  Uiso   1.00
C56    C     0.25000   0.49999   0.47332   0.00000  Uiso   1.00
C57    C     0.39122   0.13606   0.69575   0.00000  Uiso   1.00
C58    C     0.11518   0.08792   0.25495   0.00000  Uiso   1.00
C59    C     0.36468   0.39169   0.69574   0.00000  Uiso   1.00
C60    C     0.41197   0.11505   0.25637   0.00000  Uiso   1.00
C61    C     0.08804   0.38495   0.74345   0.00000  Uiso   1.00
C62    C     0.15199   0.40172   0.25019   0.00000  Uiso   1.00
C63    C     0.34800   0.09828   0.74981   0.00000  Uiso   1.00
C64    C     0.40200   0.34828   0.24981   0.00000  Uiso   1.00
C65    C     0.09806   0.15177   0.75033   0.00000  Uiso   1.00
C66    C     0.34806   0.09822   0.25033   0.00000  Uiso   1.00
C67    C     0.49999   0.25000   0.52667   0.00000  Uiso   1.00
C68    C     0.15194   0.40177   0.74967   0.00000  Uiso   1.00
C69    C     0.09806   0.15178   0.24966   0.00000  Uiso   1.00
C70    C     0.40200   0.34829   0.75019   0.00000  Uiso   1.00
C71    C     0.15194   0.09823   0.74966   0.00000  Uiso   1.00
C72    C     0.34800   0.40172   0.25019   0.00000  Uiso   1.00
C73    C     0.40200   0.15172   0.75019   0.00000  Uiso   1.00
C74    C     0.09801   0.34828   0.24981   0.00000  Uiso   1.00
C75    C     0.34800   0.40171   0.74981   0.00000  Uiso   1.00
C76    C     0.15193   0.09822   0.25034   0.00000  Uiso   1.00
C77    C     0.09806   0.34823   0.75033   0.00000  Uiso   1.00
C78    C     0.49999   0.25000   0.47332   0.00000  Uiso   1.00
C79    C     0.40194   0.15178   0.24967   0.00000  Uiso   1.00
C80    C    -0.00000   0.25000   0.41006   0.00000  Uiso   1.00
H81    H     0.12554   0.34000   0.11641   0.00000  Uiso   1.00
H82    H     0.37454   0.34005   0.11637   0.00000  Uiso   1.00
H83    H     0.36238   0.10305   0.88903   0.00000  Uiso   1.00
H84    H     0.13759   0.39696   0.11097   0.00000  Uiso   1.00
H85    H     0.37451   0.34002   0.88363   0.00000  Uiso   1.00
H86    H     0.16761   0.20216   0.26345   0.00000  Uiso   1.00
H87    H     0.20015   0.33432   0.78906   0.00000  Uiso   1.00
H88    H     0.29975   0.16572   0.21146   0.00000  Uiso   1.00
H89    H     0.37554   0.09000   0.61641   0.00000  Uiso   1.00
H90    H     0.12446   0.41000   0.38359   0.00000  Uiso   1.00
H91    H     0.04983   0.08432   0.71105   0.00000  Uiso   1.00
H92    H     0.37445   0.16000   0.88359   0.00000  Uiso   1.00
H93    H     0.38753   0.35299   0.38902   0.00000  Uiso   1.00
H94    H     0.08237   0.45220   0.76296   0.00000  Uiso   1.00
H95    H     0.41761   0.04784   0.23657   0.00000  Uiso   1.00
H96    H     0.38758   0.35303   0.61098   0.00000  Uiso   1.00
H97    H     0.04974   0.08427   0.28850   0.00000  Uiso   1.00
H98    H     0.37546   0.40995   0.38363   0.00000  Uiso   1.00
H99    H     0.08238   0.04780   0.76305   0.00000  Uiso   1.00
H100   H     0.11241   0.35304   0.38903   0.00000  Uiso   1.00
H101   H     0.38762   0.14695   0.61097   0.00000  Uiso   1.00
H102   H     0.08239   0.04784   0.23655   0.00000  Uiso   1.00
H103   H     0.36247   0.39701   0.11098   0.00000  Uiso   1.00
H104   H     0.37549   0.40998   0.61637   0.00000  Uiso   1.00
H105   H     0.45025   0.08428   0.28854   0.00000  Uiso   1.00
H106   H     0.04985   0.41568   0.71094   0.00000  Uiso   1.00
H107   H     0.20017   0.16568   0.78895   0.00000  Uiso   1.00
H108   H     0.33239   0.20216   0.26343   0.00000  Uiso   1.00
H109   H     0.16762   0.29780   0.73704   0.00000  Uiso   1.00
H110   H     0.20026   0.16573   0.21150   0.00000  Uiso   1.00
H111   H     0.36242   0.39697   0.88902   0.00000  Uiso   1.00
H112   H     0.16762   0.20220   0.73695   0.00000  Uiso   1.00
O113   O     0.00000   0.25000   0.25000   0.00000  Uiso   1.00
O114   O     0.00000   0.28035   0.61781   0.00000  Uiso   1.00
O115   O     0.21964  -0.00000   0.38219   0.00000  Uiso   1.00
O116   O     0.28035   0.00000   0.61781   0.00000  Uiso   1.00
O117   O     0.25000   0.03036   0.88219   0.00000  Uiso   1.00
O118   O     0.25000   0.46964   0.11781   0.00000  Uiso   1.00
O119   O     0.03035   0.25000   0.88219   0.00000  Uiso   1.00
O120   O     0.46964   0.25000   0.11781   0.00000  Uiso   1.00
O121   O     0.25000   0.46964   0.88219   0.00000  Uiso   1.00
O122   O     0.25000   0.03036   0.11781   0.00000  Uiso   1.00
O123   O     0.46964   0.25000   0.88219   0.00000  Uiso   1.00
O124   O     0.00000   0.25000   0.75000   0.00000  Uiso   1.00
O125   O     0.03035   0.25000   0.11781   0.00000  Uiso   1.00
O126   O     0.04267   0.17692   0.28474   0.00000  Uiso   1.00
O127   O     0.45732   0.32308   0.71526   0.00000  Uiso   1.00
O128   O     0.17692   0.45732   0.28474   0.00000  Uiso   1.00
O129   O     0.32307   0.04268   0.71526   0.00000  Uiso   1.00
O130   O     0.45732   0.32308   0.28474   0.00000  Uiso   1.00
O131   O     0.04267   0.17692   0.71526   0.00000  Uiso   1.00
O132   O     0.32307   0.04268   0.28474   0.00000  Uiso   1.00
O133   O     0.17692   0.45732   0.71526   0.00000  Uiso   1.00
O134   O     0.04267   0.32307   0.71526   0.00000  Uiso   1.00
O135   O     0.25000   0.00000   0.25000   0.00000  Uiso   1.00
O136   O     0.45732   0.17693   0.28474   0.00000  Uiso   1.00
O137   O     0.17692   0.04268   0.71526   0.00000  Uiso   1.00
O138   O     0.32307   0.45732   0.28474   0.00000  Uiso   1.00
O139   O     0.45732   0.17693   0.71526   0.00000  Uiso   1.00
O140   O     0.04267   0.32307   0.28474   0.00000  Uiso   1.00
O141   O     0.32307   0.45732   0.71526   0.00000  Uiso   1.00
O142   O     0.17692   0.04268   0.28474   0.00000  Uiso   1.00
O143   O     0.29267   0.42692   0.78474   0.00000  Uiso   1.00
O144   O     0.20732   0.07308   0.21526   0.00000  Uiso   1.00
O145   O     0.42692   0.20733   0.78474   0.00000  Uiso   1.00
O146   O     0.25000   0.00000   0.75000   0.00000  Uiso   1.00
O147   O     0.07307   0.29267   0.21526   0.00000  Uiso   1.00
O148   O     0.20732   0.07308   0.78474   0.00000  Uiso   1.00
O149   O     0.29267   0.42692   0.21526   0.00000  Uiso   1.00
O150   O     0.07307   0.29267   0.78474   0.00000  Uiso   1.00
O151   O     0.42692   0.20733   0.21526   0.00000  Uiso   1.00
O152   O     0.29267   0.07308   0.21526   0.00000  Uiso   1.00
O153   O     0.20732   0.42692   0.78474   0.00000  Uiso   1.00
O154   O     0.42692   0.29268   0.21526   0.00000  Uiso   1.00
O155   O     0.07307   0.20732   0.78474   0.00000  Uiso   1.00
O156   O     0.20732   0.42692   0.21526   0.00000  Uiso   1.00
O157   O     0.00000   0.28035   0.38219   0.00000  Uiso   1.00
O158   O     0.29267   0.07308   0.78474   0.00000  Uiso   1.00
O159   O     0.07307   0.20732   0.21526   0.00000  Uiso   1.00
O160   O     0.42692   0.29268   0.78474   0.00000  Uiso   1.00
O161   O     0.10443   0.34074   0.14388   0.00000  Uiso   1.00
O162   O     0.39557   0.15925   0.85612   0.00000  Uiso   1.00
O163   O     0.34435   0.39976   0.14338   0.00000  Uiso   1.00
O164   O     0.19831   0.14347   0.76409   0.00000  Uiso   1.00
O165   O     0.35666   0.19875   0.24504   0.00000  Uiso   1.00
O166   O     0.14332   0.30124   0.75530   0.00000  Uiso   1.00
O167   O     0.19835   0.14347   0.23625   0.00000  Uiso   1.00
O168   O     0.00000   0.21964   0.61781   0.00000  Uiso   1.00
O169   O     0.34432   0.39973   0.85662   0.00000  Uiso   1.00
O170   O     0.14332   0.19876   0.75523   0.00000  Uiso   1.00
O171   O     0.39563   0.34078   0.14386   0.00000  Uiso   1.00
O172   O     0.34429   0.10028   0.85661   0.00000  Uiso   1.00
O173   O     0.15570   0.39973   0.14338   0.00000  Uiso   1.00
O174   O     0.39561   0.34077   0.85614   0.00000  Uiso   1.00
O175   O     0.14334   0.19875   0.24506   0.00000  Uiso   1.00
O176   O     0.19831   0.35653   0.76418   0.00000  Uiso   1.00
O177   O     0.30165   0.14347   0.23622   0.00000  Uiso   1.00
O178   O     0.35443   0.09075   0.64388   0.00000  Uiso   1.00
O179   O     0.28035  -0.00000   0.38219   0.00000  Uiso   1.00
O180   O     0.14557   0.40925   0.35612   0.00000  Uiso   1.00
O181   O     0.05169   0.10653   0.73591   0.00000  Uiso   1.00
O182   O     0.40565   0.35024   0.35662   0.00000  Uiso   1.00
O183   O     0.10668   0.44875   0.74470   0.00000  Uiso   1.00
O184   O     0.39334   0.05125   0.25495   0.00000  Uiso   1.00
O185   O     0.40568   0.35027   0.64338   0.00000  Uiso   1.00
O186   O     0.05165   0.10653   0.26375   0.00000  Uiso   1.00
O187   O     0.35437   0.40922   0.35614   0.00000  Uiso   1.00
O188   O     0.10668   0.05124   0.74477   0.00000  Uiso   1.00
O189   O     0.09430   0.35027   0.35661   0.00000  Uiso   1.00
O190   O     0.21964   0.00000   0.61781   0.00000  Uiso   1.00
O191   O     0.40571   0.14972   0.64339   0.00000  Uiso   1.00
O192   O     0.10666   0.05125   0.25494   0.00000  Uiso   1.00
O193   O     0.35439   0.40923   0.64386   0.00000  Uiso   1.00
O194   O     0.44835   0.10653   0.26378   0.00000  Uiso   1.00
O195   O     0.05169   0.39347   0.73582   0.00000  Uiso   1.00
O196   O     0.00000   0.21964   0.38219   0.00000  Uiso   1.00
Zn197  Zn    0.04333   0.25000   0.20067   0.00000  Uiso   1.00
Zn198  Zn    0.20667   0.00000   0.29933   0.00000  Uiso   1.00
Zn199  Zn    0.00000   0.20667   0.70067   0.00000  Uiso   1.00
Zn200  Zn    0.00000   0.29333   0.29933   0.00000  Uiso   1.00
Zn201  Zn    0.20667   0.00000   0.70067   0.00000  Uiso   1.00
Zn202  Zn    0.29333   0.00000   0.29933   0.00000  Uiso   1.00
Zn203  Zn    0.00000   0.29333   0.70067   0.00000  Uiso   1.00
Zn204  Zn    0.00000   0.20667   0.29933   0.00000  Uiso   1.00
Zn205  Zn    0.45667   0.25000   0.79933   0.00000  Uiso   1.00
Zn206  Zn    0.25000   0.45667   0.20067   0.00000  Uiso   1.00
Zn207  Zn    0.25000   0.04333   0.79933   0.00000  Uiso   1.00
Zn208  Zn    0.45667   0.25000   0.20067   0.00000  Uiso   1.00
Zn209  Zn    0.04333   0.25000   0.79933   0.00000  Uiso   1.00
Zn210  Zn    0.25000   0.04333   0.20067   0.00000  Uiso   1.00
Zn211  Zn    0.25000   0.45667   0.79933   0.00000  Uiso   1.00
Zn212  Zn    0.29333   0.00000   0.70067   0.00000  Uiso   1.00
C213   C     0.50000   0.25001   0.02668   0.00000  Uiso   1.00
C214   C     0.99999   0.25000   0.58994   0.00000  Uiso   1.00
C215   C     0.75000   0.49999   0.41006   0.00000  Uiso   1.00
C216   C     0.75000  -0.00000   0.58994   0.00000  Uiso   1.00
C217   C     0.75001  -0.00000   0.91006   0.00000  Uiso   1.00
C218   C     0.75000   0.00000   0.08994   0.00000  Uiso   1.00
C219   C     0.50000   0.25000   0.91006   0.00000  Uiso   1.00
C220   C     0.50000   0.25001   0.08994   0.00000  Uiso   1.00
C221   C     0.57000   0.17992   0.24992   0.00000  Uiso   1.00
C222   C     0.92999   0.32008   0.75010   0.00000  Uiso   1.00
C223   C     0.67999   0.42993   0.25009   0.00000  Uiso   1.00
C224   C     0.99999   0.25001   0.97332   0.00000  Uiso   1.00
C225   C     0.82001   0.07008   0.74990   0.00000  Uiso   1.00
C226   C     0.92999   0.32007   0.24991   0.00000  Uiso   1.00
C227   C     0.57000   0.17992   0.75008   0.00000  Uiso   1.00
C228   C     0.82000   0.07008   0.25008   0.00000  Uiso   1.00
C229   C     0.68000   0.42991   0.74992   0.00000  Uiso   1.00
C230   C     0.57000   0.32009   0.75008   0.00000  Uiso   1.00
C231   C     0.93000   0.17992   0.24992   0.00000  Uiso   1.00
C232   C     0.68000   0.07008   0.74992   0.00000  Uiso   1.00
C233   C     0.82001   0.42993   0.25009   0.00000  Uiso   1.00
C234   C     0.92999   0.17992   0.75010   0.00000  Uiso   1.00
C235   C     0.75001  -0.00000   0.02667   0.00000  Uiso   1.00
C236   C     0.57001   0.32007   0.24991   0.00000  Uiso   1.00
C237   C     0.82001   0.42992   0.74990   0.00000  Uiso   1.00
C238   C     0.67999   0.07008   0.25008   0.00000  Uiso   1.00
C239   C     0.61470   0.35830   0.19575   0.00000  Uiso   1.00
C240   C     0.88530   0.14170   0.80425   0.00000  Uiso   1.00
C241   C     0.85882   0.38608   0.19575   0.00000  Uiso   1.00
C242   C     0.66196   0.13495   0.75651   0.00000  Uiso   1.00
C243   C     0.86518   0.16208   0.24505   0.00000  Uiso   1.00
C244   C     0.63481   0.33792   0.75512   0.00000  Uiso   1.00
C245   C     0.66197   0.13495   0.24365   0.00000  Uiso   1.00
C246   C     0.75001  -0.00000   0.97332   0.00000  Uiso   1.00
C247   C     0.85880   0.38606   0.80425   0.00000  Uiso   1.00
C248   C     0.63481   0.16208   0.75509   0.00000  Uiso   1.00
C249   C     0.88534   0.35832   0.19574   0.00000  Uiso   1.00
C250   C     0.85878   0.11394   0.80424   0.00000  Uiso   1.00
C251   C     0.64121   0.38606   0.19575   0.00000  Uiso   1.00
C252   C     0.88532   0.35831   0.80425   0.00000  Uiso   1.00
C253   C     0.63482   0.16208   0.24505   0.00000  Uiso   1.00
C254   C     0.66196   0.36505   0.75655   0.00000  Uiso   1.00
C255   C     0.83803   0.13495   0.24363   0.00000  Uiso   1.00
C256   C     0.86470   0.10830   0.69575   0.00000  Uiso   1.00
C257   C     0.75000   0.49999   0.52667   0.00000  Uiso   1.00
C258   C     0.63530   0.39170   0.30425   0.00000  Uiso   1.00
C259   C     0.58804   0.11505   0.74349   0.00000  Uiso   1.00
C260   C     0.89118   0.36392   0.30425   0.00000  Uiso   1.00
C261   C     0.61519   0.41208   0.74488   0.00000  Uiso   1.00
C262   C     0.88482   0.08792   0.25495   0.00000  Uiso   1.00
C263   C     0.89120   0.36394   0.69575   0.00000  Uiso   1.00
C264   C     0.58802   0.11505   0.25635   0.00000  Uiso   1.00
C265   C     0.86466   0.39168   0.30425   0.00000  Uiso   1.00
C266   C     0.61519   0.08792   0.74491   0.00000  Uiso   1.00
C267   C     0.60879   0.36394   0.30425   0.00000  Uiso   1.00
C268   C     0.75000   0.49999   0.47332   0.00000  Uiso   1.00
C269   C     0.89122   0.13606   0.69575   0.00000  Uiso   1.00
C270   C     0.61518   0.08792   0.25495   0.00000  Uiso   1.00
C271   C     0.86468   0.39169   0.69574   0.00000  Uiso   1.00
C272   C     0.91197   0.11505   0.25637   0.00000  Uiso   1.00
C273   C     0.58804   0.38495   0.74345   0.00000  Uiso   1.00
C274   C     0.65199   0.40172   0.25019   0.00000  Uiso   1.00
C275   C     0.84800   0.09828   0.74981   0.00000  Uiso   1.00
C276   C     0.90200   0.34828   0.24981   0.00000  Uiso   1.00
C277   C     0.59806   0.15177   0.75033   0.00000  Uiso   1.00
C278   C     0.84806   0.09822   0.25033   0.00000  Uiso   1.00
C279   C     0.99999   0.25000   0.52667   0.00000  Uiso   1.00
C280   C     0.65194   0.40177   0.74967   0.00000  Uiso   1.00
C281   C     0.59806   0.15178   0.24966   0.00000  Uiso   1.00
C282   C     0.90200   0.34829   0.75019   0.00000  Uiso   1.00
C283   C     0.65194   0.09823   0.74966   0.00000  Uiso   1.00
C284   C     0.84800   0.40172   0.25019   0.00000  Uiso   1.00
C285   C     0.90200   0.15172   0.75019   0.00000  Uiso   1.00
C286   C     0.59801   0.34828   0.24981   0.00000  Uiso   1.00
C287   C     0.84800   0.40171   0.74981   0.00000  Uiso   1.00
C288   C     0.65193   0.09822   0.25034   0.00000  Uiso   1.00
C289   C     0.59806   0.34823   0.75033   0.00000  Uiso   1.00
C290   C     0.99999   0.25000   0.47332   0.00000  Uiso   1.00
C291   C     0.90194   0.15178   0.24967   0.00000  Uiso   1.00
C292   C     0.50000   0.25000   0.41006   0.00000  Uiso   1.00
H293   H     0.62554   0.34000   0.11641   0.00000  Uiso   1.00
H294   H     0.87454   0.34005   0.11637   0.00000  Uiso   1.00
H295   H     0.86238   0.10305   0.88903   0.00000  Uiso   1.00
H296   H     0.63759   0.39696   0.11097   0.00000  Uiso   1.00
H297   H     0.87451   0.34002   0.88363   0.00000  Uiso   1.00
H298   H     0.66761   0.20216   0.26345   0.00000  Uiso   1.00
H299   H     0.70015   0.33432   0.78906   0.00000  Uiso   1.00
H300   H     0.79975   0.16572   0.21146   0.00000  Uiso   1.00
H301   H     0.87554   0.09000   0.61641   0.00000  Uiso   1.00
H302   H     0.62446   0.41000   0.38359   0.00000  Uiso   1.00
H303   H     0.54983   0.08432   0.71105   0.00000  Uiso   1.00
H304   H     0.87445   0.16000   0.88359   0.00000  Uiso   1.00
H305   H     0.88753   0.35299   0.38902   0.00000  Uiso   1.00
H306   H     0.58237   0.45220   0.76296   0.00000  Uiso   1.00
H307   H     0.91761   0.04784   0.23657   0.00000  Uiso   1.00
H308   H     0.88758   0.35303   0.61098   0.00000  Uiso   1.00
H309   H     0.54974   0.08427   0.28850   0.00000  Uiso   1.00
H310   H     0.87546   0.40995   0.38363   0.00000  Uiso   1.00
H311   H     0.58238   0.04780   0.76305   0.00000  Uiso   1.00
H312   H     0.61241   0.35304   0.38903   0.00000  Uiso   1.00
H313   H     0.88762   0.14695   0.61097   0.00000  Uiso   1.00
H314   H     0.58239   0.04784   0.23655   0.00000  Uiso   1.00
H315   H     0.86247   0.39701   0.11098   0.00000  Uiso   1.00
H316   H     0.87549   0.40998   0.61637   0.00000  Uiso   1.00
H317   H     0.95025   0.08428   0.28854   0.00000  Uiso   1.00
H318   H     0.54985   0.41568   0.71094   0.00000  Uiso   1.00
H319   H     0.70017   0.16568   0.78895   0.00000  Uiso   1.00
H320   H     0.83239   0.20216   0.26343   0.00000  Uiso   1.00
H321   H     0.66762   0.29780   0.73704   0.00000  Uiso   1.00
H322   H     0.70026   0.16573   0.21150   0.00000  Uiso   1.00
H323   H     0.86242   0.39697   0.88902   0.00000  Uiso   1.00
H324   H     0.66762   0.20220   0.73695   0.00000  Uiso   1.00
O325   O     0.50000   0.25000   0.25000   0.00000  Uiso   1.00
O326   O     0.50000   0.28035   0.61781   0.00000  Uiso   1.00
O327   O     0.71964  -0.00000   0.38219   0.00000  Uiso   1.00
O328   O     0.78035   0.00000   0.61781   0.00000  Uiso   1.00
O329   O     0.75000   0.03036   0.88219   0.00000  Uiso   1.00
O330   O     0.75000   0.46964   0.11781   0.00000  Uiso   1.00
O331   O     0.53035   0.25000   0.88219   0.00000  Uiso   1.00
O332   O     0.96964   0.25000   0.11781   0.00000  Uiso   1.00
O333   O     0.75000   0.46964   0.88219   0.00000  Uiso   1.00
O334   O     0.75000   0.03036   0.11781   0.00000  Uiso   1.00
O335   O     0.96964   0.25000   0.88219   0.00000  Uiso   1.00
O336   O     0.50000   0.25000   0.75000   0.00000  Uiso   1.00
O337   O     0.53035   0.25000   0.11781   0.00000  Uiso   1.00
O338   O     0.54267   0.17692   0.28474   0.00000  Uiso   1.00
O339   O     0.95732   0.32308   0.71526   0.00000  Uiso   1.00
O340   O     0.67692   0.45732   0.28474   0.00000  Uiso   1.00
O341   O     0.82307   0.04268   0.71526   0.00000  Uiso   1.00
O342   O     0.95732   0.32308   0.28474   0.00000  Uiso   1.00
O343   O     0.54267   0.17692   0.71526   0.00000  Uiso   1.00
O344   O     0.82307   0.04268   0.28474   0.00000  Uiso   1.00
O345   O     0.67692   0.45732   0.71526   0.00000  Uiso   1.00
O346   O     0.54267   0.32307   0.71526   0.00000  Uiso   1.00
O347   O     0.75000   0.00000   0.25000   0.00000  Uiso   1.00
O348   O     0.95732   0.17693   0.28474   0.00000  Uiso   1.00
O349   O     0.67692   0.04268   0.71526   0.00000  Uiso   1.00
O350   O     0.82307   0.45732   0.28474   0.00000  Uiso   1.00
O351   O     0.95732   0.17693   0.71526   0.00000  Uiso   1.00
O352   O     0.54267   0.32307   0.28474   0.00000  Uiso   1.00
O353   O     0.82307   0.45732   0.71526   0.00000  Uiso   1.00
O354   O     0.67692   0.04268   0.28474   0.00000  Uiso   1.00
O355   O     0.79267   0.42692   0.78474   0.00000  Uiso   1.00
O356   O     0.70732   0.07308   0.21526   0.00000  Uiso   1.00
O357   O     0.92692   0.20733   0.78474   0.00000  Uiso   1.00
O358   O     0.75000   0.00000   0.75000   0.00000  Uiso   1.00
O359   O     0.57307   0.29267   0.21526   0.00000  Uiso   1.00
O360   O     0.70732   0.07308   0.78474   0.00000  Uiso   1.00
O361   O     0.79267   0.42692   0.21526   0.00000  Uiso   1.00
O362   O     0.57307   0.29267   0.78474   0.00000  Uiso   1.00
O363   O     0.92692   0.20733   0.21526   0.00000  Uiso   1.00
O364   O     0.79267   0.07308   0.21526   0.00000  Uiso   1.00
O365   O     0.70732   0.42692   0.78474   0.00000  Uiso   1.00
O366   O     0.92692   0.29268   0.21526   0.00000  Uiso   1.00
O367   O     0.57307   0.20732   0.78474   0.00000  Uiso   1.00
O368   O     0.70732   0.42692   0.21526   0.00000  Uiso   1.00
O369   O     0.50000   0.28035   0.38219   0.00000  Uiso   1.00
O370   O     0.79267   0.07308   0.78474   0.00000  Uiso   1.00
O371   O     0.57307   0.20732   0.21526   0.00000  Uiso   1.00
O372   O     0.92692   0.29268   0.78474   0.00000  Uiso   1.00
O373   O     0.60443   0.34074   0.14388   0.00000  Uiso   1.00
O374   O     0.89557   0.15925   0.85612   0.00000  Uiso   1.00
O375   O     0.84435   0.39976   0.14338   0.00000  Uiso   1.00
O376   O     0.69831   0.14347   0.76409   0.00000  Uiso   1.00
O377   O     0.85666   0.19875   0.24504   0.00000  Uiso   1.00
O378   O     0.64332   0.30124   0.75530   0.00000  Uiso   1.00
O379   O     0.69835   0.14347   0.23625   0.00000  Uiso   1.00
O380   O     0.50000   0.21964   0.61781   0.00000  Uiso   1.00
O381   O     0.84432   0.39973   0.85662   0.00000  Uiso   1.00
O382   O     0.64332   0.19876   0.75523   0.00000  Uiso   1.00
O383   O     0.89563   0.34078   0.14386   0.00000  Uiso   1.00
O384   O     0.84429   0.10028   0.85661   0.00000  Uiso   1.00
O385   O     0.65570   0.39973   0.14338   0.00000  Uiso   1.00
O386   O     0.89561   0.34077   0.85614   0.00000  Uiso   1.00
O387   O     0.64334   0.19875   0.24506   0.00000  Uiso   1.00
O388   O     0.69831   0.35653   0.76418   0.00000  Uiso   1.00
O389   O     0.80165   0.14347   0.23622   0.00000  Uiso   1.00
O390   O     0.85443   0.09075   0.64388   0.00000  Uiso   1.00
O391   O     0.78035  -0.00000   0.38219   0.00000  Uiso   1.00
O392   O     0.64557   0.40925   0.35612   0.00000  Uiso   1.00
O393   O     0.55169   0.10653   0.73591   0.00000  Uiso   1.00
O394   O     0.90565   0.35024   0.35662   0.00000  Uiso   1.00
O395   O     0.60668   0.44875   0.74470   0.00000  Uiso   1.00
O396   O     0.89334   0.05125   0.25495   0.00000  Uiso   1.00
O397   O     0.90568   0.35027   0.64338   0.00000  Uiso   1.00
O398   O     0.55165   0.10653   0.26375   0.00000  Uiso   1.00
O399   O     0.85437   0.40922   0.35614   0.00000  Uiso   1.00
O400   O     0.60668   0.05124   0.74477   0.00000  Uiso   1.00
O401   O     0.59430   0.35027   0.35661   0.00000  Uiso   1.00
O402   O     0.71964   0.00000   0.61781   0.00000  Uiso   1.00
O403   O     0.90571   0.14972   0.64339   0.00000  Uiso   1.00
O404   O     0.60666   0.05125   0.25494   0.00000  Uiso   1.00
O405   O     0.85439   0.40923   0.64386   0.00000  Uiso   1.00
O406   O     0.94835   0.10653   0.26378   0.00000  Uiso   1.00
O407   O     0.55169   0.39347   0.73582   0.00000  Uiso   1.00
O408   O     0.50000   0.21964   0.38219   0.00000  Uiso   1.00
Zn409  Zn    0.54333   0.25000   0.20067   0.00000  Uiso   1.00
Zn410  Zn    0.70667   0.00000   0.29933   0.00000  Uiso   1.00
Zn411  Zn    0.50000   0.20667   0.70067   0.00000  Uiso   1.00
Zn412  Zn    0.50000   0.29333   0.29933   0.00000  Uiso   1.00
Zn413  Zn    0.70667   0.00000   0.70067   0.00000  Uiso   1.00
Zn414  Zn    0.79333   0.00000   0.29933   0.00000  Uiso   1.00
Zn415  Zn    0.50000   0.29333   0.70067   0.00000  Uiso   1.00
Zn416  Zn    0.50000   0.20667   0.29933   0.00000  Uiso   1.00
Zn417  Zn    0.95667   0.25000   0.79933   0.00000  Uiso   1.00
Zn418  Zn    0.75000   0.45667   0.20067   0.00000  Uiso   1.00
Zn419  Zn    0.75000   0.04333   0.79933   0.00000  Uiso   1.00
Zn420  Zn    0.95667   0.25000   0.20067   0.00000  Uiso   1.00
Zn421  Zn    0.54333   0.25000   0.79933   0.00000  Uiso   1.00
Zn422  Zn    0.75000   0.04333   0.20067   0.00000  Uiso   1.00
Zn423  Zn    0.75000   0.45667   0.79933   0.00000  Uiso   1.00
Zn424  Zn    0.79333   0.00000   0.70067   0.00000  Uiso   1.00
C425   C     0.00000   0.75001   0.02668   0.00000  Uiso   1.00
C426   C     0.49999   0.75000   0.58994   0.00000  Uiso   1.00
C427   C     0.25000   0.99999   0.41006   0.00000  Uiso   1.00
C428   C     0.25000   0.50000   0.58994   0.00000  Uiso   1.00
C429   C     0.25001   0.50000   0.91006   0.00000  Uiso   1.00
C430   C     0.25000   0.50000   0.08994   0.00000  Uiso   1.00
C431   C    -0.00000   0.75000   0.91006   0.00000  Uiso   1.00
C432   C     0.00000   0.75001   0.08994   0.00000  Uiso   1.00
C433   C     0.07000   0.67992   0.24992   0.00000  Uiso   1.00
C434   C     0.42999   0.82008   0.75010   0.00000  Uiso   1.00
C435   C     0.17999   0.92993   0.25009   0.00000  Uiso   1.00
C436   C     0.49999   0.75001   0.97332   0.00000  Uiso   1.00
C437   C     0.32001   0.57008   0.74990   0.00000  Uiso   1.00
C438   C     0.42999   0.82007   0.24991   0.00000  Uiso   1.00
C439   C     0.07000   0.67992   0.75008   0.00000  Uiso   1.00
C440   C     0.32000   0.57008   0.25008   0.00000  Uiso   1.00
C441   C     0.18000   0.92991   0.74992   0.00000  Uiso   1.00
C442   C     0.07000   0.82009   0.75008   0.00000  Uiso   1.00
C443   C     0.43000   0.67992   0.24992   0.00000  Uiso   1.00
C444   C     0.18000   0.57008   0.74992   0.00000  Uiso   1.00
C445   C     0.32001   0.92993   0.25009   0.00000  Uiso   1.00
C446   C     0.42999   0.67992   0.75010   0.00000  Uiso   1.00
C447   C     0.25001   0.50000   0.02667   0.00000  Uiso   1.00
C448   C     0.07001   0.82007   0.24991   0.00000  Uiso   1.00
C449   C     0.32001   0.92992   0.74990   0.00000  Uiso   1.00
C450   C     0.17999   0.57008   0.25008   0.00000  Uiso   1.00
C451   C     0.11470   0.85830   0.19575   0.00000  Uiso   1.00
C452   C     0.38530   0.64170   0.80425   0.00000  Uiso   1.00
C453   C     0.35882   0.88608   0.19575   0.00000  Uiso   1.00
C454   C     0.16196   0.63495   0.75651   0.00000  Uiso   1.00
C455   C     0.36518   0.66208   0.24505   0.00000  Uiso   1.00
C456   C     0.13481   0.83792   0.75512   0.00000  Uiso   1.00
C457   C     0.16197   0.63495   0.24365   0.00000  Uiso   1.00
C458   C     0.25001   0.50000   0.97332   0.00000  Uiso   1.00
C459   C     0.35880   0.88606   0.80425   0.00000  Uiso   1.00
C460   C     0.13481   0.66208   0.75509   0.00000  Uiso   1.00
C461   C     0.38534   0.85832   0.19574   0.00000  Uiso   1.00
C462   C     0.35878   0.61394   0.80424   0.00000  Uiso   1.00
C463   C     0.14121   0.88606   0.19575   0.00000  Uiso   1.00
C464   C     0.38532   0.85831   0.80425   0.00000  Uiso   1.00
C465   C     0.13482   0.66208   0.24505   0.00000  Uiso   1.00
C466   C     0.16196   0.86505   0.75655   0.00000  Uiso   1.00
C467   C     0.33803   0.63495   0.24363   0.00000  Uiso   1.00
C468   C     0.36470   0.60830   0.69575   0.00000  Uiso   1.00
C469   C     0.25000   0.99999   0.52667   0.00000  Uiso   1.00
C470   C     0.13530   0.89170   0.30425   0.00000  Uiso   1.00
C471   C     0.08804   0.61505   0.74349   0.00000  Uiso   1.00
C472   C     0.39118   0.86392   0.30425   0.00000  Uiso   1.00
C473   C     0.11519   0.91208   0.74488   0.00000  Uiso   1.00
C474   C     0.38482   0.58792   0.25495   0.00000  Uiso   1.00
C475   C     0.39120   0.86394   0.69575   0.00000  Uiso   1.00
C476   C     0.08802   0.61505   0.25635   0.00000  Uiso   1.00
C477   C     0.36466   0.89168   0.30425   0.00000  Uiso   1.00
C478   C     0.11519   0.58792   0.74491   0.00000  Uiso   1.00
C479   C     0.10879   0.86394   0.30425   0.00000  Uiso   1.00
C480   C     0.25000   0.99999   0.47332   0.00000  Uiso   1.00
C481   C     0.39122   0.63606   0.69575   0.00000  Uiso   1.00
C482   C     0.11518   0.58792   0.25495   0.00000  Uiso   1.00
C483   C     0.36468   0.89169   0.69574   0.00000  Uiso   1.00
C484   C     0.41197   0.61505   0.25637   0.00000  Uiso   1.00
C485   C     0.08804   0.88495   0.74345   0.00000  Uiso   1.00
C486   C     0.15199   0.90172   0.25019   0.00000  Uiso   1.00
C487   C     0.34800   0.59828   0.74981   0.00000  Uiso   1.00
C488   C     0.40200   0.84828   0.24981   0.00000  Uiso   1.00
C489   C     0.09806   0.65177   0.75033   0.00000  Uiso   1.00
C490   C     0.34806   0.59822   0.25033   0.00000  Uiso   1.00
C491   C     0.49999   0.75000   0.52667   0.00000  Uiso   1.00
C492   C     0.15194   0.90177   0.74967   0.00000  Uiso   1.00
C493   C     0.09806   0.65178   0.24966   0.00000  Uiso   1.00
C494   C     0.40200   0.84829   0.75019   0.00000  Uiso   1.00
C495   C     0.15194   0.59823   0.74966   0.00000  Uiso   1.00
C496   C     0.34800   0.90172   0.25019   0.00000  Uiso   1.00
C497   C     0.40200   0.65172   0.75019   0.00000  Uiso   1.00
C498   C     0.09801   0.84828   0.24981   0.00000  Uiso   1.00
C499   C     0.34800   0.90171   0.74981   0.00000  Uiso   1.00
C500   C     0.15193   0.59822   0.25034   0.00000  Uiso   1.00
C501   C     0.09806   0.84823   0.75033   0.00000  Uiso   1.00
C502   C     0.49999   0.75000   0.47332   0.00000  Uiso   1.00
C503   C     0.40194   0.65178   0.24967   0.00000  Uiso   1.00
C504   C    -0.00000   0.75000   0.41006   0.00000  Uiso   1.00
H505   H     0.12554   0.84000   0.11641   0.00000  Uiso   1.00
H506   H     0.37454   0.84005   0.11637   0.00000  Uiso   1.00
H507   H     0.36238   0.60305   0.88903   0.00000  Uiso   1.00
H508   H     0.13759   0.89696   0.11097   0.00000  Uiso   1.00
H509   H     0.37451   0.84002   0.88363   0.00000  Uiso   1.00
H510   H     0.16761   0.70216   0.26345   0.00000  Uiso   1.00
H511   H     0.20015   0.83432   0.78906   0.00000  Uiso   1.00
H512   H     0.29975   0.66572   0.21146   0.00000  Uiso   1.00
H513   H     0.37554   0.59000   0.61641   0.00000  Uiso   1.00
H514   H     0.12446   0.91000   0.38359   0.00000  Uiso   1.00
H515   H     0.04983   0.58432   0.71105   0.00000  Uiso   1.00
H516   H     0.37445   0.66000   0.88359   0.00000  Uiso   1.00
H517   H     0.38753   0.85299   0.38902   0.00000  Uiso   1.00
H518   H     0.08237   0.95220   0.76296   0.00000  Uiso   1.00
H519   H     0.41761   0.54784   0.23657   0.00000  Uiso   1.00
H520   H     0.38758   0.85303   0.61098   0.00000  Uiso   1.00
H521   H     0.04974   0.58427   0.28850   0.00000  Uiso   1.00
H522   H     0.37546   0.90995   0.38363   0.00000  Uiso   1.00
H523   H     0.08238   0.54780   0.76305   0.00000  Uiso   1.00
H524   H     0.11241   0.85304   0.38903   0.00000  Uiso   1.00
H525   H     0.38762   0.64695   0.61097   0.00000  Uiso   1.00
H526   H     0.08239   0.54784   0.23655   0.00000  Uiso   1.00
H527   H     0.36247   0.89701   0.11098   0.00000  Uiso   1.00
H528   H     0.37549   0.90998   0.61637   0.00000  Uiso   1.00
H529   H     0.45025   0.58428   0.28854   0.00000  Uiso   1.00
H530   H     0.04985   0.91568   0.71094   0.00000  Uiso   1.00
H531   H     0.20017   0.66568   0.78895   0.00000  Uiso   1.00
H532   H     0.33239   0.70216   0.26343   0.00000  Uiso   1.00
H533   H     0.16762   0.79780   0.73704   0.00000  Uiso   1.00
H534   H     0.20026   0.66573   0.21150   0.00000  Uiso   1.00
H535   H     0.36242   0.89697   0.88902   0.00000  Uiso   1.00
H536   H     0.16762   0.70220   0.73695   0.00000  Uiso   1.00
O537   O     0.00000   0.75000   0.25000   0.00000  Uiso   1.00
O538   O     0.00000   0.78035   0.61781   0.00000  Uiso   1.00
O539   O     0.21964   0.50000   0.38219   0.00000  Uiso   1.00
O540   O     0.28035   0.50000   0.61781   0.00000  Uiso   1.00
O541   O     0.25000   0.53036   0.88219   0.00000  Uiso   1.00
O542   O     0.25000   0.96964   0.11781   0.00000  Uiso   1.00
O543   O     0.03035   0.75000   0.88219   0.00000  Uiso   1.00
O544   O     0.46964   0.75000   0.11781   0.00000  Uiso   1.00
O545   O     0.25000   0.96964   0.88219   0.00000  Uiso   1.00
O546   O     0.25000   0.53036   0.11781   0.00000  Uiso   1.00
O547   O     0.46964   0.75000   0.88219   0.00000  Uiso   1.00
O548   O     0.00000   0.75000   0.75000   0.00000  Uiso   1.00
O549   O     0.03035   0.75000   0.11781   0.00000  Uiso   1.00
O550   O     0.04267   0.67692   0.28474   0.00000  Uiso   1.00
O551   O     0.45732   0.82308   0.71526   0.00000  Uiso   1.00
O552   O     0.17692   0.95732   0.28474   0.00000  Uiso   1.00
O553   O     0.32307   0.54268   0.71526   0.00000  Uiso   1.00
O554   O     0.45732   0.82308   0.28474   0.00000  Uiso   1.00
O555   O     0.04267   0.67692   0.71526   0.00000  Uiso   1.00
O556   O     0.32307   0.54268   0.28474   0.00000  Uiso   1.00
O557   O     0.17692   0.95732   0.71526   0.00000  Uiso   1.00
O558   O     0.04267   0.82307   0.71526   0.00000  Uiso   1.00
O559   O     0.25000   0.50000   0.25000   0.00000  Uiso   1.00
O560   O     0.45732   0.67693   0.28474   0.00000  Uiso   1.00
O561   O     0.17692   0.54268   0.71526   0.00000  Uiso   1.00
O562   O     0.32307   0.95732   0.28474   0.00000  Uiso   1.00
O563   O     0.45732   0.67693   0.71526   0.00000  Uiso   1.00
O564   O     0.04267   0.82307   0.28474   0.00000  Uiso   1.00
O565   O     0.32307   0.95732   0.71526   0.00000  Uiso   1.00
O566   O     0.17692   0.54268   0.28474   0.00000  Uiso   1.00
O567   O     0.29267   0.92692   0.78474   0.00000  Uiso   1.00
O568   O     0.20732   0.57308   0.21526   0.00000  Uiso   1.00
O569   O     0.42692   0.70733   0.78474   0.00000  Uiso   1.00
O570   O     0.25000   0.50000   0.75000   0.00000  Uiso   1.00
O571   O     0.07307   0.79267   0.21526   0.00000  Uiso   1.00
O572   O     0.20732   0.57308   0.78474   0.00000  Uiso   1.00
O573   O     0.29267   0.92692   0.21526   0.00000  Uiso   1.00
O574   O     0.07307   0.79267   0.78474   0.00000  Uiso   1.00
O575   O     0.42692   0.70733   0.21526   0.00000  Uiso   1.00
O576   O     0.29267   0.57308   0.21526   0.00000  Uiso   1.00
O577   O     0.20732   0.92692   0.78474   0.00000  Uiso   1.00
O578   O     0.42692   0.79268   0.21526   0.00000  Uiso   1.00
O579   O     0.07307   0.70732   0.78474   0.00000  Uiso   1.00
O580   O     0.20732   0.92692   0.21526   0.00000  Uiso   1.00
O581   O     0.00000   0.78035   0.38219   0.00000  Uiso   1.00
O582   O     0.29267   0.57308   0.78474   0.00000  Uiso   1.00
O583   O     0.07307   0.70732   0.21526   0.00000  Uiso   1.00
O584   O     0.42692   0.79268   0.78474   0.00000  Uiso   1.00
O585   O     0.10443   0.84074   0.14388   0.00000  Uiso   1.00
O586   O     0.39557   0.65925   0.85612   0.00000  Uiso   1.00
O587   O     0.34435   0.89976   0.14338   0.00000  Uiso   1.00
O588   O     0.19831   0.64347   0.76409   0.00000  Uiso   1.00
O589   O     0.35666   0.69875   0.24504   0.00000  Uiso   1.00
O590   O     0.14332   0.80124   0.75530   0.00000  Uiso   1.00
O591   O     0.19835   0.64347   0.23625   0.00000  Uiso   1.00
O592   O     0.00000   0.71964   0.61781   0.00000  Uiso   1.00
O593   O     0.34432   0.89973   0.85662   0.00000  Uiso   1.00
O594   O     0.14332   0.69876   0.75523   0.00000  Uiso   1.00
O595   O     0.39563   0.84078   0.14386   0.00000  Uiso   1.00
O596   O     0.34429   0.60028   0.85661   0.00000  Uiso   1.00
O597   O     0.15570   0.89973   0.14338   0.00000  Uiso   1.00
O598   O     0.39561   0.84077   0.85614   0.00000  Uiso   1.00
O599   O     0.14334   0.69875   0.24506   0.00000  Uiso   1.00
O600   O     0.19831   0.85653   0.76418   0.00000  Uiso   1.00
O601   O     0.30165   0.64347   0.23622   0.00000  Uiso   1.00
O602   O     0.35443   0.59075   0.64388   0.00000  Uiso   1.00
O603   O     0.28035   0.50000   0.38219   0.00000  Uiso   1.00
O604   O     0.14557   0.90925   0.35612   0.00000  Uiso   1.00
O605   O     0.05169   0.60653   0.73591   0.00000  Uiso   1.00
O606   O     0.40565   0.85024   0.35662   0.00000  Uiso   1.00
O607   O     0.10668   0.94875   0.74470   0.00000  Uiso   1.00
O608   O     0.39334   0.55125   0.25495   0.00000  Uiso   1.00
O609   O     0.40568   0.85027   0.64338   0.00000  Uiso   1.00
O610   O     0.05165   0.60653   0.26375   0.00000  Uiso   1.00
O611   O     0.35437   0.90922   0.35614   0.00000  Uiso   1.00
O612   O     0.10668   0.55124   0.74477   0.00000  Uiso   1.00
O613   O     0.09430   0.85027   0.35661   0.00000  Uiso   1.00
O614   O     0.21964   0.50000   0.61781   0.00000  Uiso   1.00
O615   O     0.40571   0.64972   0.64339   0.00000  Uiso   1.00
O616   O     0.10666   0.55125   0.25494   0.00000  Uiso   1.00
O617   O     0.35439   0.90923   0.64386   0.00000  Uiso   1.00
O618   O     0.44835   0.60653   0.26378   0.00000  Uiso   1.00
O619   O     0.05169   0.89347   0.73582   0.00000  Uiso   1.00
O620   O     0.00000   0.71964   0.38219   0.00000  Uiso   1.00
Zn621  Zn    0.04333   0.75000   0.20067   0.00000  Uiso   1.00
Zn622  Zn    0.20667   0.50000   0.29933   0.00000  Uiso   1.00
Zn623  Zn    0.00000   0.70667   0.70067   0.00000  Uiso   1.00
Zn624  Zn    0.00000   0.79333   0.29933   0.00000  Uiso   1.00
Zn625  Zn    0.20667   0.50000   0.70067   0.00000  Uiso   1.00
Zn626  Zn    0.29333   0.50000   0.29933   0.00000  Uiso   1.00
Zn627  Zn    0.00000   0.79333   0.70067   0.00000  Uiso   1.00
Zn628  Zn    0.00000   0.70667   0.29933   0.00000  Uiso   1.00
Zn629  Zn    0.45667   0.75000   0.79933   0.00000  Uiso   1.00
Zn630  Zn    0.25000   0.95667   0.20067   0.00000  Uiso   1.00
Zn631  Zn    0.25000   0.54333   0.79933   0.00000  Uiso   1.00
Zn632  Zn    0.45667   0.75000   0.20067   0.00000  Uiso   1.00
Zn633  Zn    0.04333   0.75000   0.79933   0.00000  Uiso   1.00
Zn634  Zn    0.25000   0.54333   0.20067   0.00000  Uiso   1.00
Zn635  Zn    0.25000   0.95667   0.79933   0.00000  Uiso   1.00
Zn636  Zn    0.29333   0.50000   0.70067   0.00000  Uiso   1.00
C637   C     0.50000   0.75001   0.02668   0.00000  Uiso   1.00
C638   C     0.99999   0.75000   0.58994   0.00000  Uiso   1.00
C639   C     0.75000   0.99999   0.41006   0.00000  Uiso   1.00
C640   C     0.75000   0.50000   0.58994   0.00000  Uiso   1.00
C641   C     0.75001   0.50000   0.91006   0.00000  Uiso   1.00
C642   C     0.75000   0.50000   0.08994   0.00000  Uiso   1.00
C643   C     0.50000   0.75000   0.91006   0.00000  Uiso   1.00
C644   C     0.50000   0.75001   0.08994   0.00000  Uiso   1.00
C645   C     0.57000   0.67992   0.24992   0.00000  Uiso   1.00
C646   C     0.92999   0.82008   0.75010   0.00000  Uiso   1.00
C647   C     0.67999   0.92993   0.25009   0.00000  Uiso   1.00
C648   C     0.99999   0.75001   0.97332   0.00000  Uiso   1.00
C649   C     0.82001   0.57008   0.74990   0.00000  Uiso   1.00
C650   C     0.92999   0.82007   0.24991   0.00000  Uiso   1.00
C651   C     0.57000   0.67992   0.75008   0.00000  Uiso   1.00
C652   C     0.82000   0.57008   0.25008   0.00000  Uiso   1.00
C653   C     0.68000   0.92991   0.74992   0.00000  Uiso   1.00
C654   C     0.57000   0.82009   0.75008   0.00000  Uiso   1.00
C655   C     0.93000   0.67992   0.24992   0.00000  Uiso   1.00
C656   C     0.68000   0.57008   0.74992   0.00000  Uiso   1.00
C657   C     0.82001   0.92993   0.25009   0.00000  Uiso   1.00
C658   C     0.92999   0.67992   0.75010   0.00000  Uiso   1.00
C659   C     0.75001   0.50000   0.02667   0.00000  Uiso   1.00
C660   C     0.57001   0.82007   0.24991   0.00000  Uiso   1.00
C661   C     0.82001   0.92992   0.74990   0.00000  Uiso   1.00
C662   C     0.67999   0.57008   0.25008   0.00000  Uiso   1.00
C663   C     0.61470   0.85830   0.19575   0.00000  Uiso   1.00
C664   C     0.88530   0.64170   0.80425   0.00000  Uiso   1.00
C665   C     0.85882   0.88608   0.19575   0.00000  Uiso   1.00
C666   C     0.66196   0.63495   0.75651   0.00000  Uiso   1.00
C667   C     0.86518   0.66208   0.24505   0.00000  Uiso   1.00
C668   C     0.63481   0.83792   0.75512   0.00000  Uiso   1.00
C669   C     0.66197   0.63495   0.24365   0.00000  Uiso   1.00
C670   C     0.75001   0.50000   0.97332   0.00000  Uiso   1.00
C671   C     0.85880   0.88606   0.80425   0.00000  Uiso   1.00
C672   C     0.63481   0.66208   0.75509   0.00000  Uiso   1.00
C673   C     0.88534   0.85832   0.19574   0.00000  Uiso   1.00
C674   C     0.85878   0.61394   0.80424   0.00000  Uiso   1.00
C675   C     0.64121   0.88606   0.19575   0.00000  Uiso   1.00
C676   C     0.88532   0.85831   0.80425   0.00000  Uiso   1.00
C677   C     0.63482   0.66208   0.24505   0.00000  Uiso   1.00
C678   C     0.66196   0.86505   0.75655   0.00000  Uiso   1.00
C679   C     0.83803   0.63495   0.24363   0.00000  Uiso   1.00
C680   C     0.86470   0.60830   0.69575   0.00000  Uiso   1.00
C681   C     0.75000   0.99999   0.52667   0.00000  Uiso   1.00
C682   C     0.63530   0.89170   0.30425   0.00000  Uiso   1.00
C683   C     0.58804   0.61505   0.74349   0.00000  Uiso   1.00
C684   C     0.89118   0.86392   0.30425   0.00000  Uiso   1.00
C685   C     0.61519   0.91208   0.74488   0.00000  Uiso   1.00
C686   C     0.88482   0.58792   0.25495   0.00000  Uiso   1.00
C687   C     0.89120   0.86394   0.69575   0.00000  Uiso   1.00
C688   C     0.58802   0.61505   0.25635   0.00000  Uiso   1.00
C689   C     0.86466   0.89168   0.30425   0.00000  Uiso   1.00
C690   C     0.61519   0.58792   0.74491   0.00000  Uiso   1.00
C691   C     0.60879   0.86394   0.30425   0.00000  Uiso   1.00
C692   C     0.75000   0.99999   0.47332   0.00000  Uiso   1.00
C693   C     0.89122   0.63606   0.69575   0.00000  Uiso   1.00
C694   C     0.61518   0.58792   0.25495   0.00000  Uiso   1.00
C695   C     0.86468   0.89169   0.69574   0.00000  Uiso   1.00
C696   C     0.91197   0.61505   0.25637   0.00000  Uiso   1.00
C697   C     0.58804   0.88495   0.74345   0.00000  Uiso   1.00
C698   C     0.65199   0.90172   0.25019   0.00000  Uiso   1.00
C699   C     0.84800   0.59828   0.74981   0.00000  Uiso   1.00
C700   C     0.90200   0.84828   0.24981   0.00000  Uiso   1.00
C701   C     0.59806   0.65177   0.75033   0.00000  Uiso   1.00
C702   C     0.84806   0.59822   0.25033   0.00000  Uiso   1.00
C703   C     0.99999   0.75000   0.52667   0.00000  Uiso   1.00
C704   C     0.65194   0.90177   0.74967   0.00000  Uiso   1.00
C705   C     0.59806   0.65178   0.24966   0.00000  Uiso   1.00
C706   C     0.90200   0.84829   0.75019   0.00000  Uiso   1.00
C707   C     0.65194   0.59823   0.74966   0.00000  Uiso   1.00
C708   C     0.84800   0.90172   0.25019   0.00000  Uiso   1.00
C709   C     0.90200   0.65172   0.75019   0.00000  Uiso   1.00
C710   C     0.59801   0.84828   0.24981   0.00000  Uiso   1.00
C711   C     0.84800   0.90171   0.74981   0.00000  Uiso   1.00
C712   C     0.65193   0.59822   0.25034   0.00000  Uiso   1.00
C713   C     0.59806   0.84823   0.75033   0.00000  Uiso   1.00
C714   C     0.99999   0.75000   0.47332   0.00000  Uiso   1.00
C715   C     0.90194   0.65178   0.24967   0.00000  Uiso   1.00
C716   C     0.50000   0.75000   0.41006   0.00000  Uiso   1.00
H717   H     0.62554   0.84000   0.11641   0.00000  Uiso   1.00
H718   H     0.87454   0.84005   0.11637   0.00000  Uiso   1.00
H719   H     0.86238   0.60305   0.88903   0.00000  Uiso   1.00
H720   H     0.63759   0.89696   0.11097   0.00000  Uiso   1.00
H721   H     0.87451   0.84002   0.88363   0.00000  Uiso   1.00
H722   H     0.66761   0.70216   0.26345   0.00000  Uiso   1.00
H723   H     0.70015   0.83432   0.78906   0.00000  Uiso   1.00
H724   H     0.79975   0.66572   0.21146   0.00000  Uiso   1.00
H725   H     0.87554   0.59000   0.61641   0.00000  Uiso   1.00
H726   H     0.62446   0.91000   0.38359   0.00000  Uiso   1.00
H727   H     0.54983   0.58432   0.71105   0.00000  Uiso   1.00
H728   H     0.87445   0.66000   0.88359   0.00000  Uiso   1.00
H729   H     0.88753   0.85299   0.38902   0.00000  Uiso   1.00
H730   H     0.58237   0.95220   0.76296   0.00000  Uiso   1.00
H731   H     0.91761   0.54784   0.23657   0.00000  Uiso   1.00
H732   H     0.88758   0.85303   0.61098   0.00000  Uiso   1.00
H733   H     0.54974   0.58427   0.28850   0.00000  Uiso   1.00
H734   H     0.87546   0.90995   0.38363   0.00000  Uiso   1.00
H735   H     0.58238   0.54780   0.76305   0.00000  Uiso   1.00
H736   H     0.61241   0.85304   0.38903   0.00000  Uiso   1.00
H737   H     0.88762   0.64695   0.61097   0.00000  Uiso   1.00
H738   H     0.58239   0.54784   0.23655   0.00000  Uiso   1.00
H739   H     0.86247   0.89701   0.11098   0.00000  Uiso   1.00
H740   H     0.87549   0.90998   0.61637   0.00000  Uiso   1.00
H741   H     0.95025   0.58428   0.28854   0.00000  Uiso   1.00
H742   H     0.54985   0.91568   0.71094   0.00000  Uiso   1.00
H743   H     0.70017   0.66568   0.78895   0.00000  Uiso   1.00
H744   H     0.83239   0.70216   0.26343   0.00000  Uiso   1.00
H745   H     0.66762   0.79780   0.73704   0.00000  Uiso   1.00
H746   H     0.70026   0.66573   0.21150   0.00000  Uiso   1.00
H747   H     0.86242   0.89697   0.88902   0.00000  Uiso   1.00
H748   H     0.66762   0.70220   0.73695   0.00000  Uiso   1.00
O749   O     0.50000   0.75000   0.25000   0.00000  Uiso   1.00
O750   O     0.50000   0.78035   0.61781   0.00000  Uiso   1.00
O751   O     0.71964   0.50000   0.38219   0.00000  Uiso   1.00
O752   O     0.78035   0.50000   0.61781   0.00000  Uiso   1.00
O753   O     0.75000   0.53036   0.88219   0.00000  Uiso   1.00
O754   O     0.75000   0.96964   0.11781   0.00000  Uiso   1.00
O755   O     0.53035   0.75000   0.88219   0.00000  Uiso   1.00
O756   O     0.96964   0.75000   0.11781   0.00000  Uiso   1.00
O757   O     0.75000   0.96964   0.88219   0.00000  Uiso   1.00
O758   O     0.75000   0.53036   0.11781   0.00000  Uiso   1.00
O759   O     0.96964   0.75000   0.88219   0.00000  Uiso   1.00
O760   O     0.50000   0.75000   0.75000   0.00000  Uiso   1.00
O761   O     0.53035   0.75000   0.11781   0.00000  Uiso   1.00
O762   O     0.54267   0.67692   0.28474   0.00000  Uiso   1.00
O763   O     0.95732   0.82308   0.71526   0.00000  Uiso   1.00
O764   O     0.67692   0.95732   0.28474   0.00000  Uiso   1.00
O765   O     0.82307   0.54268   0.71526   0.00000  Uiso   1.00
O766   O     0.95732   0.82308   0.28474   0.00000  Uiso   1.00
O767   O     0.54267   0.67692   0.71526   0.00000  Uiso   1.00
O768   O     0.82307   0.54268   0.28474   0.00000  Uiso   1.00
O769   O     0.67692   0.95732   0.71526   0.00000  Uiso   1.00
O770   O     0.54267   0.82307   0.71526   0.00000  Uiso   1.00
O771   O     0.75000   0.50000   0.25000   0.00000  Uiso   1.00
O772   O     0.95732   0.67693   0.28474   0.00000  Uiso   1.00
O773   O     0.67692   0.54268   0.71526   0.00000  Uiso   1.00
O774   O     0.82307   0.95732   0.28474   0.00000  Uiso   1.00
O775   O     0.95732   0.67693   0.71526   0.00000  Uiso   1.00
O776   O     0.54267   0.82307   0.28474   0.00000  Uiso   1.00
O777   O     0.82307   0.95732   0.71526   0.00000  Uiso   1.00
O778   O     0.67692   0.54268   0.28474   0.00000  Uiso   1.00
O779   O     0.79267   0.92692   0.78474   0.00000  Uiso   1.00
O780   O     0.70732   0.57308   0.21526   0.00000  Uiso   1.00
O781   O     0.92692   0.70733   0.78474   0.00000  Uiso   1.00
O782   O     0.75000   0.50000   0.75000   0.00000  Uiso   1.00
O783   O     0.57307   0.79267   0.21526   0.00000  Uiso   1.00
O784   O     0.70732   0.57308   0.78474   0.00000  Uiso   1.00
O785   O     0.79267   0.92692   0.21526   0.00000  Uiso   1.00
O786   O     0.57307   0.79267   0.78474   0.00000  Uiso   1.00
O787   O     0.92692   0.70733   0.21526   0.00000  Uiso   1.00
O788   O     0.79267   0.57308   0.21526   0.00000  Uiso   1.00
O789   O     0.70732   0.92692   0.78474   0.00000  Uiso   1.00
O790   O     0.92692   0.79268   0.21526   0.00000  Uiso   1.00
O791   O     0.57307   0.70732   0.78474   0.00000  Uiso   1.00
O792   O     0.70732   0.92692   0.21526   0.00000  Uiso   1.00
O793   O     0.50000   0.78035   0.38219   0.00000  Uiso   1.00
O794   O     0.79267   0.57308   0.78474   0.00000  Uiso   1.00
O795   O     0.57307   0.70732   0.21526   0.00000  Uiso   1.00
O796   O     0.92692   0.79268   0.78474   0.00000  Uiso   1.00
O797   O     0.60443   0.84074   0.14388   0.00000  Uiso   1.00
O798   O     0.89557   0.65925   0.85612   0.00000  Uiso   1.00
O799   O     0.84435   0.89976   0.14338   0.00000  Uiso   1.00
O800   O     0.69831   0.64347   0.76409   0.00000  Uiso   1.00
O801   O     0.85666   0.69875   0.24504   0.00000  Uiso   1.00
O802   O     0.64332   0.80124   0.75530   0.00000  Uiso   1.00
O803   O     0.69835   0.64347   0.23625   0.00000  Uiso   1.00
O804   O     0.50000   0.71964   0.61781   0.00000  Uiso   1.00
O805   O     0.84432   0.89973   0.85662   0.00000  Uiso   1.00
O806   O     0.64332   0.69876   0.75523   0.00000  Uiso   1.00
O807   O     0.89563   0.84078   0.14386   0.00000  Uiso   1.00
O808   O     0.84429   0.60028   0.85661   0.00000  Uiso   1.00
O809   O     0.65570   0.89973   0.14338   0.00000  Uiso   1.00
O810   O     0.89561   0.84077   0.85614   0.00000  Uiso   1.00
O811   O     0.64334   0.69875   0.24506   0.00000  Uiso   1.00
O812   O     0.69831   0.85653   0.76418   0.00000  Uiso   1.00
O813   O     0.80165   0.64347   0.23622   0.00000  Uiso   1.00
O814   O     0.85443   0.59075   0.64388   0.00000  Uiso   1.00
O815   O     0.78035   0.50000   0.38219   0.00000  Uiso   1.00
O816   O     0.64557   0.90925   0.35612   0.00000  Uiso   1.00
O817   O     0.55169   0.60653   0.73591   0.00000  Uiso   1.00
O818   O     0.90565   0.85024   0.35662   0.00000  Uiso   1.00
O819   O     0.60668   0.94875   0.74470   0.00000  Uiso   1.00
O820   O     0.89334   0.55125   0.25495   0.00000  Uiso   1.00
O821   O     0.90568   0.85027   0.64338   0.00000  Uiso   1.00
O822   O     0.55165   0.60653   0.26375   0.00000  Uiso   1.00
O823   O     0.85437   0.90922   0.35614   0.00000  Uiso   1.00
O824   O     0.60668   0.55124   0.74477   0.00000  Uiso   1.00
O825   O     0.59430   0.85027   0.35661   0.00000  Uiso   1.00
O826   O     0.71964   0.50000   0.61781   0.00000  Uiso   1.00
O827   O     0.90571   0.64972   0.64339   0.00000  Uiso   1.00
O828   O     0.60666   0.55125   0.25494   0.00000  Uiso   1.00
O829   O     0.85439   0.90923   0.64386   0.00000  Uiso   1.00
O830   O     0.94835   0.60653   0.26378   0.00000  Uiso   1.00
O831   O     0.55169   0.89347   0.73582   0.00000  Uiso   1.00
O832   O     0.50000   0.71964   0.38219   0.00000  Uiso   1.00
Zn833  Zn    0.54333   0.75000   0.20067   0.00000  Uiso   1.00
Zn834  Zn    0.70667   0.50000   0.29933   0.00000  Uiso   1.00
Zn835  Zn    0.50000   0.70667   0.70067   0.00000  Uiso   1.00
Zn836  Zn    0.50000   0.79333   0.29933   0.00000  Uiso   1.00
Zn837  Zn    0.70667   0.50000   0.70067   0.00000  Uiso   1.00
Zn838  Zn    0.79333   0.50000   0.29933   0.00000  Uiso   1.00
Zn839  Zn    0.50000   0.79333   0.70067   0.00000  Uiso   1.00
Zn840  Zn    0.50000   0.70667   0.29933   0.00000  Uiso   1.00
Zn841  Zn    0.95667   0.75000   0.79933   0.00000  Uiso   1.00
Zn842  Zn    0.75000   0.95667   0.20067   0.00000  Uiso   1.00
Zn843  Zn    0.75000   0.54333   0.79933   0.00000  Uiso   1.00
Zn844  Zn    0.95667   0.75000   0.20067   0.00000  Uiso   1.00
Zn845  Zn    0.54333   0.75000   0.79933   0.00000  Uiso   1.00
Zn846  Zn    0.75000   0.54333   0.20067   0.00000  Uiso   1.00
Zn847  Zn    0.75000   0.95667   0.79933   0.00000  Uiso   1.00
Zn848  Zn    0.79333   0.50000   0.70067   0.00000  Uiso   1.00
loop_
_geom_bond_atom_site_label_1
_geom_bond_atom_site_label_2
_geom_bond_distance
_geom_bond_site_symmetry_2
_ccdc_geom_bond_type
C1     C8      1.418   .     S
C1     C224    1.196   1_454 S
C2     C67     1.418   .     S
C2     O326    1.278   .     S
C2     O380    1.278   .     S
C3     C56     1.418   .     S
C3     O603    1.278   .     A
C3     O539    1.278   .     A
C4     C469    1.418   1_545 S
C4     O116    1.278   .     S
C4     O190    1.278   .     S
C5     O545    1.278   1_545 A
C5     C34     1.418   .     S
C5     O117    1.278   .     S
C6     O122    1.278   .     A
C6     C23     1.418   .     S
C6     O542    1.278   1_545 S
C7     C224    1.418   1_455 S
C7     O335    1.278   1_455 A
C7     O119    1.278   .     S
C8     O125    1.278   .     A
C8     O332    1.278   1_455 S
C9     C69     1.460   .     S
C9     O159    1.277   .     A
C9     O126    1.276   .     A
C10    O160    1.276   .     A
C10    C70     1.460   .     S
C10    O127    1.277   .     A
C11    C62     1.460   .     S
C11    O156    1.277   .     A
C11    O128    1.276   .     A
C12    C219    1.418   .     S
C12    C213    1.196   1_556 S
C13    C63     1.460   .     S
C13    O158    1.277   .     A
C13    O129    1.276   .     A
C14    O154    1.276   .     A
C14    C64     1.460   .     S
C14    O130    1.277   .     A
C15    C65     1.460   .     S
C15    O155    1.277   .     A
C15    O131    1.276   .     A
C16    O152    1.276   .     A
C16    O132    1.277   .     A
C16    C66     1.460   .     S
C17    O153    1.276   .     A
C17    O133    1.277   .     A
C17    C68     1.460   .     S
C18    C77     1.460   .     S
C18    O150    1.277   .     A
C18    O134    1.276   .     A
C19    O136    1.276   .     A
C19    O151    1.277   .     A
C19    C79     1.460   .     S
C20    O148    1.276   .     A
C20    C71     1.460   .     S
C20    O137    1.277   .     A
C21    O149    1.277   .     A
C21    O138    1.276   .     A
C21    C72     1.460   .     S
C22    O145    1.276   .     A
C22    O139    1.277   .     A
C22    C73     1.460   .     S
C23    C34     1.196   1_554 S
C24    O147    1.276   .     A
C24    O140    1.277   .     A
C24    C74     1.460   .     S
C25    O143    1.277   .     A
C25    O141    1.276   .     A
C25    C75     1.460   .     S
C26    C76     1.460   .     S
C26    O144    1.276   .     A
C26    O142    1.277   .     A
C27    C74     1.407   .     A
C27    O161    1.382   .     S
C27    C39     1.410   .     A
C28    C73     1.407   .     A
C28    O162    1.382   .     S
C28    C38     1.410   .     A
C29    O163    1.383   .     S
C29    C72     1.406   .     A
C29    C37     1.410   .     A
C30    O164    1.382   .     S
C30    C71     1.407   .     A
C30    C36     1.410   .     A
C31    C43     1.410   .     A
C31    O165    1.383   .     S
C31    C79     1.406   .     A
C32    O166    1.383   .     S
C32    C77     1.406   .     A
C32    C42     1.410   .     A
C33    O167    1.382   .     S
C33    C76     1.407   .     A
C33    C41     1.410   .     A
C34    C23     1.196   1_556 S
C35    C75     1.406   .     A
C35    O169    1.383   .     S
C35    C40     1.410   .     A
C36    C65     1.406   .     A
C36    O170    1.383   .     S
C37    C64     1.407   .     A
C37    O171    1.382   .     S
C38    O172    1.383   .     S
C38    C63     1.406   .     A
C39    O173    1.383   .     S
C39    C62     1.406   .     A
C40    C70     1.407   .     A
C40    O174    1.382   .     S
C41    C69     1.406   .     A
C41    O175    1.383   .     S
C42    C68     1.407   .     A
C42    O176    1.382   .     S
C43    O177    1.382   .     S
C43    C66     1.407   .     A
C44    C63     1.407   .     A
C44    O178    1.382   .     S
C44    C57     1.410   .     A
C45    C56     1.196   .     T
C45    C428    1.418   .     S
C46    C62     1.407   .     A
C46    C55     1.410   .     A
C46    O180    1.382   .     S
C47    O181    1.382   .     S
C47    C54     1.410   .     A
C47    C65     1.407   .     A
C48    C64     1.406   .     A
C48    C53     1.410   .     A
C48    O182    1.383   .     S
C49    C68     1.406   .     A
C49    O183    1.383   .     S
C49    C61     1.410   .     A
C50    O184    1.383   .     S
C50    C66     1.406   .     A
C50    C60     1.410   .     A
C51    C70     1.406   .     A
C51    O185    1.383   .     S
C51    C59     1.410   .     A
C52    C69     1.407   .     A
C52    O186    1.382   .     S
C52    C58     1.410   .     A
C53    O187    1.382   .     S
C53    C72     1.407   .     A
C54    C71     1.406   .     A
C54    O188    1.383   .     S
C55    O189    1.383   .     S
C55    C74     1.406   .     A
C57    O191    1.383   .     S
C57    C73     1.406   .     A
C58    C76     1.406   .     A
C58    O192    1.383   .     S
C59    O193    1.382   .     S
C59    C75     1.407   .     A
C60    C79     1.407   .     A
C60    O194    1.382   .     S
C61    C77     1.407   .     A
C61    O195    1.382   .     S
C67    C78     1.196   .     T
C78    C292    1.418   .     S
C80    C290    1.418   1_455 S
C80    O157    1.278   .     S
C80    O196    1.278   .     S
H81    O161    0.991   .     S
H82    O171    0.991   .     S
H83    O172    0.990   .     S
H84    O173    0.990   .     S
H85    O174    0.991   .     S
H86    O175    0.990   .     S
H87    O176    0.991   .     S
H88    O177    0.990   .     S
H89    O178    0.991   .     S
H90    O180    0.991   .     S
H91    O181    0.991   .     S
H92    O162    0.991   .     S
H93    O182    0.990   .     S
H94    O183    0.990   .     S
H95    O184    0.990   .     S
H96    O185    0.990   .     S
H97    O186    0.990   .     S
H98    O187    0.991   .     S
H99    O188    0.990   .     S
H100   O189    0.990   .     S
H101   O191    0.990   .     S
H102   O192    0.990   .     S
H103   O163    0.990   .     S
H104   O193    0.991   .     S
H105   O194    0.990   .     S
H106   O195    0.991   .     S
H107   O164    0.991   .     S
H108   O165    0.990   .     S
H109   O166    0.990   .     S
H110   O167    0.990   .     S
H111   O169    0.990   .     S
H112   O170    0.990   .     S
O113   Zn204   1.938   .     S
O113   Zn200   1.938   .     S
O113   Zn197   1.938   .     S
O113   Zn420   1.938   1_455 S
O114   Zn203   1.917   .     S
O114   C214    1.278   1_455 S
O115   C427    1.278   1_545 A
O115   Zn198   1.917   .     S
O116   Zn212   1.917   .     S
O117   Zn207   1.917   .     S
O118   Zn206   1.917   .     S
O118   C430    1.278   .     S
O119   Zn209   1.917   .     S
O120   Zn208   1.917   .     S
O120   C220    1.278   .     S
O121   C429    1.278   .     A
O121   Zn211   1.917   .     S
O122   Zn210   1.917   .     S
O123   Zn205   1.917   .     S
O123   C219    1.278   .     A
O124   Zn199   1.938   .     S
O124   Zn209   1.938   .     S
O124   Zn203   1.938   .     S
O124   Zn417   1.938   1_455 S
O125   Zn197   1.917   .     S
O126   Zn204   1.939   .     S
O127   Zn415   1.939   .     S
O128   Zn622   1.939   .     S
O129   Zn212   1.939   .     S
O130   Zn412   1.939   .     S
O131   Zn199   1.939   .     S
O132   Zn202   1.939   .     S
O133   Zn625   1.939   .     S
O134   Zn203   1.939   .     S
O135   Zn198   1.938   .     S
O135   Zn202   1.938   .     S
O135   Zn210   1.938   .     S
O135   Zn630   1.938   1_545 S
O136   Zn416   1.939   .     S
O137   Zn201   1.939   .     S
O138   Zn626   1.939   .     S
O139   Zn411   1.939   .     S
O140   Zn200   1.939   .     S
O141   Zn636   1.939   .     S
O142   Zn198   1.939   .     S
O143   Zn211   1.939   .     S
O144   Zn210   1.939   .     S
O145   Zn205   1.939   .     S
O146   Zn201   1.938   .     S
O146   Zn207   1.938   .     S
O146   Zn212   1.938   .     S
O146   Zn635   1.938   1_545 S
O147   Zn197   1.939   .     S
O148   Zn207   1.939   .     S
O149   Zn206   1.939   .     S
O150   Zn209   1.939   .     S
O151   Zn208   1.939   .     S
O152   Zn210   1.939   .     S
O153   Zn211   1.939   .     S
O154   Zn208   1.939   .     S
O155   Zn209   1.939   .     S
O156   Zn206   1.939   .     S
O157   Zn200   1.917   .     S
O158   Zn207   1.939   .     S
O159   Zn197   1.939   .     S
O160   Zn205   1.939   .     S
O168   Zn199   1.917   .     S
O168   C214    1.278   1_455 S
O179   C427    1.278   1_545 A
O179   Zn202   1.917   .     S
O190   Zn201   1.917   .     S
O196   Zn204   1.917   .     S
Zn198  O552    1.939   1_545 S
Zn199  O351    1.939   1_455 S
Zn200  O342    1.939   1_455 S
Zn201  O557    1.939   1_545 S
Zn202  O562    1.939   1_545 S
Zn203  O339    1.939   1_455 S
Zn204  O348    1.939   1_455 S
Zn205  O336    1.938   .     S
Zn206  O559    1.938   .     S
Zn208  O325    1.938   .     S
Zn211  O570    1.938   .     S
Zn212  O565    1.939   1_545 S
C213   C220    1.418   .     S
C213   C12     1.196   1_554 S
C214   C279    1.418   .     S
C214   O114    1.278   1_655 S
C214   O168    1.278   1_655 S
C215   C268    1.418   .     S
C215   O815    1.278   .     A
C215   O751    1.278   .     A
C216   C681    1.418   1_545 S
C216   O328    1.278   .     S
C216   O402    1.278   .     S
C217   O757    1.278   1_545 A
C217   C246    1.418   .     S
C217   O329    1.278   .     S
C218   O334    1.278   .     A
C218   C235    1.418   .     S
C218   O754    1.278   1_545 S
C219   O331    1.278   .     S
C220   O337    1.278   .     A
C221   C281    1.460   .     S
C221   O371    1.277   .     A
C221   O338    1.276   .     A
C222   O372    1.276   .     A
C222   C282    1.460   .     S
C222   O339    1.277   .     A
C223   C274    1.460   .     S
C223   O368    1.277   .     A
C223   O340    1.276   .     A
C224   C7      1.418   1_655 S
C224   C1      1.196   1_656 S
C225   C275    1.460   .     S
C225   O370    1.277   .     A
C225   O341    1.276   .     A
C226   O366    1.276   .     A
C226   C276    1.460   .     S
C226   O342    1.277   .     A
C227   C277    1.460   .     S
C227   O367    1.277   .     A
C227   O343    1.276   .     A
C228   O364    1.276   .     A
C228   O344    1.277   .     A
C228   C278    1.460   .     S
C229   O365    1.276   .     A
C229   O345    1.277   .     A
C229   C280    1.460   .     S
C230   C289    1.460   .     S
C230   O362    1.277   .     A
C230   O346    1.276   .     A
C231   O348    1.276   .     A
C231   O363    1.277   .     A
C231   C291    1.460   .     S
C232   O360    1.276   .     A
C232   C283    1.460   .     S
C232   O349    1.277   .     A
C233   O361    1.277   .     A
C233   O350    1.276   .     A
C233   C284    1.460   .     S
C234   O357    1.276   .     A
C234   O351    1.277   .     A
C234   C285    1.460   .     S
C235   C246    1.196   1_554 S
C236   O359    1.276   .     A
C236   O352    1.277   .     A
C236   C286    1.460   .     S
C237   O355    1.277   .     A
C237   O353    1.276   .     A
C237   C287    1.460   .     S
C238   C288    1.460   .     S
C238   O356    1.276   .     A
C238   O354    1.277   .     A
C239   C286    1.407   .     A
C239   O373    1.382   .     S
C239   C251    1.410   .     A
C240   C285    1.407   .     A
C240   O374    1.382   .     S
C240   C250    1.410   .     A
C241   O375    1.383   .     S
C241   C284    1.406   .     A
C241   C249    1.410   .     A
C242   O376    1.382   .     S
C242   C283    1.407   .     A
C242   C248    1.410   .     A
C243   C255    1.410   .     A
C243   O377    1.383   .     S
C243   C291    1.406   .     A
C244   O378    1.383   .     S
C244   C289    1.406   .     A
C244   C254    1.410   .     A
C245   O379    1.382   .     S
C245   C288    1.407   .     A
C245   C253    1.410   .     A
C246   C235    1.196   1_556 S
C247   C287    1.406   .     A
C247   O381    1.383   .     S
C247   C252    1.410   .     A
C248   C277    1.406   .     A
C248   O382    1.383   .     S
C249   C276    1.407   .     A
C249   O383    1.382   .     S
C250   O384    1.383   .     S
C250   C275    1.406   .     A
C251   O385    1.383   .     S
C251   C274    1.406   .     A
C252   C282    1.407   .     A
C252   O386    1.382   .     S
C253   C281    1.406   .     A
C253   O387    1.383   .     S
C254   C280    1.407   .     A
C254   O388    1.382   .     S
C255   O389    1.382   .     S
C255   C278    1.407   .     A
C256   C275    1.407   .     A
C256   O390    1.382   .     S
C256   C269    1.410   .     A
C257   C268    1.196   .     T
C257   C640    1.418   .     S
C258   C274    1.407   .     A
C258   C267    1.410   .     A
C258   O392    1.382   .     S
C259   O393    1.382   .     S
C259   C266    1.410   .     A
C259   C277    1.407   .     A
C260   C276    1.406   .     A
C260   C265    1.410   .     A
C260   O394    1.383   .     S
C261   C280    1.406   .     A
C261   O395    1.383   .     S
C261   C273    1.410   .     A
C262   O396    1.383   .     S
C262   C278    1.406   .     A
C262   C272    1.410   .     A
C263   C282    1.406   .     A
C263   O397    1.383   .     S
C263   C271    1.410   .     A
C264   C281    1.407   .     A
C264   O398    1.382   .     S
C264   C270    1.410   .     A
C265   O399    1.382   .     S
C265   C284    1.407   .     A
C266   C283    1.406   .     A
C266   O400    1.383   .     S
C267   O401    1.383   .     S
C267   C286    1.406   .     A
C269   O403    1.383   .     S
C269   C285    1.406   .     A
C270   C288    1.406   .     A
C270   O404    1.383   .     S
C271   O405    1.382   .     S
C271   C287    1.407   .     A
C272   C291    1.407   .     A
C272   O406    1.382   .     S
C273   C289    1.407   .     A
C273   O407    1.382   .     S
C279   C290    1.196   .     T
C290   C80     1.418   1_655 S
C292   O369    1.278   .     S
C292   O408    1.278   .     S
H293   O373    0.991   .     S
H294   O383    0.991   .     S
H295   O384    0.990   .     S
H296   O385    0.990   .     S
H297   O386    0.991   .     S
H298   O387    0.990   .     S
H299   O388    0.991   .     S
H300   O389    0.990   .     S
H301   O390    0.991   .     S
H302   O392    0.991   .     S
H303   O393    0.991   .     S
H304   O374    0.991   .     S
H305   O394    0.990   .     S
H306   O395    0.990   .     S
H307   O396    0.990   .     S
H308   O397    0.990   .     S
H309   O398    0.990   .     S
H310   O399    0.991   .     S
H311   O400    0.990   .     S
H312   O401    0.990   .     S
H313   O403    0.990   .     S
H314   O404    0.990   .     S
H315   O375    0.990   .     S
H316   O405    0.991   .     S
H317   O406    0.990   .     S
H318   O407    0.991   .     S
H319   O376    0.991   .     S
H320   O377    0.990   .     S
H321   O378    0.990   .     S
H322   O379    0.990   .     S
H323   O381    0.990   .     S
H324   O382    0.990   .     S
O325   Zn416   1.938   .     S
O325   Zn412   1.938   .     S
O325   Zn409   1.938   .     S
O326   Zn415   1.917   .     S
O327   C639    1.278   1_545 A
O327   Zn410   1.917   .     S
O328   Zn424   1.917   .     S
O329   Zn419   1.917   .     S
O330   Zn418   1.917   .     S
O330   C642    1.278   .     S
O331   Zn421   1.917   .     S
O332   Zn420   1.917   .     S
O332   C8      1.278   1_655 S
O333   C641    1.278   .     A
O333   Zn423   1.917   .     S
O334   Zn422   1.917   .     S
O335   Zn417   1.917   .     S
O335   C7      1.278   1_655 A
O336   Zn411   1.938   .     S
O336   Zn421   1.938   .     S
O336   Zn415   1.938   .     S
O337   Zn409   1.917   .     S
O338   Zn416   1.939   .     S
O339   Zn203   1.939   1_655 S
O340   Zn834   1.939   .     S
O341   Zn424   1.939   .     S
O342   Zn200   1.939   1_655 S
O343   Zn411   1.939   .     S
O344   Zn414   1.939   .     S
O345   Zn837   1.939   .     S
O346   Zn415   1.939   .     S
O347   Zn410   1.938   .     S
O347   Zn414   1.938   .     S
O347   Zn422   1.938   .     S
O347   Zn842   1.938   1_545 S
O348   Zn204   1.939   1_655 S
O349   Zn413   1.939   .     S
O350   Zn838   1.939   .     S
O351   Zn199   1.939   1_655 S
O352   Zn412   1.939   .     S
O353   Zn848   1.939   .     S
O354   Zn410   1.939   .     S
O355   Zn423   1.939   .     S
O356   Zn422   1.939   .     S
O357   Zn417   1.939   .     S
O358   Zn413   1.938   .     S
O358   Zn419   1.938   .     S
O358   Zn424   1.938   .     S
O358   Zn847   1.938   1_545 S
O359   Zn409   1.939   .     S
O360   Zn419   1.939   .     S
O361   Zn418   1.939   .     S
O362   Zn421   1.939   .     S
O363   Zn420   1.939   .     S
O364   Zn422   1.939   .     S
O365   Zn423   1.939   .     S
O366   Zn420   1.939   .     S
O367   Zn421   1.939   .     S
O368   Zn418   1.939   .     S
O369   Zn412   1.917   .     S
O370   Zn419   1.939   .     S
O371   Zn409   1.939   .     S
O372   Zn417   1.939   .     S
O380   Zn411   1.917   .     S
O391   C639    1.278   1_545 A
O391   Zn414   1.917   .     S
O402   Zn413   1.917   .     S
O408   Zn416   1.917   .     S
Zn410  O764    1.939   1_545 S
Zn413  O769    1.939   1_545 S
Zn414  O774    1.939   1_545 S
Zn417  O124    1.938   1_655 S
Zn418  O771    1.938   .     S
Zn420  O113    1.938   1_655 S
Zn423  O782    1.938   .     S
Zn424  O777    1.939   1_545 S
C425   C432    1.418   .     S
C425   C648    1.196   1_454 S
C426   C491    1.418   .     S
C426   O750    1.278   .     S
C426   O804    1.278   .     S
C427   C480    1.418   .     S
C427   O179    1.278   1_565 A
C427   O115    1.278   1_565 A
C428   O540    1.278   .     S
C428   O614    1.278   .     S
C429   C458    1.418   .     S
C429   O541    1.278   .     S
C430   O546    1.278   .     A
C430   C447    1.418   .     S
C431   C648    1.418   1_455 S
C431   O759    1.278   1_455 A
C431   O543    1.278   .     S
C432   O549    1.278   .     A
C432   O756    1.278   1_455 S
C433   C493    1.460   .     S
C433   O583    1.277   .     A
C433   O550    1.276   .     A
C434   O584    1.276   .     A
C434   C494    1.460   .     S
C434   O551    1.277   .     A
C435   C486    1.460   .     S
C435   O580    1.277   .     A
C435   O552    1.276   .     A
C436   C643    1.418   .     S
C436   C637    1.196   1_556 S
C437   C487    1.460   .     S
C437   O582    1.277   .     A
C437   O553    1.276   .     A
C438   O578    1.276   .     A
C438   C488    1.460   .     S
C438   O554    1.277   .     A
C439   C489    1.460   .     S
C439   O579    1.277   .     A
C439   O555    1.276   .     A
C440   O576    1.276   .     A
C440   O556    1.277   .     A
C440   C490    1.460   .     S
C441   O577    1.276   .     A
C441   O557    1.277   .     A
C441   C492    1.460   .     S
C442   C501    1.460   .     S
C442   O574    1.277   .     A
C442   O558    1.276   .     A
C443   O560    1.276   .     A
C443   O575    1.277   .     A
C443   C503    1.460   .     S
C444   O572    1.276   .     A
C444   C495    1.460   .     S
C444   O561    1.277   .     A
C445   O573    1.277   .     A
C445   O562    1.276   .     A
C445   C496    1.460   .     S
C446   O569    1.276   .     A
C446   O563    1.277   .     A
C446   C497    1.460   .     S
C447   C458    1.196   1_554 S
C448   O571    1.276   .     A
C448   O564    1.277   .     A
C448   C498    1.460   .     S
C449   O567    1.277   .     A
C449   O565    1.276   .     A
C449   C499    1.460   .     S
C450   C500    1.460   .     S
C450   O568    1.276   .     A
C450   O566    1.277   .     A
C451   C498    1.407   .     A
C451   O585    1.382   .     S
C451   C463    1.410   .     A
C452   C497    1.407   .     A
C452   O586    1.382   .     S
C452   C462    1.410   .     A
C453   O587    1.383   .     S
C453   C496    1.406   .     A
C453   C461    1.410   .     A
C454   O588    1.382   .     S
C454   C495    1.407   .     A
C454   C460    1.410   .     A
C455   C467    1.410   .     A
C455   O589    1.383   .     S
C455   C503    1.406   .     A
C456   O590    1.383   .     S
C456   C501    1.406   .     A
C456   C466    1.410   .     A
C457   O591    1.382   .     S
C457   C500    1.407   .     A
C457   C465    1.410   .     A
C458   C447    1.196   1_556 S
C459   C499    1.406   .     A
C459   O593    1.383   .     S
C459   C464    1.410   .     A
C460   C489    1.406   .     A
C460   O594    1.383   .     S
C461   C488    1.407   .     A
C461   O595    1.382   .     S
C462   O596    1.383   .     S
C462   C487    1.406   .     A
C463   O597    1.383   .     S
C463   C486    1.406   .     A
C464   C494    1.407   .     A
C464   O598    1.382   .     S
C465   C493    1.406   .     A
C465   O599    1.383   .     S
C466   C492    1.407   .     A
C466   O600    1.382   .     S
C467   O601    1.382   .     S
C467   C490    1.407   .     A
C468   C487    1.407   .     A
C468   O602    1.382   .     S
C468   C481    1.410   .     A
C469   C480    1.196   .     T
C469   C4      1.418   1_565 S
C470   C486    1.407   .     A
C470   C479    1.410   .     A
C470   O604    1.382   .     S
C471   O605    1.382   .     S
C471   C478    1.410   .     A
C471   C489    1.407   .     A
C472   C488    1.406   .     A
C472   C477    1.410   .     A
C472   O606    1.383   .     S
C473   C492    1.406   .     A
C473   O607    1.383   .     S
C473   C485    1.410   .     A
C474   O608    1.383   .     S
C474   C490    1.406   .     A
C474   C484    1.410   .     A
C475   C494    1.406   .     A
C475   O609    1.383   .     S
C475   C483    1.410   .     A
C476   C493    1.407   .     A
C476   O610    1.382   .     S
C476   C482    1.410   .     A
C477   O611    1.382   .     S
C477   C496    1.407   .     A
C478   C495    1.406   .     A
C478   O612    1.383   .     S
C479   O613    1.383   .     S
C479   C498    1.406   .     A
C481   O615    1.383   .     S
C481   C497    1.406   .     A
C482   C500    1.406   .     A
C482   O616    1.383   .     S
C483   O617    1.382   .     S
C483   C499    1.407   .     A
C484   C503    1.407   .     A
C484   O618    1.382   .     S
C485   C501    1.407   .     A
C485   O619    1.382   .     S
C491   C502    1.196   .     T
C502   C716    1.418   .     S
C504   C714    1.418   1_455 S
C504   O581    1.278   .     S
C504   O620    1.278   .     S
H505   O585    0.991   .     S
H506   O595    0.991   .     S
H507   O596    0.990   .     S
H508   O597    0.990   .     S
H509   O598    0.991   .     S
H510   O599    0.990   .     S
H511   O600    0.991   .     S
H512   O601    0.990   .     S
H513   O602    0.991   .     S
H514   O604    0.991   .     S
H515   O605    0.991   .     S
H516   O586    0.991   .     S
H517   O606    0.990   .     S
H518   O607    0.990   .     S
H519   O608    0.990   .     S
H520   O609    0.990   .     S
H521   O610    0.990   .     S
H522   O611    0.991   .     S
H523   O612    0.990   .     S
H524   O613    0.990   .     S
H525   O615    0.990   .     S
H526   O616    0.990   .     S
H527   O587    0.990   .     S
H528   O617    0.991   .     S
H529   O618    0.990   .     S
H530   O619    0.991   .     S
H531   O588    0.991   .     S
H532   O589    0.990   .     S
H533   O590    0.990   .     S
H534   O591    0.990   .     S
H535   O593    0.990   .     S
H536   O594    0.990   .     S
O537   Zn628   1.938   .     S
O537   Zn624   1.938   .     S
O537   Zn621   1.938   .     S
O537   Zn844   1.938   1_455 S
O538   Zn627   1.917   .     S
O538   C638    1.278   1_455 S
O539   Zn622   1.917   .     S
O540   Zn636   1.917   .     S
O541   Zn631   1.917   .     S
O542   Zn630   1.917   .     S
O542   C6      1.278   1_565 S
O543   Zn633   1.917   .     S
O544   Zn632   1.917   .     S
O544   C644    1.278   .     S
O545   C5      1.278   1_565 A
O545   Zn635   1.917   .     S
O546   Zn634   1.917   .     S
O547   Zn629   1.917   .     S
O547   C643    1.278   .     A
O548   Zn623   1.938   .     S
O548   Zn633   1.938   .     S
O548   Zn627   1.938   .     S
O548   Zn841   1.938   1_455 S
O549   Zn621   1.917   .     S
O550   Zn628   1.939   .     S
O551   Zn839   1.939   .     S
O552   Zn198   1.939   1_565 S
O553   Zn636   1.939   .     S
O554   Zn836   1.939   .     S
O555   Zn623   1.939   .     S
O556   Zn626   1.939   .     S
O557   Zn201   1.939   1_565 S
O558   Zn627   1.939   .     S
O559   Zn622   1.938   .     S
O559   Zn626   1.938   .     S
O559   Zn634   1.938   .     S
O560   Zn840   1.939   .     S
O561   Zn625   1.939   .     S
O562   Zn202   1.939   1_565 S
O563   Zn835   1.939   .     S
O564   Zn624   1.939   .     S
O565   Zn212   1.939   1_565 S
O566   Zn622   1.939   .     S
O567   Zn635   1.939   .     S
O568   Zn634   1.939   .     S
O569   Zn629   1.939   .     S
O570   Zn625   1.938   .     S
O570   Zn631   1.938   .     S
O570   Zn636   1.938   .     S
O571   Zn621   1.939   .     S
O572   Zn631   1.939   .     S
O573   Zn630   1.939   .     S
O574   Zn633   1.939   .     S
O575   Zn632   1.939   .     S
O576   Zn634   1.939   .     S
O577   Zn635   1.939   .     S
O578   Zn632   1.939   .     S
O579   Zn633   1.939   .     S
O580   Zn630   1.939   .     S
O581   Zn624   1.917   .     S
O582   Zn631   1.939   .     S
O583   Zn621   1.939   .     S
O584   Zn629   1.939   .     S
O592   Zn623   1.917   .     S
O592   C638    1.278   1_455 S
O603   Zn626   1.917   .     S
O614   Zn625   1.917   .     S
O620   Zn628   1.917   .     S
Zn623  O775    1.939   1_455 S
Zn624  O766    1.939   1_455 S
Zn627  O763    1.939   1_455 S
Zn628  O772    1.939   1_455 S
Zn629  O760    1.938   .     S
Zn630  O135    1.938   1_565 S
Zn632  O749    1.938   .     S
Zn635  O146    1.938   1_565 S
C637   C644    1.418   .     S
C637   C436    1.196   1_554 S
C638   C703    1.418   .     S
C638   O538    1.278   1_655 S
C638   O592    1.278   1_655 S
C639   C692    1.418   .     S
C639   O391    1.278   1_565 A
C639   O327    1.278   1_565 A
C640   O752    1.278   .     S
C640   O826    1.278   .     S
C641   C670    1.418   .     S
C641   O753    1.278   .     S
C642   O758    1.278   .     A
C642   C659    1.418   .     S
C643   O755    1.278   .     S
C644   O761    1.278   .     A
C645   C705    1.460   .     S
C645   O795    1.277   .     A
C645   O762    1.276   .     A
C646   O796    1.276   .     A
C646   C706    1.460   .     S
C646   O763    1.277   .     A
C647   C698    1.460   .     S
C647   O792    1.277   .     A
C647   O764    1.276   .     A
C648   C431    1.418   1_655 S
C648   C425    1.196   1_656 S
C649   C699    1.460   .     S
C649   O794    1.277   .     A
C649   O765    1.276   .     A
C650   O790    1.276   .     A
C650   C700    1.460   .     S
C650   O766    1.277   .     A
C651   C701    1.460   .     S
C651   O791    1.277   .     A
C651   O767    1.276   .     A
C652   O788    1.276   .     A
C652   O768    1.277   .     A
C652   C702    1.460   .     S
C653   O789    1.276   .     A
C653   O769    1.277   .     A
C653   C704    1.460   .     S
C654   C713    1.460   .     S
C654   O786    1.277   .     A
C654   O770    1.276   .     A
C655   O772    1.276   .     A
C655   O787    1.277   .     A
C655   C715    1.460   .     S
C656   O784    1.276   .     A
C656   C707    1.460   .     S
C656   O773    1.277   .     A
C657   O785    1.277   .     A
C657   O774    1.276   .     A
C657   C708    1.460   .     S
C658   O781    1.276   .     A
C658   O775    1.277   .     A
C658   C709    1.460   .     S
C659   C670    1.196   1_554 S
C660   O783    1.276   .     A
C660   O776    1.277   .     A
C660   C710    1.460   .     S
C661   O779    1.277   .     A
C661   O777    1.276   .     A
C661   C711    1.460   .     S
C662   C712    1.460   .     S
C662   O780    1.276   .     A
C662   O778    1.277   .     A
C663   C710    1.407   .     A
C663   O797    1.382   .     S
C663   C675    1.410   .     A
C664   C709    1.407   .     A
C664   O798    1.382   .     S
C664   C674    1.410   .     A
C665   O799    1.383   .     S
C665   C708    1.406   .     A
C665   C673    1.410   .     A
C666   O800    1.382   .     S
C666   C707    1.407   .     A
C666   C672    1.410   .     A
C667   C679    1.410   .     A
C667   O801    1.383   .     S
C667   C715    1.406   .     A
C668   O802    1.383   .     S
C668   C713    1.406   .     A
C668   C678    1.410   .     A
C669   O803    1.382   .     S
C669   C712    1.407   .     A
C669   C677    1.410   .     A
C670   C659    1.196   1_556 S
C671   C711    1.406   .     A
C671   O805    1.383   .     S
C671   C676    1.410   .     A
C672   C701    1.406   .     A
C672   O806    1.383   .     S
C673   C700    1.407   .     A
C673   O807    1.382   .     S
C674   O808    1.383   .     S
C674   C699    1.406   .     A
C675   O809    1.383   .     S
C675   C698    1.406   .     A
C676   C706    1.407   .     A
C676   O810    1.382   .     S
C677   C705    1.406   .     A
C677   O811    1.383   .     S
C678   C704    1.407   .     A
C678   O812    1.382   .     S
C679   O813    1.382   .     S
C679   C702    1.407   .     A
C680   C699    1.407   .     A
C680   O814    1.382   .     S
C680   C693    1.410   .     A
C681   C692    1.196   .     T
C681   C216    1.418   1_565 S
C682   C698    1.407   .     A
C682   C691    1.410   .     A
C682   O816    1.382   .     S
C683   O817    1.382   .     S
C683   C690    1.410   .     A
C683   C701    1.407   .     A
C684   C700    1.406   .     A
C684   C689    1.410   .     A
C684   O818    1.383   .     S
C685   C704    1.406   .     A
C685   O819    1.383   .     S
C685   C697    1.410   .     A
C686   O820    1.383   .     S
C686   C702    1.406   .     A
C686   C696    1.410   .     A
C687   C706    1.406   .     A
C687   O821    1.383   .     S
C687   C695    1.410   .     A
C688   C705    1.407   .     A
C688   O822    1.382   .     S
C688   C694    1.410   .     A
C689   O823    1.382   .     S
C689   C708    1.407   .     A
C690   C707    1.406   .     A
C690   O824    1.383   .     S
C691   O825    1.383   .     S
C691   C710    1.406   .     A
C693   O827    1.383   .     S
C693   C709    1.406   .     A
C694   C712    1.406   .     A
C694   O828    1.383   .     S
C695   O829    1.382   .     S
C695   C711    1.407   .     A
C696   C715    1.407   .     A
C696   O830    1.382   .     S
C697   C713    1.407   .     A
C697   O831    1.382   .     S
C703   C714    1.196   .     T
C714   C504    1.418   1_655 S
C716   O793    1.278   .     S
C716   O832    1.278   .     S
H717   O797    0.991   .     S
H718   O807    0.991   .     S
H719   O808    0.990   .     S
H720   O809    0.990   .     S
H721   O810    0.991   .     S
H722   O811    0.990   .     S
H723   O812    0.991   .     S
H724   O813    0.990   .     S
H725   O814    0.991   .     S
H726   O816    0.991   .     S
H727   O817    0.991   .     S
H728   O798    0.991   .     S
H729   O818    0.990   .     S
H730   O819    0.990   .     S
H731   O820    0.990   .     S
H732   O821    0.990   .     S
H733   O822    0.990   .     S
H734   O823    0.991   .     S
H735   O824    0.990   .     S
H736   O825    0.990   .     S
H737   O827    0.990   .     S
H738   O828    0.990   .     S
H739   O799    0.990   .     S
H740   O829    0.991   .     S
H741   O830    0.990   .     S
H742   O831    0.991   .     S
H743   O800    0.991   .     S
H744   O801    0.990   .     S
H745   O802    0.990   .     S
H746   O803    0.990   .     S
H747   O805    0.990   .     S
H748   O806    0.990   .     S
O749   Zn840   1.938   .     S
O749   Zn836   1.938   .     S
O749   Zn833   1.938   .     S
O750   Zn839   1.917   .     S
O751   Zn834   1.917   .     S
O752   Zn848   1.917   .     S
O753   Zn843   1.917   .     S
O754   Zn842   1.917   .     S
O754   C218    1.278   1_565 S
O755   Zn845   1.917   .     S
O756   Zn844   1.917   .     S
O756   C432    1.278   1_655 S
O757   C217    1.278   1_565 A
O757   Zn847   1.917   .     S
O758   Zn846   1.917   .     S
O759   Zn841   1.917   .     S
O759   C431    1.278   1_655 A
O760   Zn835   1.938   .     S
O760   Zn845   1.938   .     S
O760   Zn839   1.938   .     S
O761   Zn833   1.917   .     S
O762   Zn840   1.939   .     S
O763   Zn627   1.939   1_655 S
O764   Zn410   1.939   1_565 S
O765   Zn848   1.939   .     S
O766   Zn624   1.939   1_655 S
O767   Zn835   1.939   .     S
O768   Zn838   1.939   .     S
O769   Zn413   1.939   1_565 S
O770   Zn839   1.939   .     S
O771   Zn834   1.938   .     S
O771   Zn838   1.938   .     S
O771   Zn846   1.938   .     S
O772   Zn628   1.939   1_655 S
O773   Zn837   1.939   .     S
O774   Zn414   1.939   1_565 S
O775   Zn623   1.939   1_655 S
O776   Zn836   1.939   .     S
O777   Zn424   1.939   1_565 S
O778   Zn834   1.939   .     S
O779   Zn847   1.939   .     S
O780   Zn846   1.939   .     S
O781   Zn841   1.939   .     S
O782   Zn837   1.938   .     S
O782   Zn843   1.938   .     S
O782   Zn848   1.938   .     S
O783   Zn833   1.939   .     S
O784   Zn843   1.939   .     S
O785   Zn842   1.939   .     S
O786   Zn845   1.939   .     S
O787   Zn844   1.939   .     S
O788   Zn846   1.939   .     S
O789   Zn847   1.939   .     S
O790   Zn844   1.939   .     S
O791   Zn845   1.939   .     S
O792   Zn842   1.939   .     S
O793   Zn836   1.917   .     S
O794   Zn843   1.939   .     S
O795   Zn833   1.939   .     S
O796   Zn841   1.939   .     S
O804   Zn835   1.917   .     S
O815   Zn838   1.917   .     S
O826   Zn837   1.917   .     S
O832   Zn840   1.917   .     S
Zn841  O548    1.938   1_655 S
Zn842  O347    1.938   1_565 S
Zn844  O537    1.938   1_655 S
Zn847  O358    1.938   1_565 S
