data_str_m3_o2_o10_pcu_sym.198
_audit_creation_date              2020-01-03
_audit_creation_method            'Materials Studio'
_symmetry_space_group_name_H-M    'P1'
_symmetry_Int_Tables_number       1
_symmetry_cell_setting            triclinic
loop_
_symmetry_equiv_pos_as_xyz
  x,y,z
_cell_length_a                    25.8575
_cell_length_b                    29.8726
_cell_length_c                    28.3413
_cell_angle_alpha                 89.5012
_cell_angle_beta                  97.8369
_cell_angle_gamma                 90.1495
loop_
_atom_site_label
_atom_site_type_symbol
_atom_site_fract_x
_atom_site_fract_y
_atom_site_fract_z
_atom_site_U_iso_or_equiv
_atom_site_adp_type
_atom_site_occupancy
C1     C     0.16490   0.16401   0.25000   0.00000  Uiso   1.00
C2     C     0.16515   0.33606   0.24956   0.00000  Uiso   1.00
C3     C     0.14412   0.21463   0.05013   0.00000  Uiso   1.00
C4     C     0.20721   0.27040   0.45223   0.00000  Uiso   1.00
C5     C     0.14441   0.21535   0.09978   0.00000  Uiso   1.00
C6     C     0.20638   0.27013   0.40251   0.00000  Uiso   1.00
C7     C     0.18887   0.28467   0.10471   0.00000  Uiso   1.00
C8     C     0.12694   0.22988   0.39297   0.00000  Uiso   1.00
C9     C     0.18912   0.28544   0.05511   0.00000  Uiso   1.00
C10    C     0.12603   0.22968   0.44248   0.00000  Uiso   1.00
C11    C     0.16661   0.25005   0.02667   0.00000  Uiso   1.00
C12    C     0.16661   0.25005   0.47330   0.00000  Uiso   1.00
C13    C     0.06730   0.24913   0.23806   0.00000  Uiso   1.00
C14    C     0.26603   0.25096   0.26193   0.00000  Uiso   1.00
C15    C     0.01348   0.24059   0.23379   0.00000  Uiso   1.00
C16    C     0.31986   0.25946   0.26624   0.00000  Uiso   1.00
C17    C     0.11963   0.04752   0.27358   0.00000  Uiso   1.00
C18    C     0.12127   0.45288   0.21445   0.00000  Uiso   1.00
C19    C     0.11992   0.09466   0.27168   0.00000  Uiso   1.00
C20    C     0.12273   0.40571   0.21495   0.00000  Uiso   1.00
C21    C     0.15960   0.11625   0.24992   0.00000  Uiso   1.00
C22    C     0.16038   0.38396   0.24836   0.00000  Uiso   1.00
C23    C     0.19566   0.09217   0.22805   0.00000  Uiso   1.00
C24    C     0.19370   0.40782   0.28190   0.00000  Uiso   1.00
C25    C     0.19381   0.04623   0.22814   0.00000  Uiso   1.00
C26    C     0.19139   0.45372   0.28213   0.00000  Uiso   1.00
C27    C     0.15634   0.02419   0.25064   0.00000  Uiso   1.00
C28    C     0.15586   0.47604   0.24878   0.00000  Uiso   1.00
H29    H     0.22175   0.02764   0.21080   0.00000  Uiso   1.00
H30    H     0.21762   0.47210   0.30819   0.00000  Uiso   1.00
H31    H     0.12699   0.18611   0.03050   0.00000  Uiso   1.00
H32    H     0.23995   0.28593   0.47392   0.00000  Uiso   1.00
H33    H     0.12686   0.18798   0.11718   0.00000  Uiso   1.00
H34    H     0.23777   0.28596   0.38690   0.00000  Uiso   1.00
H35    H     0.20636   0.31204   0.12602   0.00000  Uiso   1.00
H36    H     0.09562   0.21397   0.36983   0.00000  Uiso   1.00
H37    H     0.20622   0.31398   0.03924   0.00000  Uiso   1.00
H38    H     0.09328   0.21415   0.45628   0.00000  Uiso   1.00
N39    N     0.16667   0.24999   0.12623   0.00000  Uiso   1.00
N40    N     0.16667   0.25001   0.37377   0.00000  Uiso   1.00
O41    O     0.16667   0.18453   0.28974   0.00000  Uiso   1.00
O42    O     0.16666   0.31546   0.21026   0.00000  Uiso   1.00
O43    O     0.16667   0.18453   0.21026   0.00000  Uiso   1.00
O44    O     0.16666   0.31547   0.28974   0.00000  Uiso   1.00
O45    O     0.09058   0.25000   0.28044   0.00000  Uiso   1.00
O46    O     0.24275   0.25000   0.21955   0.00000  Uiso   1.00
O47    O     0.09058   0.24999   0.20096   0.00000  Uiso   1.00
O48    O     0.24275   0.25000   0.29903   0.00000  Uiso   1.00
Zn49   Zn    0.16667   0.25000   0.30307   0.00000  Uiso   1.00
Zn50   Zn    0.16667   0.24999   0.19693   0.00000  Uiso   1.00
C51    C     0.32595   0.20417   0.19884   0.00000  Uiso   1.00
H52    H     0.02481   0.18539   0.18577   0.00000  Uiso   1.00
H53    H     0.30271   0.17925   0.21636   0.00000  Uiso   1.00
H54    H     0.30186   0.21916   0.16725   0.00000  Uiso   1.00
C55    C     0.00743   0.29576   0.30131   0.00000  Uiso   1.00
H56    H     0.30858   0.31461   0.31435   0.00000  Uiso   1.00
H57    H     0.03131   0.28064   0.33292   0.00000  Uiso   1.00
H58    H     0.03089   0.32064   0.28396   0.00000  Uiso   1.00
C59    C     0.08105   0.02139   0.29898   0.00000  Uiso   1.00
H60    H     0.05380   0.00261   0.27261   0.00000  Uiso   1.00
H61    H     0.10244   0.49726   0.32451   0.00000  Uiso   1.00
H62    H     0.05757   0.04249   0.31990   0.00000  Uiso   1.00
C63    C     0.08408   0.47794   0.17739   0.00000  Uiso   1.00
H64    H     0.09005   0.01466   0.17789   0.00000  Uiso   1.00
H65    H     0.08960   0.46664   0.14119   0.00000  Uiso   1.00
H66    H     0.04318   0.47163   0.18349   0.00000  Uiso   1.00
C67    C     0.07685   0.12100   0.29012   0.00000  Uiso   1.00
H68    H     0.07589   0.15671   0.27943   0.00000  Uiso   1.00
H69    H     0.03818   0.10730   0.27508   0.00000  Uiso   1.00
H70    H     0.08149   0.11900   0.32961   0.00000  Uiso   1.00
C71    C     0.08437   0.37830   0.18141   0.00000  Uiso   1.00
H72    H     0.10482   0.36292   0.15364   0.00000  Uiso   1.00
H73    H     0.06689   0.35156   0.20169   0.00000  Uiso   1.00
H74    H     0.05125   0.39793   0.16307   0.00000  Uiso   1.00
H75    H     0.22561   0.10906   0.21123   0.00000  Uiso   1.00
H76    H     0.22203   0.39080   0.30760   0.00000  Uiso   1.00
C77    C     0.49824   0.16401   0.25000   0.00000  Uiso   1.00
C78    C     0.49848   0.33606   0.24956   0.00000  Uiso   1.00
C79    C     0.47745   0.21463   0.05013   0.00000  Uiso   1.00
C80    C     0.54055   0.27040   0.45223   0.00000  Uiso   1.00
C81    C     0.47774   0.21535   0.09978   0.00000  Uiso   1.00
C82    C     0.53972   0.27013   0.40251   0.00000  Uiso   1.00
C83    C     0.52221   0.28467   0.10471   0.00000  Uiso   1.00
C84    C     0.46027   0.22988   0.39297   0.00000  Uiso   1.00
C85    C     0.52246   0.28544   0.05511   0.00000  Uiso   1.00
C86    C     0.45936   0.22968   0.44248   0.00000  Uiso   1.00
C87    C     0.49995   0.25005   0.02667   0.00000  Uiso   1.00
C88    C     0.49994   0.25005   0.47330   0.00000  Uiso   1.00
C89    C     0.40063   0.24913   0.23806   0.00000  Uiso   1.00
C90    C     0.59936   0.25096   0.26193   0.00000  Uiso   1.00
C91    C     0.34682   0.24059   0.23379   0.00000  Uiso   1.00
C92    C     0.65319   0.25946   0.26624   0.00000  Uiso   1.00
C93    C     0.45296   0.04752   0.27358   0.00000  Uiso   1.00
C94    C     0.45460   0.45288   0.21445   0.00000  Uiso   1.00
C95    C     0.45326   0.09466   0.27168   0.00000  Uiso   1.00
C96    C     0.45606   0.40571   0.21495   0.00000  Uiso   1.00
C97    C     0.49293   0.11625   0.24992   0.00000  Uiso   1.00
C98    C     0.49371   0.38396   0.24836   0.00000  Uiso   1.00
C99    C     0.52899   0.09217   0.22805   0.00000  Uiso   1.00
C100   C     0.52704   0.40782   0.28190   0.00000  Uiso   1.00
C101   C     0.52714   0.04623   0.22814   0.00000  Uiso   1.00
C102   C     0.52472   0.45372   0.28213   0.00000  Uiso   1.00
C103   C     0.48967   0.02419   0.25064   0.00000  Uiso   1.00
C104   C     0.48920   0.47604   0.24878   0.00000  Uiso   1.00
H105   H     0.55508   0.02764   0.21080   0.00000  Uiso   1.00
H106   H     0.55096   0.47210   0.30819   0.00000  Uiso   1.00
H107   H     0.46033   0.18611   0.03050   0.00000  Uiso   1.00
H108   H     0.57328   0.28593   0.47392   0.00000  Uiso   1.00
H109   H     0.46020   0.18798   0.11718   0.00000  Uiso   1.00
H110   H     0.57110   0.28596   0.38690   0.00000  Uiso   1.00
H111   H     0.53969   0.31204   0.12602   0.00000  Uiso   1.00
H112   H     0.42895   0.21397   0.36983   0.00000  Uiso   1.00
H113   H     0.53956   0.31398   0.03924   0.00000  Uiso   1.00
H114   H     0.42661   0.21415   0.45628   0.00000  Uiso   1.00
N115   N     0.50000   0.24999   0.12623   0.00000  Uiso   1.00
N116   N     0.50000   0.25001   0.37377   0.00000  Uiso   1.00
O117   O     0.50000   0.18453   0.28974   0.00000  Uiso   1.00
O118   O     0.50000   0.31546   0.21026   0.00000  Uiso   1.00
O119   O     0.50000   0.18453   0.21026   0.00000  Uiso   1.00
O120   O     0.50000   0.31547   0.28974   0.00000  Uiso   1.00
O121   O     0.42392   0.25000   0.28044   0.00000  Uiso   1.00
O122   O     0.57608   0.25000   0.21955   0.00000  Uiso   1.00
O123   O     0.42392   0.24999   0.20096   0.00000  Uiso   1.00
O124   O     0.57608   0.25000   0.29903   0.00000  Uiso   1.00
Zn125  Zn    0.50000   0.25000   0.30307   0.00000  Uiso   1.00
Zn126  Zn    0.50000   0.24999   0.19693   0.00000  Uiso   1.00
C127   C     0.65928   0.20417   0.19884   0.00000  Uiso   1.00
H128   H     0.35815   0.18539   0.18577   0.00000  Uiso   1.00
H129   H     0.63604   0.17925   0.21636   0.00000  Uiso   1.00
H130   H     0.63520   0.21916   0.16725   0.00000  Uiso   1.00
C131   C     0.34077   0.29576   0.30131   0.00000  Uiso   1.00
H132   H     0.64192   0.31461   0.31435   0.00000  Uiso   1.00
H133   H     0.36465   0.28064   0.33292   0.00000  Uiso   1.00
H134   H     0.36422   0.32064   0.28396   0.00000  Uiso   1.00
C135   C     0.41439   0.02139   0.29898   0.00000  Uiso   1.00
H136   H     0.38713   0.00261   0.27261   0.00000  Uiso   1.00
H137   H     0.43578   0.49726   0.32451   0.00000  Uiso   1.00
H138   H     0.39091   0.04249   0.31990   0.00000  Uiso   1.00
C139   C     0.41741   0.47794   0.17739   0.00000  Uiso   1.00
H140   H     0.42338   0.01466   0.17789   0.00000  Uiso   1.00
H141   H     0.42294   0.46664   0.14119   0.00000  Uiso   1.00
H142   H     0.37651   0.47163   0.18349   0.00000  Uiso   1.00
C143   C     0.41019   0.12100   0.29012   0.00000  Uiso   1.00
H144   H     0.40923   0.15671   0.27943   0.00000  Uiso   1.00
H145   H     0.37151   0.10730   0.27508   0.00000  Uiso   1.00
H146   H     0.41482   0.11900   0.32961   0.00000  Uiso   1.00
C147   C     0.41770   0.37830   0.18141   0.00000  Uiso   1.00
H148   H     0.43815   0.36292   0.15364   0.00000  Uiso   1.00
H149   H     0.40022   0.35156   0.20169   0.00000  Uiso   1.00
H150   H     0.38459   0.39793   0.16307   0.00000  Uiso   1.00
H151   H     0.55894   0.10906   0.21123   0.00000  Uiso   1.00
H152   H     0.55536   0.39080   0.30760   0.00000  Uiso   1.00
C153   C     0.83157   0.16401   0.25000   0.00000  Uiso   1.00
C154   C     0.83182   0.33606   0.24956   0.00000  Uiso   1.00
C155   C     0.81079   0.21463   0.05013   0.00000  Uiso   1.00
C156   C     0.87388   0.27040   0.45223   0.00000  Uiso   1.00
C157   C     0.81107   0.21535   0.09978   0.00000  Uiso   1.00
C158   C     0.87305   0.27013   0.40251   0.00000  Uiso   1.00
C159   C     0.85554   0.28467   0.10471   0.00000  Uiso   1.00
C160   C     0.79360   0.22988   0.39297   0.00000  Uiso   1.00
C161   C     0.85579   0.28544   0.05511   0.00000  Uiso   1.00
C162   C     0.79270   0.22968   0.44248   0.00000  Uiso   1.00
C163   C     0.83328   0.25005   0.02667   0.00000  Uiso   1.00
C164   C     0.83327   0.25005   0.47330   0.00000  Uiso   1.00
C165   C     0.73397   0.24913   0.23806   0.00000  Uiso   1.00
C166   C     0.93270   0.25096   0.26193   0.00000  Uiso   1.00
C167   C     0.68015   0.24059   0.23379   0.00000  Uiso   1.00
C168   C     0.98653   0.25946   0.26624   0.00000  Uiso   1.00
C169   C     0.78630   0.04752   0.27358   0.00000  Uiso   1.00
C170   C     0.78793   0.45288   0.21445   0.00000  Uiso   1.00
C171   C     0.78659   0.09466   0.27168   0.00000  Uiso   1.00
C172   C     0.78940   0.40571   0.21495   0.00000  Uiso   1.00
C173   C     0.82626   0.11625   0.24992   0.00000  Uiso   1.00
C174   C     0.82705   0.38396   0.24836   0.00000  Uiso   1.00
C175   C     0.86233   0.09217   0.22805   0.00000  Uiso   1.00
C176   C     0.86037   0.40782   0.28190   0.00000  Uiso   1.00
C177   C     0.86048   0.04623   0.22814   0.00000  Uiso   1.00
C178   C     0.85806   0.45372   0.28213   0.00000  Uiso   1.00
C179   C     0.82300   0.02419   0.25064   0.00000  Uiso   1.00
C180   C     0.82253   0.47604   0.24878   0.00000  Uiso   1.00
H181   H     0.88842   0.02764   0.21080   0.00000  Uiso   1.00
H182   H     0.88429   0.47210   0.30819   0.00000  Uiso   1.00
H183   H     0.79366   0.18611   0.03050   0.00000  Uiso   1.00
H184   H     0.90662   0.28593   0.47392   0.00000  Uiso   1.00
H185   H     0.79353   0.18798   0.11718   0.00000  Uiso   1.00
H186   H     0.90443   0.28596   0.38690   0.00000  Uiso   1.00
H187   H     0.87303   0.31204   0.12602   0.00000  Uiso   1.00
H188   H     0.76228   0.21397   0.36983   0.00000  Uiso   1.00
H189   H     0.87289   0.31398   0.03924   0.00000  Uiso   1.00
H190   H     0.75995   0.21415   0.45628   0.00000  Uiso   1.00
N191   N     0.83333   0.24999   0.12623   0.00000  Uiso   1.00
N192   N     0.83333   0.25001   0.37377   0.00000  Uiso   1.00
O193   O     0.83334   0.18453   0.28974   0.00000  Uiso   1.00
O194   O     0.83333   0.31546   0.21026   0.00000  Uiso   1.00
O195   O     0.83334   0.18453   0.21026   0.00000  Uiso   1.00
O196   O     0.83333   0.31547   0.28974   0.00000  Uiso   1.00
O197   O     0.75725   0.25000   0.28044   0.00000  Uiso   1.00
O198   O     0.90942   0.25000   0.21955   0.00000  Uiso   1.00
O199   O     0.75725   0.24999   0.20096   0.00000  Uiso   1.00
O200   O     0.90942   0.25000   0.29903   0.00000  Uiso   1.00
Zn201  Zn    0.83333   0.25000   0.30307   0.00000  Uiso   1.00
Zn202  Zn    0.83333   0.24999   0.19693   0.00000  Uiso   1.00
C203   C     0.99261   0.20417   0.19884   0.00000  Uiso   1.00
H204   H     0.69148   0.18539   0.18577   0.00000  Uiso   1.00
H205   H     0.96937   0.17925   0.21636   0.00000  Uiso   1.00
H206   H     0.96853   0.21916   0.16725   0.00000  Uiso   1.00
C207   C     0.67410   0.29576   0.30131   0.00000  Uiso   1.00
H208   H     0.97525   0.31461   0.31435   0.00000  Uiso   1.00
H209   H     0.69798   0.28064   0.33292   0.00000  Uiso   1.00
H210   H     0.69756   0.32064   0.28396   0.00000  Uiso   1.00
C211   C     0.74772   0.02139   0.29898   0.00000  Uiso   1.00
H212   H     0.72046   0.00261   0.27261   0.00000  Uiso   1.00
H213   H     0.76911   0.49726   0.32451   0.00000  Uiso   1.00
H214   H     0.72424   0.04249   0.31990   0.00000  Uiso   1.00
C215   C     0.75074   0.47794   0.17739   0.00000  Uiso   1.00
H216   H     0.75671   0.01466   0.17789   0.00000  Uiso   1.00
H217   H     0.75627   0.46664   0.14119   0.00000  Uiso   1.00
H218   H     0.70984   0.47163   0.18349   0.00000  Uiso   1.00
C219   C     0.74352   0.12100   0.29012   0.00000  Uiso   1.00
H220   H     0.74256   0.15671   0.27943   0.00000  Uiso   1.00
H221   H     0.70484   0.10730   0.27508   0.00000  Uiso   1.00
H222   H     0.74816   0.11900   0.32961   0.00000  Uiso   1.00
C223   C     0.75104   0.37830   0.18141   0.00000  Uiso   1.00
H224   H     0.77148   0.36292   0.15364   0.00000  Uiso   1.00
H225   H     0.73356   0.35156   0.20169   0.00000  Uiso   1.00
H226   H     0.71792   0.39793   0.16307   0.00000  Uiso   1.00
H227   H     0.89228   0.10906   0.21123   0.00000  Uiso   1.00
H228   H     0.88870   0.39080   0.30760   0.00000  Uiso   1.00
C229   C     0.16490   0.66401   0.25000   0.00000  Uiso   1.00
C230   C     0.16515   0.83606   0.24956   0.00000  Uiso   1.00
C231   C     0.14412   0.71463   0.05013   0.00000  Uiso   1.00
C232   C     0.20721   0.77040   0.45223   0.00000  Uiso   1.00
C233   C     0.14441   0.71535   0.09978   0.00000  Uiso   1.00
C234   C     0.20638   0.77013   0.40251   0.00000  Uiso   1.00
C235   C     0.18887   0.78467   0.10471   0.00000  Uiso   1.00
C236   C     0.12694   0.72988   0.39297   0.00000  Uiso   1.00
C237   C     0.18912   0.78544   0.05511   0.00000  Uiso   1.00
C238   C     0.12603   0.72968   0.44248   0.00000  Uiso   1.00
C239   C     0.16661   0.75005   0.02667   0.00000  Uiso   1.00
C240   C     0.16661   0.75005   0.47330   0.00000  Uiso   1.00
C241   C     0.06730   0.74913   0.23806   0.00000  Uiso   1.00
C242   C     0.26603   0.75096   0.26193   0.00000  Uiso   1.00
C243   C     0.01348   0.74059   0.23379   0.00000  Uiso   1.00
C244   C     0.31986   0.75946   0.26624   0.00000  Uiso   1.00
C245   C     0.11963   0.54752   0.27358   0.00000  Uiso   1.00
C246   C     0.12127   0.95288   0.21445   0.00000  Uiso   1.00
C247   C     0.11992   0.59466   0.27168   0.00000  Uiso   1.00
C248   C     0.12273   0.90571   0.21495   0.00000  Uiso   1.00
C249   C     0.15960   0.61625   0.24992   0.00000  Uiso   1.00
C250   C     0.16038   0.88396   0.24836   0.00000  Uiso   1.00
C251   C     0.19566   0.59217   0.22805   0.00000  Uiso   1.00
C252   C     0.19370   0.90782   0.28190   0.00000  Uiso   1.00
C253   C     0.19381   0.54623   0.22814   0.00000  Uiso   1.00
C254   C     0.19139   0.95372   0.28213   0.00000  Uiso   1.00
C255   C     0.15634   0.52419   0.25064   0.00000  Uiso   1.00
C256   C     0.15586   0.97604   0.24878   0.00000  Uiso   1.00
H257   H     0.22175   0.52764   0.21080   0.00000  Uiso   1.00
H258   H     0.21762   0.97210   0.30819   0.00000  Uiso   1.00
H259   H     0.12699   0.68611   0.03050   0.00000  Uiso   1.00
H260   H     0.23995   0.78593   0.47392   0.00000  Uiso   1.00
H261   H     0.12686   0.68798   0.11718   0.00000  Uiso   1.00
H262   H     0.23777   0.78596   0.38690   0.00000  Uiso   1.00
H263   H     0.20636   0.81204   0.12602   0.00000  Uiso   1.00
H264   H     0.09562   0.71397   0.36983   0.00000  Uiso   1.00
H265   H     0.20622   0.81398   0.03924   0.00000  Uiso   1.00
H266   H     0.09328   0.71415   0.45628   0.00000  Uiso   1.00
N267   N     0.16667   0.74999   0.12623   0.00000  Uiso   1.00
N268   N     0.16667   0.75001   0.37377   0.00000  Uiso   1.00
O269   O     0.16667   0.68453   0.28974   0.00000  Uiso   1.00
O270   O     0.16666   0.81546   0.21026   0.00000  Uiso   1.00
O271   O     0.16667   0.68453   0.21026   0.00000  Uiso   1.00
O272   O     0.16666   0.81547   0.28974   0.00000  Uiso   1.00
O273   O     0.09058   0.75000   0.28044   0.00000  Uiso   1.00
O274   O     0.24275   0.75000   0.21955   0.00000  Uiso   1.00
O275   O     0.09058   0.74999   0.20096   0.00000  Uiso   1.00
O276   O     0.24275   0.75000   0.29903   0.00000  Uiso   1.00
Zn277  Zn    0.16667   0.75000   0.30307   0.00000  Uiso   1.00
Zn278  Zn    0.16667   0.74999   0.19693   0.00000  Uiso   1.00
C279   C     0.32595   0.70417   0.19884   0.00000  Uiso   1.00
H280   H     0.02481   0.68539   0.18577   0.00000  Uiso   1.00
H281   H     0.30271   0.67925   0.21636   0.00000  Uiso   1.00
H282   H     0.30186   0.71916   0.16725   0.00000  Uiso   1.00
C283   C     0.00743   0.79576   0.30131   0.00000  Uiso   1.00
H284   H     0.30858   0.81461   0.31435   0.00000  Uiso   1.00
H285   H     0.03131   0.78064   0.33292   0.00000  Uiso   1.00
H286   H     0.03089   0.82064   0.28396   0.00000  Uiso   1.00
C287   C     0.08105   0.52139   0.29898   0.00000  Uiso   1.00
H288   H     0.05380   0.50261   0.27261   0.00000  Uiso   1.00
H289   H     0.10244   0.99726   0.32451   0.00000  Uiso   1.00
H290   H     0.05757   0.54249   0.31990   0.00000  Uiso   1.00
C291   C     0.08408   0.97794   0.17739   0.00000  Uiso   1.00
H292   H     0.09005   0.51466   0.17789   0.00000  Uiso   1.00
H293   H     0.08960   0.96664   0.14119   0.00000  Uiso   1.00
H294   H     0.04318   0.97163   0.18349   0.00000  Uiso   1.00
C295   C     0.07685   0.62100   0.29012   0.00000  Uiso   1.00
H296   H     0.07589   0.65671   0.27943   0.00000  Uiso   1.00
H297   H     0.03818   0.60730   0.27508   0.00000  Uiso   1.00
H298   H     0.08149   0.61900   0.32961   0.00000  Uiso   1.00
C299   C     0.08437   0.87830   0.18141   0.00000  Uiso   1.00
H300   H     0.10482   0.86292   0.15364   0.00000  Uiso   1.00
H301   H     0.06689   0.85156   0.20169   0.00000  Uiso   1.00
H302   H     0.05125   0.89793   0.16307   0.00000  Uiso   1.00
H303   H     0.22561   0.60906   0.21123   0.00000  Uiso   1.00
H304   H     0.22203   0.89080   0.30760   0.00000  Uiso   1.00
C305   C     0.49824   0.66401   0.25000   0.00000  Uiso   1.00
C306   C     0.49848   0.83606   0.24956   0.00000  Uiso   1.00
C307   C     0.47745   0.71463   0.05013   0.00000  Uiso   1.00
C308   C     0.54055   0.77040   0.45223   0.00000  Uiso   1.00
C309   C     0.47774   0.71535   0.09978   0.00000  Uiso   1.00
C310   C     0.53972   0.77013   0.40251   0.00000  Uiso   1.00
C311   C     0.52221   0.78467   0.10471   0.00000  Uiso   1.00
C312   C     0.46027   0.72988   0.39297   0.00000  Uiso   1.00
C313   C     0.52246   0.78544   0.05511   0.00000  Uiso   1.00
C314   C     0.45936   0.72968   0.44248   0.00000  Uiso   1.00
C315   C     0.49995   0.75005   0.02667   0.00000  Uiso   1.00
C316   C     0.49994   0.75005   0.47330   0.00000  Uiso   1.00
C317   C     0.40063   0.74913   0.23806   0.00000  Uiso   1.00
C318   C     0.59936   0.75096   0.26193   0.00000  Uiso   1.00
C319   C     0.34682   0.74059   0.23379   0.00000  Uiso   1.00
C320   C     0.65319   0.75946   0.26624   0.00000  Uiso   1.00
C321   C     0.45296   0.54752   0.27358   0.00000  Uiso   1.00
C322   C     0.45460   0.95288   0.21445   0.00000  Uiso   1.00
C323   C     0.45326   0.59466   0.27168   0.00000  Uiso   1.00
C324   C     0.45606   0.90571   0.21495   0.00000  Uiso   1.00
C325   C     0.49293   0.61625   0.24992   0.00000  Uiso   1.00
C326   C     0.49371   0.88396   0.24836   0.00000  Uiso   1.00
C327   C     0.52899   0.59217   0.22805   0.00000  Uiso   1.00
C328   C     0.52704   0.90782   0.28190   0.00000  Uiso   1.00
C329   C     0.52714   0.54623   0.22814   0.00000  Uiso   1.00
C330   C     0.52472   0.95372   0.28213   0.00000  Uiso   1.00
C331   C     0.48967   0.52419   0.25064   0.00000  Uiso   1.00
C332   C     0.48920   0.97604   0.24878   0.00000  Uiso   1.00
H333   H     0.55508   0.52764   0.21080   0.00000  Uiso   1.00
H334   H     0.55096   0.97210   0.30819   0.00000  Uiso   1.00
H335   H     0.46033   0.68611   0.03050   0.00000  Uiso   1.00
H336   H     0.57328   0.78593   0.47392   0.00000  Uiso   1.00
H337   H     0.46020   0.68798   0.11718   0.00000  Uiso   1.00
H338   H     0.57110   0.78596   0.38690   0.00000  Uiso   1.00
H339   H     0.53969   0.81204   0.12602   0.00000  Uiso   1.00
H340   H     0.42895   0.71397   0.36983   0.00000  Uiso   1.00
H341   H     0.53956   0.81398   0.03924   0.00000  Uiso   1.00
H342   H     0.42661   0.71415   0.45628   0.00000  Uiso   1.00
N343   N     0.50000   0.74999   0.12623   0.00000  Uiso   1.00
N344   N     0.50000   0.75001   0.37377   0.00000  Uiso   1.00
O345   O     0.50000   0.68453   0.28974   0.00000  Uiso   1.00
O346   O     0.50000   0.81546   0.21026   0.00000  Uiso   1.00
O347   O     0.50000   0.68453   0.21026   0.00000  Uiso   1.00
O348   O     0.50000   0.81547   0.28974   0.00000  Uiso   1.00
O349   O     0.42392   0.75000   0.28044   0.00000  Uiso   1.00
O350   O     0.57608   0.75000   0.21955   0.00000  Uiso   1.00
O351   O     0.42392   0.74999   0.20096   0.00000  Uiso   1.00
O352   O     0.57608   0.75000   0.29903   0.00000  Uiso   1.00
Zn353  Zn    0.50000   0.75000   0.30307   0.00000  Uiso   1.00
Zn354  Zn    0.50000   0.74999   0.19693   0.00000  Uiso   1.00
C355   C     0.65928   0.70417   0.19884   0.00000  Uiso   1.00
H356   H     0.35815   0.68539   0.18577   0.00000  Uiso   1.00
H357   H     0.63604   0.67925   0.21636   0.00000  Uiso   1.00
H358   H     0.63520   0.71916   0.16725   0.00000  Uiso   1.00
C359   C     0.34077   0.79576   0.30131   0.00000  Uiso   1.00
H360   H     0.64192   0.81461   0.31435   0.00000  Uiso   1.00
H361   H     0.36465   0.78064   0.33292   0.00000  Uiso   1.00
H362   H     0.36422   0.82064   0.28396   0.00000  Uiso   1.00
C363   C     0.41439   0.52139   0.29898   0.00000  Uiso   1.00
H364   H     0.38713   0.50261   0.27261   0.00000  Uiso   1.00
H365   H     0.43578   0.99726   0.32451   0.00000  Uiso   1.00
H366   H     0.39091   0.54249   0.31990   0.00000  Uiso   1.00
C367   C     0.41741   0.97794   0.17739   0.00000  Uiso   1.00
H368   H     0.42338   0.51466   0.17789   0.00000  Uiso   1.00
H369   H     0.42294   0.96664   0.14119   0.00000  Uiso   1.00
H370   H     0.37651   0.97163   0.18349   0.00000  Uiso   1.00
C371   C     0.41019   0.62100   0.29012   0.00000  Uiso   1.00
H372   H     0.40923   0.65671   0.27943   0.00000  Uiso   1.00
H373   H     0.37151   0.60730   0.27508   0.00000  Uiso   1.00
H374   H     0.41482   0.61900   0.32961   0.00000  Uiso   1.00
C375   C     0.41770   0.87830   0.18141   0.00000  Uiso   1.00
H376   H     0.43815   0.86292   0.15364   0.00000  Uiso   1.00
H377   H     0.40022   0.85156   0.20169   0.00000  Uiso   1.00
H378   H     0.38459   0.89793   0.16307   0.00000  Uiso   1.00
H379   H     0.55894   0.60906   0.21123   0.00000  Uiso   1.00
H380   H     0.55536   0.89080   0.30760   0.00000  Uiso   1.00
C381   C     0.83157   0.66401   0.25000   0.00000  Uiso   1.00
C382   C     0.83182   0.83606   0.24956   0.00000  Uiso   1.00
C383   C     0.81079   0.71463   0.05013   0.00000  Uiso   1.00
C384   C     0.87388   0.77040   0.45223   0.00000  Uiso   1.00
C385   C     0.81107   0.71535   0.09978   0.00000  Uiso   1.00
C386   C     0.87305   0.77013   0.40251   0.00000  Uiso   1.00
C387   C     0.85554   0.78467   0.10471   0.00000  Uiso   1.00
C388   C     0.79360   0.72988   0.39297   0.00000  Uiso   1.00
C389   C     0.85579   0.78544   0.05511   0.00000  Uiso   1.00
C390   C     0.79270   0.72968   0.44248   0.00000  Uiso   1.00
C391   C     0.83328   0.75005   0.02667   0.00000  Uiso   1.00
C392   C     0.83327   0.75005   0.47330   0.00000  Uiso   1.00
C393   C     0.73397   0.74913   0.23806   0.00000  Uiso   1.00
C394   C     0.93270   0.75096   0.26193   0.00000  Uiso   1.00
C395   C     0.68015   0.74059   0.23379   0.00000  Uiso   1.00
C396   C     0.98653   0.75946   0.26624   0.00000  Uiso   1.00
C397   C     0.78630   0.54752   0.27358   0.00000  Uiso   1.00
C398   C     0.78793   0.95288   0.21445   0.00000  Uiso   1.00
C399   C     0.78659   0.59466   0.27168   0.00000  Uiso   1.00
C400   C     0.78940   0.90571   0.21495   0.00000  Uiso   1.00
C401   C     0.82626   0.61625   0.24992   0.00000  Uiso   1.00
C402   C     0.82705   0.88396   0.24836   0.00000  Uiso   1.00
C403   C     0.86233   0.59217   0.22805   0.00000  Uiso   1.00
C404   C     0.86037   0.90782   0.28190   0.00000  Uiso   1.00
C405   C     0.86048   0.54623   0.22814   0.00000  Uiso   1.00
C406   C     0.85806   0.95372   0.28213   0.00000  Uiso   1.00
C407   C     0.82300   0.52419   0.25064   0.00000  Uiso   1.00
C408   C     0.82253   0.97604   0.24878   0.00000  Uiso   1.00
H409   H     0.88842   0.52764   0.21080   0.00000  Uiso   1.00
H410   H     0.88429   0.97210   0.30819   0.00000  Uiso   1.00
H411   H     0.79366   0.68611   0.03050   0.00000  Uiso   1.00
H412   H     0.90662   0.78593   0.47392   0.00000  Uiso   1.00
H413   H     0.79353   0.68798   0.11718   0.00000  Uiso   1.00
H414   H     0.90443   0.78596   0.38690   0.00000  Uiso   1.00
H415   H     0.87303   0.81204   0.12602   0.00000  Uiso   1.00
H416   H     0.76228   0.71397   0.36983   0.00000  Uiso   1.00
H417   H     0.87289   0.81398   0.03924   0.00000  Uiso   1.00
H418   H     0.75995   0.71415   0.45628   0.00000  Uiso   1.00
N419   N     0.83333   0.74999   0.12623   0.00000  Uiso   1.00
N420   N     0.83333   0.75001   0.37377   0.00000  Uiso   1.00
O421   O     0.83334   0.68453   0.28974   0.00000  Uiso   1.00
O422   O     0.83333   0.81546   0.21026   0.00000  Uiso   1.00
O423   O     0.83334   0.68453   0.21026   0.00000  Uiso   1.00
O424   O     0.83333   0.81547   0.28974   0.00000  Uiso   1.00
O425   O     0.75725   0.75000   0.28044   0.00000  Uiso   1.00
O426   O     0.90942   0.75000   0.21955   0.00000  Uiso   1.00
O427   O     0.75725   0.74999   0.20096   0.00000  Uiso   1.00
O428   O     0.90942   0.75000   0.29903   0.00000  Uiso   1.00
Zn429  Zn    0.83333   0.75000   0.30307   0.00000  Uiso   1.00
Zn430  Zn    0.83333   0.74999   0.19693   0.00000  Uiso   1.00
C431   C     0.99261   0.70417   0.19884   0.00000  Uiso   1.00
H432   H     0.69148   0.68539   0.18577   0.00000  Uiso   1.00
H433   H     0.96937   0.67925   0.21636   0.00000  Uiso   1.00
H434   H     0.96853   0.71916   0.16725   0.00000  Uiso   1.00
C435   C     0.67410   0.79576   0.30131   0.00000  Uiso   1.00
H436   H     0.97525   0.81461   0.31435   0.00000  Uiso   1.00
H437   H     0.69798   0.78064   0.33292   0.00000  Uiso   1.00
H438   H     0.69756   0.82064   0.28396   0.00000  Uiso   1.00
C439   C     0.74772   0.52139   0.29898   0.00000  Uiso   1.00
H440   H     0.72046   0.50261   0.27261   0.00000  Uiso   1.00
H441   H     0.76911   0.99726   0.32451   0.00000  Uiso   1.00
H442   H     0.72424   0.54249   0.31990   0.00000  Uiso   1.00
C443   C     0.75074   0.97794   0.17739   0.00000  Uiso   1.00
H444   H     0.75671   0.51466   0.17789   0.00000  Uiso   1.00
H445   H     0.75627   0.96664   0.14119   0.00000  Uiso   1.00
H446   H     0.70984   0.97163   0.18349   0.00000  Uiso   1.00
C447   C     0.74352   0.62100   0.29012   0.00000  Uiso   1.00
H448   H     0.74256   0.65671   0.27943   0.00000  Uiso   1.00
H449   H     0.70484   0.60730   0.27508   0.00000  Uiso   1.00
H450   H     0.74816   0.61900   0.32961   0.00000  Uiso   1.00
C451   C     0.75104   0.87830   0.18141   0.00000  Uiso   1.00
H452   H     0.77148   0.86292   0.15364   0.00000  Uiso   1.00
H453   H     0.73356   0.85156   0.20169   0.00000  Uiso   1.00
H454   H     0.71792   0.89793   0.16307   0.00000  Uiso   1.00
H455   H     0.89228   0.60906   0.21123   0.00000  Uiso   1.00
H456   H     0.88870   0.89080   0.30760   0.00000  Uiso   1.00
C457   C     0.16490   0.16401   0.75000   0.00000  Uiso   1.00
C458   C     0.16515   0.33606   0.74956   0.00000  Uiso   1.00
C459   C     0.14412   0.21463   0.55013   0.00000  Uiso   1.00
C460   C     0.20721   0.27040   0.95223   0.00000  Uiso   1.00
C461   C     0.14441   0.21535   0.59978   0.00000  Uiso   1.00
C462   C     0.20638   0.27013   0.90251   0.00000  Uiso   1.00
C463   C     0.18887   0.28467   0.60471   0.00000  Uiso   1.00
C464   C     0.12694   0.22988   0.89297   0.00000  Uiso   1.00
C465   C     0.18912   0.28544   0.55511   0.00000  Uiso   1.00
C466   C     0.12603   0.22968   0.94248   0.00000  Uiso   1.00
C467   C     0.16661   0.25005   0.52667   0.00000  Uiso   1.00
C468   C     0.16661   0.25005   0.97330   0.00000  Uiso   1.00
C469   C     0.06730   0.24913   0.73806   0.00000  Uiso   1.00
C470   C     0.26603   0.25096   0.76193   0.00000  Uiso   1.00
C471   C     0.01348   0.24059   0.73379   0.00000  Uiso   1.00
C472   C     0.31986   0.25946   0.76624   0.00000  Uiso   1.00
C473   C     0.11963   0.04752   0.77358   0.00000  Uiso   1.00
C474   C     0.12127   0.45288   0.71445   0.00000  Uiso   1.00
C475   C     0.11992   0.09466   0.77168   0.00000  Uiso   1.00
C476   C     0.12273   0.40571   0.71495   0.00000  Uiso   1.00
C477   C     0.15960   0.11625   0.74992   0.00000  Uiso   1.00
C478   C     0.16038   0.38396   0.74836   0.00000  Uiso   1.00
C479   C     0.19566   0.09217   0.72805   0.00000  Uiso   1.00
C480   C     0.19370   0.40782   0.78190   0.00000  Uiso   1.00
C481   C     0.19381   0.04623   0.72814   0.00000  Uiso   1.00
C482   C     0.19139   0.45372   0.78213   0.00000  Uiso   1.00
C483   C     0.15634   0.02419   0.75064   0.00000  Uiso   1.00
C484   C     0.15586   0.47604   0.74878   0.00000  Uiso   1.00
H485   H     0.22175   0.02764   0.71080   0.00000  Uiso   1.00
H486   H     0.21762   0.47210   0.80819   0.00000  Uiso   1.00
H487   H     0.12699   0.18611   0.53050   0.00000  Uiso   1.00
H488   H     0.23995   0.28593   0.97392   0.00000  Uiso   1.00
H489   H     0.12686   0.18798   0.61718   0.00000  Uiso   1.00
H490   H     0.23777   0.28596   0.88690   0.00000  Uiso   1.00
H491   H     0.20636   0.31204   0.62602   0.00000  Uiso   1.00
H492   H     0.09562   0.21397   0.86983   0.00000  Uiso   1.00
H493   H     0.20622   0.31398   0.53924   0.00000  Uiso   1.00
H494   H     0.09328   0.21415   0.95628   0.00000  Uiso   1.00
N495   N     0.16667   0.24999   0.62623   0.00000  Uiso   1.00
N496   N     0.16667   0.25001   0.87377   0.00000  Uiso   1.00
O497   O     0.16667   0.18453   0.78974   0.00000  Uiso   1.00
O498   O     0.16666   0.31546   0.71026   0.00000  Uiso   1.00
O499   O     0.16667   0.18453   0.71026   0.00000  Uiso   1.00
O500   O     0.16666   0.31547   0.78974   0.00000  Uiso   1.00
O501   O     0.09058   0.25000   0.78044   0.00000  Uiso   1.00
O502   O     0.24275   0.25000   0.71955   0.00000  Uiso   1.00
O503   O     0.09058   0.24999   0.70096   0.00000  Uiso   1.00
O504   O     0.24275   0.25000   0.79903   0.00000  Uiso   1.00
Zn505  Zn    0.16667   0.25000   0.80307   0.00000  Uiso   1.00
Zn506  Zn    0.16667   0.24999   0.69693   0.00000  Uiso   1.00
C507   C     0.32595   0.20417   0.69884   0.00000  Uiso   1.00
H508   H     0.02481   0.18539   0.68577   0.00000  Uiso   1.00
H509   H     0.30271   0.17925   0.71636   0.00000  Uiso   1.00
H510   H     0.30186   0.21916   0.66725   0.00000  Uiso   1.00
C511   C     0.00743   0.29576   0.80131   0.00000  Uiso   1.00
H512   H     0.30858   0.31461   0.81435   0.00000  Uiso   1.00
H513   H     0.03131   0.28064   0.83292   0.00000  Uiso   1.00
H514   H     0.03089   0.32064   0.78396   0.00000  Uiso   1.00
C515   C     0.08105   0.02139   0.79898   0.00000  Uiso   1.00
H516   H     0.05380   0.00261   0.77261   0.00000  Uiso   1.00
H517   H     0.10244   0.49726   0.82451   0.00000  Uiso   1.00
H518   H     0.05757   0.04249   0.81990   0.00000  Uiso   1.00
C519   C     0.08408   0.47794   0.67739   0.00000  Uiso   1.00
H520   H     0.09005   0.01466   0.67789   0.00000  Uiso   1.00
H521   H     0.08960   0.46664   0.64119   0.00000  Uiso   1.00
H522   H     0.04318   0.47163   0.68349   0.00000  Uiso   1.00
C523   C     0.07685   0.12100   0.79012   0.00000  Uiso   1.00
H524   H     0.07589   0.15671   0.77943   0.00000  Uiso   1.00
H525   H     0.03818   0.10730   0.77508   0.00000  Uiso   1.00
H526   H     0.08149   0.11900   0.82961   0.00000  Uiso   1.00
C527   C     0.08437   0.37830   0.68141   0.00000  Uiso   1.00
H528   H     0.10482   0.36292   0.65364   0.00000  Uiso   1.00
H529   H     0.06689   0.35156   0.70169   0.00000  Uiso   1.00
H530   H     0.05125   0.39793   0.66307   0.00000  Uiso   1.00
H531   H     0.22561   0.10906   0.71123   0.00000  Uiso   1.00
H532   H     0.22203   0.39080   0.80760   0.00000  Uiso   1.00
C533   C     0.49824   0.16401   0.75000   0.00000  Uiso   1.00
C534   C     0.49848   0.33606   0.74956   0.00000  Uiso   1.00
C535   C     0.47745   0.21463   0.55013   0.00000  Uiso   1.00
C536   C     0.54055   0.27040   0.95223   0.00000  Uiso   1.00
C537   C     0.47774   0.21535   0.59978   0.00000  Uiso   1.00
C538   C     0.53972   0.27013   0.90251   0.00000  Uiso   1.00
C539   C     0.52221   0.28467   0.60471   0.00000  Uiso   1.00
C540   C     0.46027   0.22988   0.89297   0.00000  Uiso   1.00
C541   C     0.52246   0.28544   0.55511   0.00000  Uiso   1.00
C542   C     0.45936   0.22968   0.94248   0.00000  Uiso   1.00
C543   C     0.49995   0.25005   0.52667   0.00000  Uiso   1.00
C544   C     0.49994   0.25005   0.97330   0.00000  Uiso   1.00
C545   C     0.40063   0.24913   0.73806   0.00000  Uiso   1.00
C546   C     0.59936   0.25096   0.76193   0.00000  Uiso   1.00
C547   C     0.34682   0.24059   0.73379   0.00000  Uiso   1.00
C548   C     0.65319   0.25946   0.76624   0.00000  Uiso   1.00
C549   C     0.45296   0.04752   0.77358   0.00000  Uiso   1.00
C550   C     0.45460   0.45288   0.71445   0.00000  Uiso   1.00
C551   C     0.45326   0.09466   0.77168   0.00000  Uiso   1.00
C552   C     0.45606   0.40571   0.71495   0.00000  Uiso   1.00
C553   C     0.49293   0.11625   0.74992   0.00000  Uiso   1.00
C554   C     0.49371   0.38396   0.74836   0.00000  Uiso   1.00
C555   C     0.52899   0.09217   0.72805   0.00000  Uiso   1.00
C556   C     0.52704   0.40782   0.78190   0.00000  Uiso   1.00
C557   C     0.52714   0.04623   0.72814   0.00000  Uiso   1.00
C558   C     0.52472   0.45372   0.78213   0.00000  Uiso   1.00
C559   C     0.48967   0.02419   0.75064   0.00000  Uiso   1.00
C560   C     0.48920   0.47604   0.74878   0.00000  Uiso   1.00
H561   H     0.55508   0.02764   0.71080   0.00000  Uiso   1.00
H562   H     0.55096   0.47210   0.80819   0.00000  Uiso   1.00
H563   H     0.46033   0.18611   0.53050   0.00000  Uiso   1.00
H564   H     0.57328   0.28593   0.97392   0.00000  Uiso   1.00
H565   H     0.46020   0.18798   0.61718   0.00000  Uiso   1.00
H566   H     0.57110   0.28596   0.88690   0.00000  Uiso   1.00
H567   H     0.53969   0.31204   0.62602   0.00000  Uiso   1.00
H568   H     0.42895   0.21397   0.86983   0.00000  Uiso   1.00
H569   H     0.53956   0.31398   0.53924   0.00000  Uiso   1.00
H570   H     0.42661   0.21415   0.95628   0.00000  Uiso   1.00
N571   N     0.50000   0.24999   0.62623   0.00000  Uiso   1.00
N572   N     0.50000   0.25001   0.87377   0.00000  Uiso   1.00
O573   O     0.50000   0.18453   0.78974   0.00000  Uiso   1.00
O574   O     0.50000   0.31546   0.71026   0.00000  Uiso   1.00
O575   O     0.50000   0.18453   0.71026   0.00000  Uiso   1.00
O576   O     0.50000   0.31547   0.78974   0.00000  Uiso   1.00
O577   O     0.42392   0.25000   0.78044   0.00000  Uiso   1.00
O578   O     0.57608   0.25000   0.71955   0.00000  Uiso   1.00
O579   O     0.42392   0.24999   0.70096   0.00000  Uiso   1.00
O580   O     0.57608   0.25000   0.79903   0.00000  Uiso   1.00
Zn581  Zn    0.50000   0.25000   0.80307   0.00000  Uiso   1.00
Zn582  Zn    0.50000   0.24999   0.69693   0.00000  Uiso   1.00
C583   C     0.65928   0.20417   0.69884   0.00000  Uiso   1.00
H584   H     0.35815   0.18539   0.68577   0.00000  Uiso   1.00
H585   H     0.63604   0.17925   0.71636   0.00000  Uiso   1.00
H586   H     0.63520   0.21916   0.66725   0.00000  Uiso   1.00
C587   C     0.34077   0.29576   0.80131   0.00000  Uiso   1.00
H588   H     0.64192   0.31461   0.81435   0.00000  Uiso   1.00
H589   H     0.36465   0.28064   0.83292   0.00000  Uiso   1.00
H590   H     0.36422   0.32064   0.78396   0.00000  Uiso   1.00
C591   C     0.41439   0.02139   0.79898   0.00000  Uiso   1.00
H592   H     0.38713   0.00261   0.77261   0.00000  Uiso   1.00
H593   H     0.43578   0.49726   0.82451   0.00000  Uiso   1.00
H594   H     0.39091   0.04249   0.81990   0.00000  Uiso   1.00
C595   C     0.41741   0.47794   0.67739   0.00000  Uiso   1.00
H596   H     0.42338   0.01466   0.67789   0.00000  Uiso   1.00
H597   H     0.42294   0.46664   0.64119   0.00000  Uiso   1.00
H598   H     0.37651   0.47163   0.68349   0.00000  Uiso   1.00
C599   C     0.41019   0.12100   0.79012   0.00000  Uiso   1.00
H600   H     0.40923   0.15671   0.77943   0.00000  Uiso   1.00
H601   H     0.37151   0.10730   0.77508   0.00000  Uiso   1.00
H602   H     0.41482   0.11900   0.82961   0.00000  Uiso   1.00
C603   C     0.41770   0.37830   0.68141   0.00000  Uiso   1.00
H604   H     0.43815   0.36292   0.65364   0.00000  Uiso   1.00
H605   H     0.40022   0.35156   0.70169   0.00000  Uiso   1.00
H606   H     0.38459   0.39793   0.66307   0.00000  Uiso   1.00
H607   H     0.55894   0.10906   0.71123   0.00000  Uiso   1.00
H608   H     0.55536   0.39080   0.80760   0.00000  Uiso   1.00
C609   C     0.83157   0.16401   0.75000   0.00000  Uiso   1.00
C610   C     0.83182   0.33606   0.74956   0.00000  Uiso   1.00
C611   C     0.81079   0.21463   0.55013   0.00000  Uiso   1.00
C612   C     0.87388   0.27040   0.95223   0.00000  Uiso   1.00
C613   C     0.81107   0.21535   0.59978   0.00000  Uiso   1.00
C614   C     0.87305   0.27013   0.90251   0.00000  Uiso   1.00
C615   C     0.85554   0.28467   0.60471   0.00000  Uiso   1.00
C616   C     0.79360   0.22988   0.89297   0.00000  Uiso   1.00
C617   C     0.85579   0.28544   0.55511   0.00000  Uiso   1.00
C618   C     0.79270   0.22968   0.94248   0.00000  Uiso   1.00
C619   C     0.83328   0.25005   0.52667   0.00000  Uiso   1.00
C620   C     0.83327   0.25005   0.97330   0.00000  Uiso   1.00
C621   C     0.73397   0.24913   0.73806   0.00000  Uiso   1.00
C622   C     0.93270   0.25096   0.76193   0.00000  Uiso   1.00
C623   C     0.68015   0.24059   0.73379   0.00000  Uiso   1.00
C624   C     0.98653   0.25946   0.76624   0.00000  Uiso   1.00
C625   C     0.78630   0.04752   0.77358   0.00000  Uiso   1.00
C626   C     0.78793   0.45288   0.71445   0.00000  Uiso   1.00
C627   C     0.78659   0.09466   0.77168   0.00000  Uiso   1.00
C628   C     0.78940   0.40571   0.71495   0.00000  Uiso   1.00
C629   C     0.82626   0.11625   0.74992   0.00000  Uiso   1.00
C630   C     0.82705   0.38396   0.74836   0.00000  Uiso   1.00
C631   C     0.86233   0.09217   0.72805   0.00000  Uiso   1.00
C632   C     0.86037   0.40782   0.78190   0.00000  Uiso   1.00
C633   C     0.86048   0.04623   0.72814   0.00000  Uiso   1.00
C634   C     0.85806   0.45372   0.78213   0.00000  Uiso   1.00
C635   C     0.82300   0.02419   0.75064   0.00000  Uiso   1.00
C636   C     0.82253   0.47604   0.74878   0.00000  Uiso   1.00
H637   H     0.88842   0.02764   0.71080   0.00000  Uiso   1.00
H638   H     0.88429   0.47210   0.80819   0.00000  Uiso   1.00
H639   H     0.79366   0.18611   0.53050   0.00000  Uiso   1.00
H640   H     0.90662   0.28593   0.97392   0.00000  Uiso   1.00
H641   H     0.79353   0.18798   0.61718   0.00000  Uiso   1.00
H642   H     0.90443   0.28596   0.88690   0.00000  Uiso   1.00
H643   H     0.87303   0.31204   0.62602   0.00000  Uiso   1.00
H644   H     0.76228   0.21397   0.86983   0.00000  Uiso   1.00
H645   H     0.87289   0.31398   0.53924   0.00000  Uiso   1.00
H646   H     0.75995   0.21415   0.95628   0.00000  Uiso   1.00
N647   N     0.83333   0.24999   0.62623   0.00000  Uiso   1.00
N648   N     0.83333   0.25001   0.87377   0.00000  Uiso   1.00
O649   O     0.83334   0.18453   0.78974   0.00000  Uiso   1.00
O650   O     0.83333   0.31546   0.71026   0.00000  Uiso   1.00
O651   O     0.83334   0.18453   0.71026   0.00000  Uiso   1.00
O652   O     0.83333   0.31547   0.78974   0.00000  Uiso   1.00
O653   O     0.75725   0.25000   0.78044   0.00000  Uiso   1.00
O654   O     0.90942   0.25000   0.71955   0.00000  Uiso   1.00
O655   O     0.75725   0.24999   0.70096   0.00000  Uiso   1.00
O656   O     0.90942   0.25000   0.79903   0.00000  Uiso   1.00
Zn657  Zn    0.83333   0.25000   0.80307   0.00000  Uiso   1.00
Zn658  Zn    0.83333   0.24999   0.69693   0.00000  Uiso   1.00
C659   C     0.99261   0.20417   0.69884   0.00000  Uiso   1.00
H660   H     0.69148   0.18539   0.68577   0.00000  Uiso   1.00
H661   H     0.96937   0.17925   0.71636   0.00000  Uiso   1.00
H662   H     0.96853   0.21916   0.66725   0.00000  Uiso   1.00
C663   C     0.67410   0.29576   0.80131   0.00000  Uiso   1.00
H664   H     0.97525   0.31461   0.81435   0.00000  Uiso   1.00
H665   H     0.69798   0.28064   0.83292   0.00000  Uiso   1.00
H666   H     0.69756   0.32064   0.78396   0.00000  Uiso   1.00
C667   C     0.74772   0.02139   0.79898   0.00000  Uiso   1.00
H668   H     0.72046   0.00261   0.77261   0.00000  Uiso   1.00
H669   H     0.76911   0.49726   0.82451   0.00000  Uiso   1.00
H670   H     0.72424   0.04249   0.81990   0.00000  Uiso   1.00
C671   C     0.75074   0.47794   0.67739   0.00000  Uiso   1.00
H672   H     0.75671   0.01466   0.67789   0.00000  Uiso   1.00
H673   H     0.75627   0.46664   0.64119   0.00000  Uiso   1.00
H674   H     0.70984   0.47163   0.68349   0.00000  Uiso   1.00
C675   C     0.74352   0.12100   0.79012   0.00000  Uiso   1.00
H676   H     0.74256   0.15671   0.77943   0.00000  Uiso   1.00
H677   H     0.70484   0.10730   0.77508   0.00000  Uiso   1.00
H678   H     0.74816   0.11900   0.82961   0.00000  Uiso   1.00
C679   C     0.75104   0.37830   0.68141   0.00000  Uiso   1.00
H680   H     0.77148   0.36292   0.65364   0.00000  Uiso   1.00
H681   H     0.73356   0.35156   0.70169   0.00000  Uiso   1.00
H682   H     0.71792   0.39793   0.66307   0.00000  Uiso   1.00
H683   H     0.89228   0.10906   0.71123   0.00000  Uiso   1.00
H684   H     0.88870   0.39080   0.80760   0.00000  Uiso   1.00
C685   C     0.16490   0.66401   0.75000   0.00000  Uiso   1.00
C686   C     0.16515   0.83606   0.74956   0.00000  Uiso   1.00
C687   C     0.14412   0.71463   0.55013   0.00000  Uiso   1.00
C688   C     0.20721   0.77040   0.95223   0.00000  Uiso   1.00
C689   C     0.14441   0.71535   0.59978   0.00000  Uiso   1.00
C690   C     0.20638   0.77013   0.90251   0.00000  Uiso   1.00
C691   C     0.18887   0.78467   0.60471   0.00000  Uiso   1.00
C692   C     0.12694   0.72988   0.89297   0.00000  Uiso   1.00
C693   C     0.18912   0.78544   0.55511   0.00000  Uiso   1.00
C694   C     0.12603   0.72968   0.94248   0.00000  Uiso   1.00
C695   C     0.16661   0.75005   0.52667   0.00000  Uiso   1.00
C696   C     0.16661   0.75005   0.97330   0.00000  Uiso   1.00
C697   C     0.06730   0.74913   0.73806   0.00000  Uiso   1.00
C698   C     0.26603   0.75096   0.76193   0.00000  Uiso   1.00
C699   C     0.01348   0.74059   0.73379   0.00000  Uiso   1.00
C700   C     0.31986   0.75946   0.76624   0.00000  Uiso   1.00
C701   C     0.11963   0.54752   0.77358   0.00000  Uiso   1.00
C702   C     0.12127   0.95288   0.71445   0.00000  Uiso   1.00
C703   C     0.11992   0.59466   0.77168   0.00000  Uiso   1.00
C704   C     0.12273   0.90571   0.71495   0.00000  Uiso   1.00
C705   C     0.15960   0.61625   0.74992   0.00000  Uiso   1.00
C706   C     0.16038   0.88396   0.74836   0.00000  Uiso   1.00
C707   C     0.19566   0.59217   0.72805   0.00000  Uiso   1.00
C708   C     0.19370   0.90782   0.78190   0.00000  Uiso   1.00
C709   C     0.19381   0.54623   0.72814   0.00000  Uiso   1.00
C710   C     0.19139   0.95372   0.78213   0.00000  Uiso   1.00
C711   C     0.15634   0.52419   0.75064   0.00000  Uiso   1.00
C712   C     0.15586   0.97604   0.74878   0.00000  Uiso   1.00
H713   H     0.22175   0.52764   0.71080   0.00000  Uiso   1.00
H714   H     0.21762   0.97210   0.80819   0.00000  Uiso   1.00
H715   H     0.12699   0.68611   0.53050   0.00000  Uiso   1.00
H716   H     0.23995   0.78593   0.97392   0.00000  Uiso   1.00
H717   H     0.12686   0.68798   0.61718   0.00000  Uiso   1.00
H718   H     0.23777   0.78596   0.88690   0.00000  Uiso   1.00
H719   H     0.20636   0.81204   0.62602   0.00000  Uiso   1.00
H720   H     0.09562   0.71397   0.86983   0.00000  Uiso   1.00
H721   H     0.20622   0.81398   0.53924   0.00000  Uiso   1.00
H722   H     0.09328   0.71415   0.95628   0.00000  Uiso   1.00
N723   N     0.16667   0.74999   0.62623   0.00000  Uiso   1.00
N724   N     0.16667   0.75001   0.87377   0.00000  Uiso   1.00
O725   O     0.16667   0.68453   0.78974   0.00000  Uiso   1.00
O726   O     0.16666   0.81546   0.71026   0.00000  Uiso   1.00
O727   O     0.16667   0.68453   0.71026   0.00000  Uiso   1.00
O728   O     0.16666   0.81547   0.78974   0.00000  Uiso   1.00
O729   O     0.09058   0.75000   0.78044   0.00000  Uiso   1.00
O730   O     0.24275   0.75000   0.71955   0.00000  Uiso   1.00
O731   O     0.09058   0.74999   0.70096   0.00000  Uiso   1.00
O732   O     0.24275   0.75000   0.79903   0.00000  Uiso   1.00
Zn733  Zn    0.16667   0.75000   0.80307   0.00000  Uiso   1.00
Zn734  Zn    0.16667   0.74999   0.69693   0.00000  Uiso   1.00
C735   C     0.32595   0.70417   0.69884   0.00000  Uiso   1.00
H736   H     0.02481   0.68539   0.68577   0.00000  Uiso   1.00
H737   H     0.30271   0.67925   0.71636   0.00000  Uiso   1.00
H738   H     0.30186   0.71916   0.66725   0.00000  Uiso   1.00
C739   C     0.00743   0.79576   0.80131   0.00000  Uiso   1.00
H740   H     0.30858   0.81461   0.81435   0.00000  Uiso   1.00
H741   H     0.03131   0.78064   0.83292   0.00000  Uiso   1.00
H742   H     0.03089   0.82064   0.78396   0.00000  Uiso   1.00
C743   C     0.08105   0.52139   0.79898   0.00000  Uiso   1.00
H744   H     0.05380   0.50261   0.77261   0.00000  Uiso   1.00
H745   H     0.10244   0.99726   0.82451   0.00000  Uiso   1.00
H746   H     0.05757   0.54249   0.81990   0.00000  Uiso   1.00
C747   C     0.08408   0.97794   0.67739   0.00000  Uiso   1.00
H748   H     0.09005   0.51466   0.67789   0.00000  Uiso   1.00
H749   H     0.08960   0.96664   0.64119   0.00000  Uiso   1.00
H750   H     0.04318   0.97163   0.68349   0.00000  Uiso   1.00
C751   C     0.07685   0.62100   0.79012   0.00000  Uiso   1.00
H752   H     0.07589   0.65671   0.77943   0.00000  Uiso   1.00
H753   H     0.03818   0.60730   0.77508   0.00000  Uiso   1.00
H754   H     0.08149   0.61900   0.82961   0.00000  Uiso   1.00
C755   C     0.08437   0.87830   0.68141   0.00000  Uiso   1.00
H756   H     0.10482   0.86292   0.65364   0.00000  Uiso   1.00
H757   H     0.06689   0.85156   0.70169   0.00000  Uiso   1.00
H758   H     0.05125   0.89793   0.66307   0.00000  Uiso   1.00
H759   H     0.22561   0.60906   0.71123   0.00000  Uiso   1.00
H760   H     0.22203   0.89080   0.80760   0.00000  Uiso   1.00
C761   C     0.49824   0.66401   0.75000   0.00000  Uiso   1.00
C762   C     0.49848   0.83606   0.74956   0.00000  Uiso   1.00
C763   C     0.47745   0.71463   0.55013   0.00000  Uiso   1.00
C764   C     0.54055   0.77040   0.95223   0.00000  Uiso   1.00
C765   C     0.47774   0.71535   0.59978   0.00000  Uiso   1.00
C766   C     0.53972   0.77013   0.90251   0.00000  Uiso   1.00
C767   C     0.52221   0.78467   0.60471   0.00000  Uiso   1.00
C768   C     0.46027   0.72988   0.89297   0.00000  Uiso   1.00
C769   C     0.52246   0.78544   0.55511   0.00000  Uiso   1.00
C770   C     0.45936   0.72968   0.94248   0.00000  Uiso   1.00
C771   C     0.49995   0.75005   0.52667   0.00000  Uiso   1.00
C772   C     0.49994   0.75005   0.97330   0.00000  Uiso   1.00
C773   C     0.40063   0.74913   0.73806   0.00000  Uiso   1.00
C774   C     0.59936   0.75096   0.76193   0.00000  Uiso   1.00
C775   C     0.34682   0.74059   0.73379   0.00000  Uiso   1.00
C776   C     0.65319   0.75946   0.76624   0.00000  Uiso   1.00
C777   C     0.45296   0.54752   0.77358   0.00000  Uiso   1.00
C778   C     0.45460   0.95288   0.71445   0.00000  Uiso   1.00
C779   C     0.45326   0.59466   0.77168   0.00000  Uiso   1.00
C780   C     0.45606   0.90571   0.71495   0.00000  Uiso   1.00
C781   C     0.49293   0.61625   0.74992   0.00000  Uiso   1.00
C782   C     0.49371   0.88396   0.74836   0.00000  Uiso   1.00
C783   C     0.52899   0.59217   0.72805   0.00000  Uiso   1.00
C784   C     0.52704   0.90782   0.78190   0.00000  Uiso   1.00
C785   C     0.52714   0.54623   0.72814   0.00000  Uiso   1.00
C786   C     0.52472   0.95372   0.78213   0.00000  Uiso   1.00
C787   C     0.48967   0.52419   0.75064   0.00000  Uiso   1.00
C788   C     0.48920   0.97604   0.74878   0.00000  Uiso   1.00
H789   H     0.55508   0.52764   0.71080   0.00000  Uiso   1.00
H790   H     0.55096   0.97210   0.80819   0.00000  Uiso   1.00
H791   H     0.46033   0.68611   0.53050   0.00000  Uiso   1.00
H792   H     0.57328   0.78593   0.97392   0.00000  Uiso   1.00
H793   H     0.46020   0.68798   0.61718   0.00000  Uiso   1.00
H794   H     0.57110   0.78596   0.88690   0.00000  Uiso   1.00
H795   H     0.53969   0.81204   0.62602   0.00000  Uiso   1.00
H796   H     0.42895   0.71397   0.86983   0.00000  Uiso   1.00
H797   H     0.53956   0.81398   0.53924   0.00000  Uiso   1.00
H798   H     0.42661   0.71415   0.95628   0.00000  Uiso   1.00
N799   N     0.50000   0.74999   0.62623   0.00000  Uiso   1.00
N800   N     0.50000   0.75001   0.87377   0.00000  Uiso   1.00
O801   O     0.50000   0.68453   0.78974   0.00000  Uiso   1.00
O802   O     0.50000   0.81546   0.71026   0.00000  Uiso   1.00
O803   O     0.50000   0.68453   0.71026   0.00000  Uiso   1.00
O804   O     0.50000   0.81547   0.78974   0.00000  Uiso   1.00
O805   O     0.42392   0.75000   0.78044   0.00000  Uiso   1.00
O806   O     0.57608   0.75000   0.71955   0.00000  Uiso   1.00
O807   O     0.42392   0.74999   0.70096   0.00000  Uiso   1.00
O808   O     0.57608   0.75000   0.79903   0.00000  Uiso   1.00
Zn809  Zn    0.50000   0.75000   0.80307   0.00000  Uiso   1.00
Zn810  Zn    0.50000   0.74999   0.69693   0.00000  Uiso   1.00
C811   C     0.65928   0.70417   0.69884   0.00000  Uiso   1.00
H812   H     0.35815   0.68539   0.68577   0.00000  Uiso   1.00
H813   H     0.63604   0.67925   0.71636   0.00000  Uiso   1.00
H814   H     0.63520   0.71916   0.66725   0.00000  Uiso   1.00
C815   C     0.34077   0.79576   0.80131   0.00000  Uiso   1.00
H816   H     0.64192   0.81461   0.81435   0.00000  Uiso   1.00
H817   H     0.36465   0.78064   0.83292   0.00000  Uiso   1.00
H818   H     0.36422   0.82064   0.78396   0.00000  Uiso   1.00
C819   C     0.41439   0.52139   0.79898   0.00000  Uiso   1.00
H820   H     0.38713   0.50261   0.77261   0.00000  Uiso   1.00
H821   H     0.43578   0.99726   0.82451   0.00000  Uiso   1.00
H822   H     0.39091   0.54249   0.81990   0.00000  Uiso   1.00
C823   C     0.41741   0.97794   0.67739   0.00000  Uiso   1.00
H824   H     0.42338   0.51466   0.67789   0.00000  Uiso   1.00
H825   H     0.42294   0.96664   0.64119   0.00000  Uiso   1.00
H826   H     0.37651   0.97163   0.68349   0.00000  Uiso   1.00
C827   C     0.41019   0.62100   0.79012   0.00000  Uiso   1.00
H828   H     0.40923   0.65671   0.77943   0.00000  Uiso   1.00
H829   H     0.37151   0.60730   0.77508   0.00000  Uiso   1.00
H830   H     0.41482   0.61900   0.82961   0.00000  Uiso   1.00
C831   C     0.41770   0.87830   0.68141   0.00000  Uiso   1.00
H832   H     0.43815   0.86292   0.65364   0.00000  Uiso   1.00
H833   H     0.40022   0.85156   0.70169   0.00000  Uiso   1.00
H834   H     0.38459   0.89793   0.66307   0.00000  Uiso   1.00
H835   H     0.55894   0.60906   0.71123   0.00000  Uiso   1.00
H836   H     0.55536   0.89080   0.80760   0.00000  Uiso   1.00
C837   C     0.83157   0.66401   0.75000   0.00000  Uiso   1.00
C838   C     0.83182   0.83606   0.74956   0.00000  Uiso   1.00
C839   C     0.81079   0.71463   0.55013   0.00000  Uiso   1.00
C840   C     0.87388   0.77040   0.95223   0.00000  Uiso   1.00
C841   C     0.81107   0.71535   0.59978   0.00000  Uiso   1.00
C842   C     0.87305   0.77013   0.90251   0.00000  Uiso   1.00
C843   C     0.85554   0.78467   0.60471   0.00000  Uiso   1.00
C844   C     0.79360   0.72988   0.89297   0.00000  Uiso   1.00
C845   C     0.85579   0.78544   0.55511   0.00000  Uiso   1.00
C846   C     0.79270   0.72968   0.94248   0.00000  Uiso   1.00
C847   C     0.83328   0.75005   0.52667   0.00000  Uiso   1.00
C848   C     0.83327   0.75005   0.97330   0.00000  Uiso   1.00
C849   C     0.73397   0.74913   0.73806   0.00000  Uiso   1.00
C850   C     0.93270   0.75096   0.76193   0.00000  Uiso   1.00
C851   C     0.68015   0.74059   0.73379   0.00000  Uiso   1.00
C852   C     0.98653   0.75946   0.76624   0.00000  Uiso   1.00
C853   C     0.78630   0.54752   0.77358   0.00000  Uiso   1.00
C854   C     0.78793   0.95288   0.71445   0.00000  Uiso   1.00
C855   C     0.78659   0.59466   0.77168   0.00000  Uiso   1.00
C856   C     0.78940   0.90571   0.71495   0.00000  Uiso   1.00
C857   C     0.82626   0.61625   0.74992   0.00000  Uiso   1.00
C858   C     0.82705   0.88396   0.74836   0.00000  Uiso   1.00
C859   C     0.86233   0.59217   0.72805   0.00000  Uiso   1.00
C860   C     0.86037   0.90782   0.78190   0.00000  Uiso   1.00
C861   C     0.86048   0.54623   0.72814   0.00000  Uiso   1.00
C862   C     0.85806   0.95372   0.78213   0.00000  Uiso   1.00
C863   C     0.82300   0.52419   0.75064   0.00000  Uiso   1.00
C864   C     0.82253   0.97604   0.74878   0.00000  Uiso   1.00
H865   H     0.88842   0.52764   0.71080   0.00000  Uiso   1.00
H866   H     0.88429   0.97210   0.80819   0.00000  Uiso   1.00
H867   H     0.79366   0.68611   0.53050   0.00000  Uiso   1.00
H868   H     0.90662   0.78593   0.97392   0.00000  Uiso   1.00
H869   H     0.79353   0.68798   0.61718   0.00000  Uiso   1.00
H870   H     0.90443   0.78596   0.88690   0.00000  Uiso   1.00
H871   H     0.87303   0.81204   0.62602   0.00000  Uiso   1.00
H872   H     0.76228   0.71397   0.86983   0.00000  Uiso   1.00
H873   H     0.87289   0.81398   0.53924   0.00000  Uiso   1.00
H874   H     0.75995   0.71415   0.95628   0.00000  Uiso   1.00
N875   N     0.83333   0.74999   0.62623   0.00000  Uiso   1.00
N876   N     0.83333   0.75001   0.87377   0.00000  Uiso   1.00
O877   O     0.83334   0.68453   0.78974   0.00000  Uiso   1.00
O878   O     0.83333   0.81546   0.71026   0.00000  Uiso   1.00
O879   O     0.83334   0.68453   0.71026   0.00000  Uiso   1.00
O880   O     0.83333   0.81547   0.78974   0.00000  Uiso   1.00
O881   O     0.75725   0.75000   0.78044   0.00000  Uiso   1.00
O882   O     0.90942   0.75000   0.71955   0.00000  Uiso   1.00
O883   O     0.75725   0.74999   0.70096   0.00000  Uiso   1.00
O884   O     0.90942   0.75000   0.79903   0.00000  Uiso   1.00
Zn885  Zn    0.83333   0.75000   0.80307   0.00000  Uiso   1.00
Zn886  Zn    0.83333   0.74999   0.69693   0.00000  Uiso   1.00
C887   C     0.99261   0.70417   0.69884   0.00000  Uiso   1.00
H888   H     0.69148   0.68539   0.68577   0.00000  Uiso   1.00
H889   H     0.96937   0.67925   0.71636   0.00000  Uiso   1.00
H890   H     0.96853   0.71916   0.66725   0.00000  Uiso   1.00
C891   C     0.67410   0.79576   0.80131   0.00000  Uiso   1.00
H892   H     0.97525   0.81461   0.81435   0.00000  Uiso   1.00
H893   H     0.69798   0.78064   0.83292   0.00000  Uiso   1.00
H894   H     0.69756   0.82064   0.78396   0.00000  Uiso   1.00
C895   C     0.74772   0.52139   0.79898   0.00000  Uiso   1.00
H896   H     0.72046   0.50261   0.77261   0.00000  Uiso   1.00
H897   H     0.76911   0.99726   0.82451   0.00000  Uiso   1.00
H898   H     0.72424   0.54249   0.81990   0.00000  Uiso   1.00
C899   C     0.75074   0.97794   0.67739   0.00000  Uiso   1.00
H900   H     0.75671   0.51466   0.67789   0.00000  Uiso   1.00
H901   H     0.75627   0.96664   0.64119   0.00000  Uiso   1.00
H902   H     0.70984   0.97163   0.68349   0.00000  Uiso   1.00
C903   C     0.74352   0.62100   0.79012   0.00000  Uiso   1.00
H904   H     0.74256   0.65671   0.77943   0.00000  Uiso   1.00
H905   H     0.70484   0.60730   0.77508   0.00000  Uiso   1.00
H906   H     0.74816   0.61900   0.82961   0.00000  Uiso   1.00
C907   C     0.75104   0.87830   0.68141   0.00000  Uiso   1.00
H908   H     0.77148   0.86292   0.65364   0.00000  Uiso   1.00
H909   H     0.73356   0.85156   0.70169   0.00000  Uiso   1.00
H910   H     0.71792   0.89793   0.66307   0.00000  Uiso   1.00
H911   H     0.89228   0.60906   0.71123   0.00000  Uiso   1.00
H912   H     0.88870   0.89080   0.80760   0.00000  Uiso   1.00
loop_
_geom_bond_atom_site_label_1
_geom_bond_atom_site_label_2
_geom_bond_distance
_geom_bond_site_symmetry_2
_ccdc_geom_bond_type
C1     C21     1.433   .     S
C1     O41     1.282   .     A
C1     O43     1.284   .     A
C2     C22     1.436   .     S
C2     O42     1.282   .     A
C2     O44     1.285   .     A
C3     H31     1.082   .     S
C3     C5      1.407   .     A
C3     C11     1.410   .     A
C4     H32     1.082   .     S
C4     C12     1.411   .     A
C4     C6      1.407   .     A
C5     N39     1.363   .     A
C5     H33     1.082   .     S
C6     N40     1.363   .     A
C6     H34     1.082   .     S
C7     C9      1.407   .     A
C7     N39     1.363   .     A
C7     H35     1.082   .     S
C8     H36     1.082   .     S
C8     N40     1.363   .     A
C8     C10     1.407   .     A
C9     C11     1.411   .     A
C9     H37     1.082   .     S
C10    H38     1.082   .     S
C10    C12     1.411   .     A
C11    C468    1.513   1_554 S
C12    C467    1.513   .     S
C13    O45     1.269   .     A
C13    C15     1.403   .     S
C13    O47     1.281   .     A
C14    O46     1.269   .     A
C14    C16     1.403   .     S
C14    O48     1.281   .     A
C15    C168    1.355   1_455 S
C15    C203    1.525   1_455 S
C16    C91     1.355   .     S
C16    C131    1.525   .     S
C17    C59     1.518   .     S
C17    C27     1.410   .     A
C17    C19     1.409   .     A
C18    C63     1.518   .     S
C18    C28     1.413   .     A
C18    C20     1.410   .     A
C19    C67     1.518   .     S
C19    C21     1.418   .     A
C20    C71     1.520   .     S
C20    C22     1.417   .     A
C21    C23     1.393   .     A
C22    C24     1.393   .     A
C23    H75     1.085   .     S
C23    C25     1.373   .     A
C24    H76     1.084   .     S
C24    C26     1.373   .     A
C25    C27     1.392   .     A
C25    H29     1.084   .     S
C26    C28     1.392   .     A
C26    H30     1.084   .     S
C27    C256    1.440   1_545 S
C28    C255    1.440   .     S
N39    Zn50    2.004   .     S
N40    Zn49    2.004   .     S
O41    Zn49    1.995   .     S
O42    Zn50    1.995   .     S
O43    Zn50    1.989   .     S
O44    Zn49    1.989   .     S
O45    Zn49    1.984   .     S
O46    Zn50    1.984   .     S
O47    Zn50    1.986   .     S
O48    Zn49    1.986   .     S
C51    H54     1.110   .     S
C51    H53     1.111   .     S
C51    C91     1.525   .     S
C51    H128    1.112   .     S
H52    C203    1.112   1_455 S
C55    H57     1.110   .     S
C55    H58     1.111   .     S
C55    C168    1.525   1_455 S
C55    H208    1.112   1_455 S
H56    C131    1.112   .     S
C59    H60     1.110   .     S
C59    H62     1.106   .     S
C59    H289    1.110   1_545 S
H61    C287    1.110   .     S
C63    H65     1.110   .     S
C63    H66     1.110   .     S
C63    H292    1.108   .     S
H64    C291    1.108   1_545 S
C67    H70     1.110   .     S
C67    H68     1.106   .     S
C67    H69     1.111   .     S
C71    H74     1.106   .     S
C71    H73     1.111   .     S
C71    H72     1.110   .     S
C77    C97     1.433   .     S
C77    O117    1.282   .     A
C77    O119    1.284   .     A
C78    C98     1.436   .     S
C78    O118    1.282   .     A
C78    O120    1.285   .     A
C79    H107    1.082   .     S
C79    C81     1.407   .     A
C79    C87     1.410   .     A
C80    H108    1.082   .     S
C80    C88     1.411   .     A
C80    C82     1.407   .     A
C81    N115    1.363   .     A
C81    H109    1.082   .     S
C82    N116    1.363   .     A
C82    H110    1.082   .     S
C83    C85     1.407   .     A
C83    N115    1.363   .     A
C83    H111    1.082   .     S
C84    H112    1.082   .     S
C84    N116    1.363   .     A
C84    C86     1.407   .     A
C85    C87     1.411   .     A
C85    H113    1.082   .     S
C86    H114    1.082   .     S
C86    C88     1.411   .     A
C87    C544    1.513   1_554 S
C88    C543    1.513   .     S
C89    O121    1.269   .     A
C89    C91     1.403   .     S
C89    O123    1.281   .     A
C90    O122    1.269   .     A
C90    C92     1.403   .     S
C90    O124    1.281   .     A
C92    C167    1.355   .     S
C92    C207    1.525   .     S
C93    C135    1.518   .     S
C93    C103    1.410   .     A
C93    C95     1.409   .     A
C94    C139    1.518   .     S
C94    C104    1.413   .     A
C94    C96     1.410   .     A
C95    C143    1.518   .     S
C95    C97     1.418   .     A
C96    C147    1.520   .     S
C96    C98     1.417   .     A
C97    C99     1.393   .     A
C98    C100    1.393   .     A
C99    H151    1.085   .     S
C99    C101    1.373   .     A
C100   H152    1.084   .     S
C100   C102    1.373   .     A
C101   C103    1.392   .     A
C101   H105    1.084   .     S
C102   C104    1.392   .     A
C102   H106    1.084   .     S
C103   C332    1.440   1_545 S
C104   C331    1.440   .     S
N115   Zn126   2.004   .     S
N116   Zn125   2.004   .     S
O117   Zn125   1.995   .     S
O118   Zn126   1.995   .     S
O119   Zn126   1.989   .     S
O120   Zn125   1.989   .     S
O121   Zn125   1.984   .     S
O122   Zn126   1.984   .     S
O123   Zn126   1.986   .     S
O124   Zn125   1.986   .     S
C127   H130    1.110   .     S
C127   H129    1.111   .     S
C127   C167    1.525   .     S
C127   H204    1.112   .     S
C131   H133    1.110   .     S
C131   H134    1.111   .     S
H132   C207    1.112   .     S
C135   H136    1.110   .     S
C135   H138    1.106   .     S
C135   H365    1.110   1_545 S
H137   C363    1.110   .     S
C139   H141    1.110   .     S
C139   H142    1.110   .     S
C139   H368    1.108   .     S
H140   C367    1.108   1_545 S
C143   H146    1.110   .     S
C143   H144    1.106   .     S
C143   H145    1.111   .     S
C147   H150    1.106   .     S
C147   H149    1.111   .     S
C147   H148    1.110   .     S
C153   C173    1.433   .     S
C153   O193    1.282   .     A
C153   O195    1.284   .     A
C154   C174    1.436   .     S
C154   O194    1.282   .     A
C154   O196    1.285   .     A
C155   H183    1.082   .     S
C155   C157    1.407   .     A
C155   C163    1.410   .     A
C156   H184    1.082   .     S
C156   C164    1.411   .     A
C156   C158    1.407   .     A
C157   N191    1.363   .     A
C157   H185    1.082   .     S
C158   N192    1.363   .     A
C158   H186    1.082   .     S
C159   C161    1.407   .     A
C159   N191    1.363   .     A
C159   H187    1.082   .     S
C160   H188    1.082   .     S
C160   N192    1.363   .     A
C160   C162    1.407   .     A
C161   C163    1.411   .     A
C161   H189    1.082   .     S
C162   H190    1.082   .     S
C162   C164    1.411   .     A
C163   C620    1.513   1_554 S
C164   C619    1.513   .     S
C165   O197    1.269   .     A
C165   C167    1.403   .     S
C165   O199    1.281   .     A
C166   O198    1.269   .     A
C166   C168    1.403   .     S
C166   O200    1.281   .     A
C168   C15     1.355   1_655 S
C168   C55     1.525   1_655 S
C169   C211    1.518   .     S
C169   C179    1.410   .     A
C169   C171    1.409   .     A
C170   C215    1.518   .     S
C170   C180    1.413   .     A
C170   C172    1.410   .     A
C171   C219    1.518   .     S
C171   C173    1.418   .     A
C172   C223    1.520   .     S
C172   C174    1.417   .     A
C173   C175    1.393   .     A
C174   C176    1.393   .     A
C175   H227    1.085   .     S
C175   C177    1.373   .     A
C176   H228    1.084   .     S
C176   C178    1.373   .     A
C177   C179    1.392   .     A
C177   H181    1.084   .     S
C178   C180    1.392   .     A
C178   H182    1.084   .     S
C179   C408    1.440   1_545 S
C180   C407    1.440   .     S
N191   Zn202   2.004   .     S
N192   Zn201   2.004   .     S
O193   Zn201   1.995   .     S
O194   Zn202   1.995   .     S
O195   Zn202   1.989   .     S
O196   Zn201   1.989   .     S
O197   Zn201   1.984   .     S
O198   Zn202   1.984   .     S
O199   Zn202   1.986   .     S
O200   Zn201   1.986   .     S
C203   H206    1.110   .     S
C203   H205    1.111   .     S
C203   C15     1.525   1_655 S
C203   H52     1.112   1_655 S
C207   H209    1.110   .     S
C207   H210    1.111   .     S
H208   C55     1.112   1_655 S
C211   H212    1.110   .     S
C211   H214    1.106   .     S
C211   H441    1.110   1_545 S
H213   C439    1.110   .     S
C215   H217    1.110   .     S
C215   H218    1.110   .     S
C215   H444    1.108   .     S
H216   C443    1.108   1_545 S
C219   H222    1.110   .     S
C219   H220    1.106   .     S
C219   H221    1.111   .     S
C223   H226    1.106   .     S
C223   H225    1.111   .     S
C223   H224    1.110   .     S
C229   C249    1.433   .     S
C229   O269    1.282   .     A
C229   O271    1.284   .     A
C230   C250    1.436   .     S
C230   O270    1.282   .     A
C230   O272    1.285   .     A
C231   H259    1.082   .     S
C231   C233    1.407   .     A
C231   C239    1.410   .     A
C232   H260    1.082   .     S
C232   C240    1.411   .     A
C232   C234    1.407   .     A
C233   N267    1.363   .     A
C233   H261    1.082   .     S
C234   N268    1.363   .     A
C234   H262    1.082   .     S
C235   C237    1.407   .     A
C235   N267    1.363   .     A
C235   H263    1.082   .     S
C236   H264    1.082   .     S
C236   N268    1.363   .     A
C236   C238    1.407   .     A
C237   C239    1.411   .     A
C237   H265    1.082   .     S
C238   H266    1.082   .     S
C238   C240    1.411   .     A
C239   C696    1.513   1_554 S
C240   C695    1.513   .     S
C241   O273    1.269   .     A
C241   C243    1.403   .     S
C241   O275    1.281   .     A
C242   O274    1.269   .     A
C242   C244    1.403   .     S
C242   O276    1.281   .     A
C243   C396    1.355   1_455 S
C243   C431    1.525   1_455 S
C244   C319    1.355   .     S
C244   C359    1.525   .     S
C245   C287    1.518   .     S
C245   C255    1.410   .     A
C245   C247    1.409   .     A
C246   C291    1.518   .     S
C246   C256    1.413   .     A
C246   C248    1.410   .     A
C247   C295    1.518   .     S
C247   C249    1.418   .     A
C248   C299    1.520   .     S
C248   C250    1.417   .     A
C249   C251    1.393   .     A
C250   C252    1.393   .     A
C251   H303    1.085   .     S
C251   C253    1.373   .     A
C252   H304    1.084   .     S
C252   C254    1.373   .     A
C253   C255    1.392   .     A
C253   H257    1.084   .     S
C254   C256    1.392   .     A
C254   H258    1.084   .     S
C256   C27     1.440   1_565 S
N267   Zn278   2.004   .     S
N268   Zn277   2.004   .     S
O269   Zn277   1.995   .     S
O270   Zn278   1.995   .     S
O271   Zn278   1.989   .     S
O272   Zn277   1.989   .     S
O273   Zn277   1.984   .     S
O274   Zn278   1.984   .     S
O275   Zn278   1.986   .     S
O276   Zn277   1.986   .     S
C279   H282    1.110   .     S
C279   H281    1.111   .     S
C279   C319    1.525   .     S
C279   H356    1.112   .     S
H280   C431    1.112   1_455 S
C283   H285    1.110   .     S
C283   H286    1.111   .     S
C283   C396    1.525   1_455 S
C283   H436    1.112   1_455 S
H284   C359    1.112   .     S
C287   H288    1.110   .     S
C287   H290    1.106   .     S
H289   C59     1.110   1_565 S
C291   H293    1.110   .     S
C291   H294    1.110   .     S
C291   H64     1.108   1_565 S
C295   H298    1.110   .     S
C295   H296    1.106   .     S
C295   H297    1.111   .     S
C299   H302    1.106   .     S
C299   H301    1.111   .     S
C299   H300    1.110   .     S
C305   C325    1.433   .     S
C305   O345    1.282   .     A
C305   O347    1.284   .     A
C306   C326    1.436   .     S
C306   O346    1.282   .     A
C306   O348    1.285   .     A
C307   H335    1.082   .     S
C307   C309    1.407   .     A
C307   C315    1.410   .     A
C308   H336    1.082   .     S
C308   C316    1.411   .     A
C308   C310    1.407   .     A
C309   N343    1.363   .     A
C309   H337    1.082   .     S
C310   N344    1.363   .     A
C310   H338    1.082   .     S
C311   C313    1.407   .     A
C311   N343    1.363   .     A
C311   H339    1.082   .     S
C312   H340    1.082   .     S
C312   N344    1.363   .     A
C312   C314    1.407   .     A
C313   C315    1.411   .     A
C313   H341    1.082   .     S
C314   H342    1.082   .     S
C314   C316    1.411   .     A
C315   C772    1.513   1_554 S
C316   C771    1.513   .     S
C317   O349    1.269   .     A
C317   C319    1.403   .     S
C317   O351    1.281   .     A
C318   O350    1.269   .     A
C318   C320    1.403   .     S
C318   O352    1.281   .     A
C320   C395    1.355   .     S
C320   C435    1.525   .     S
C321   C363    1.518   .     S
C321   C331    1.410   .     A
C321   C323    1.409   .     A
C322   C367    1.518   .     S
C322   C332    1.413   .     A
C322   C324    1.410   .     A
C323   C371    1.518   .     S
C323   C325    1.418   .     A
C324   C375    1.520   .     S
C324   C326    1.417   .     A
C325   C327    1.393   .     A
C326   C328    1.393   .     A
C327   H379    1.085   .     S
C327   C329    1.373   .     A
C328   H380    1.084   .     S
C328   C330    1.373   .     A
C329   C331    1.392   .     A
C329   H333    1.084   .     S
C330   C332    1.392   .     A
C330   H334    1.084   .     S
C332   C103    1.440   1_565 S
N343   Zn354   2.004   .     S
N344   Zn353   2.004   .     S
O345   Zn353   1.995   .     S
O346   Zn354   1.995   .     S
O347   Zn354   1.989   .     S
O348   Zn353   1.989   .     S
O349   Zn353   1.984   .     S
O350   Zn354   1.984   .     S
O351   Zn354   1.986   .     S
O352   Zn353   1.986   .     S
C355   H358    1.110   .     S
C355   H357    1.111   .     S
C355   C395    1.525   .     S
C355   H432    1.112   .     S
C359   H361    1.110   .     S
C359   H362    1.111   .     S
H360   C435    1.112   .     S
C363   H364    1.110   .     S
C363   H366    1.106   .     S
H365   C135    1.110   1_565 S
C367   H369    1.110   .     S
C367   H370    1.110   .     S
C367   H140    1.108   1_565 S
C371   H374    1.110   .     S
C371   H372    1.106   .     S
C371   H373    1.111   .     S
C375   H378    1.106   .     S
C375   H377    1.111   .     S
C375   H376    1.110   .     S
C381   C401    1.433   .     S
C381   O421    1.282   .     A
C381   O423    1.284   .     A
C382   C402    1.436   .     S
C382   O422    1.282   .     A
C382   O424    1.285   .     A
C383   H411    1.082   .     S
C383   C385    1.407   .     A
C383   C391    1.410   .     A
C384   H412    1.082   .     S
C384   C392    1.411   .     A
C384   C386    1.407   .     A
C385   N419    1.363   .     A
C385   H413    1.082   .     S
C386   N420    1.363   .     A
C386   H414    1.082   .     S
C387   C389    1.407   .     A
C387   N419    1.363   .     A
C387   H415    1.082   .     S
C388   H416    1.082   .     S
C388   N420    1.363   .     A
C388   C390    1.407   .     A
C389   C391    1.411   .     A
C389   H417    1.082   .     S
C390   H418    1.082   .     S
C390   C392    1.411   .     A
C391   C848    1.513   1_554 S
C392   C847    1.513   .     S
C393   O425    1.269   .     A
C393   C395    1.403   .     S
C393   O427    1.281   .     A
C394   O426    1.269   .     A
C394   C396    1.403   .     S
C394   O428    1.281   .     A
C396   C243    1.355   1_655 S
C396   C283    1.525   1_655 S
C397   C439    1.518   .     S
C397   C407    1.410   .     A
C397   C399    1.409   .     A
C398   C443    1.518   .     S
C398   C408    1.413   .     A
C398   C400    1.410   .     A
C399   C447    1.518   .     S
C399   C401    1.418   .     A
C400   C451    1.520   .     S
C400   C402    1.417   .     A
C401   C403    1.393   .     A
C402   C404    1.393   .     A
C403   H455    1.085   .     S
C403   C405    1.373   .     A
C404   H456    1.084   .     S
C404   C406    1.373   .     A
C405   C407    1.392   .     A
C405   H409    1.084   .     S
C406   C408    1.392   .     A
C406   H410    1.084   .     S
C408   C179    1.440   1_565 S
N419   Zn430   2.004   .     S
N420   Zn429   2.004   .     S
O421   Zn429   1.995   .     S
O422   Zn430   1.995   .     S
O423   Zn430   1.989   .     S
O424   Zn429   1.989   .     S
O425   Zn429   1.984   .     S
O426   Zn430   1.984   .     S
O427   Zn430   1.986   .     S
O428   Zn429   1.986   .     S
C431   H434    1.110   .     S
C431   H433    1.111   .     S
C431   C243    1.525   1_655 S
C431   H280    1.112   1_655 S
C435   H437    1.110   .     S
C435   H438    1.111   .     S
H436   C283    1.112   1_655 S
C439   H440    1.110   .     S
C439   H442    1.106   .     S
H441   C211    1.110   1_565 S
C443   H445    1.110   .     S
C443   H446    1.110   .     S
C443   H216    1.108   1_565 S
C447   H450    1.110   .     S
C447   H448    1.106   .     S
C447   H449    1.111   .     S
C451   H454    1.106   .     S
C451   H453    1.111   .     S
C451   H452    1.110   .     S
C457   C477    1.433   .     S
C457   O497    1.282   .     A
C457   O499    1.284   .     A
C458   C478    1.436   .     S
C458   O498    1.282   .     A
C458   O500    1.285   .     A
C459   H487    1.082   .     S
C459   C461    1.407   .     A
C459   C467    1.410   .     A
C460   H488    1.082   .     S
C460   C468    1.411   .     A
C460   C462    1.407   .     A
C461   N495    1.363   .     A
C461   H489    1.082   .     S
C462   N496    1.363   .     A
C462   H490    1.082   .     S
C463   C465    1.407   .     A
C463   N495    1.363   .     A
C463   H491    1.082   .     S
C464   H492    1.082   .     S
C464   N496    1.363   .     A
C464   C466    1.407   .     A
C465   C467    1.411   .     A
C465   H493    1.082   .     S
C466   H494    1.082   .     S
C466   C468    1.411   .     A
C468   C11     1.513   1_556 S
C469   O501    1.269   .     A
C469   C471    1.403   .     S
C469   O503    1.281   .     A
C470   O502    1.269   .     A
C470   C472    1.403   .     S
C470   O504    1.281   .     A
C471   C624    1.355   1_455 S
C471   C659    1.525   1_455 S
C472   C547    1.355   .     S
C472   C587    1.525   .     S
C473   C515    1.518   .     S
C473   C483    1.410   .     A
C473   C475    1.409   .     A
C474   C519    1.518   .     S
C474   C484    1.413   .     A
C474   C476    1.410   .     A
C475   C523    1.518   .     S
C475   C477    1.418   .     A
C476   C527    1.520   .     S
C476   C478    1.417   .     A
C477   C479    1.393   .     A
C478   C480    1.393   .     A
C479   H531    1.085   .     S
C479   C481    1.373   .     A
C480   H532    1.084   .     S
C480   C482    1.373   .     A
C481   C483    1.392   .     A
C481   H485    1.084   .     S
C482   C484    1.392   .     A
C482   H486    1.084   .     S
C483   C712    1.440   1_545 S
C484   C711    1.440   .     S
N495   Zn506   2.004   .     S
N496   Zn505   2.004   .     S
O497   Zn505   1.995   .     S
O498   Zn506   1.995   .     S
O499   Zn506   1.989   .     S
O500   Zn505   1.989   .     S
O501   Zn505   1.984   .     S
O502   Zn506   1.984   .     S
O503   Zn506   1.986   .     S
O504   Zn505   1.986   .     S
C507   H510    1.110   .     S
C507   H509    1.111   .     S
C507   C547    1.525   .     S
C507   H584    1.112   .     S
H508   C659    1.112   1_455 S
C511   H513    1.110   .     S
C511   H514    1.111   .     S
C511   C624    1.525   1_455 S
C511   H664    1.112   1_455 S
H512   C587    1.112   .     S
C515   H516    1.110   .     S
C515   H518    1.106   .     S
C515   H745    1.110   1_545 S
H517   C743    1.110   .     S
C519   H521    1.110   .     S
C519   H522    1.110   .     S
C519   H748    1.108   .     S
H520   C747    1.108   1_545 S
C523   H526    1.110   .     S
C523   H524    1.106   .     S
C523   H525    1.111   .     S
C527   H530    1.106   .     S
C527   H529    1.111   .     S
C527   H528    1.110   .     S
C533   C553    1.433   .     S
C533   O573    1.282   .     A
C533   O575    1.284   .     A
C534   C554    1.436   .     S
C534   O574    1.282   .     A
C534   O576    1.285   .     A
C535   H563    1.082   .     S
C535   C537    1.407   .     A
C535   C543    1.410   .     A
C536   H564    1.082   .     S
C536   C544    1.411   .     A
C536   C538    1.407   .     A
C537   N571    1.363   .     A
C537   H565    1.082   .     S
C538   N572    1.363   .     A
C538   H566    1.082   .     S
C539   C541    1.407   .     A
C539   N571    1.363   .     A
C539   H567    1.082   .     S
C540   H568    1.082   .     S
C540   N572    1.363   .     A
C540   C542    1.407   .     A
C541   C543    1.411   .     A
C541   H569    1.082   .     S
C542   H570    1.082   .     S
C542   C544    1.411   .     A
C544   C87     1.513   1_556 S
C545   O577    1.269   .     A
C545   C547    1.403   .     S
C545   O579    1.281   .     A
C546   O578    1.269   .     A
C546   C548    1.403   .     S
C546   O580    1.281   .     A
C548   C623    1.355   .     S
C548   C663    1.525   .     S
C549   C591    1.518   .     S
C549   C559    1.410   .     A
C549   C551    1.409   .     A
C550   C595    1.518   .     S
C550   C560    1.413   .     A
C550   C552    1.410   .     A
C551   C599    1.518   .     S
C551   C553    1.418   .     A
C552   C603    1.520   .     S
C552   C554    1.417   .     A
C553   C555    1.393   .     A
C554   C556    1.393   .     A
C555   H607    1.085   .     S
C555   C557    1.373   .     A
C556   H608    1.084   .     S
C556   C558    1.373   .     A
C557   C559    1.392   .     A
C557   H561    1.084   .     S
C558   C560    1.392   .     A
C558   H562    1.084   .     S
C559   C788    1.440   1_545 S
C560   C787    1.440   .     S
N571   Zn582   2.004   .     S
N572   Zn581   2.004   .     S
O573   Zn581   1.995   .     S
O574   Zn582   1.995   .     S
O575   Zn582   1.989   .     S
O576   Zn581   1.989   .     S
O577   Zn581   1.984   .     S
O578   Zn582   1.984   .     S
O579   Zn582   1.986   .     S
O580   Zn581   1.986   .     S
C583   H586    1.110   .     S
C583   H585    1.111   .     S
C583   C623    1.525   .     S
C583   H660    1.112   .     S
C587   H589    1.110   .     S
C587   H590    1.111   .     S
H588   C663    1.112   .     S
C591   H592    1.110   .     S
C591   H594    1.106   .     S
C591   H821    1.110   1_545 S
H593   C819    1.110   .     S
C595   H597    1.110   .     S
C595   H598    1.110   .     S
C595   H824    1.108   .     S
H596   C823    1.108   1_545 S
C599   H602    1.110   .     S
C599   H600    1.106   .     S
C599   H601    1.111   .     S
C603   H606    1.106   .     S
C603   H605    1.111   .     S
C603   H604    1.110   .     S
C609   C629    1.433   .     S
C609   O649    1.282   .     A
C609   O651    1.284   .     A
C610   C630    1.436   .     S
C610   O650    1.282   .     A
C610   O652    1.285   .     A
C611   H639    1.082   .     S
C611   C613    1.407   .     A
C611   C619    1.410   .     A
C612   H640    1.082   .     S
C612   C620    1.411   .     A
C612   C614    1.407   .     A
C613   N647    1.363   .     A
C613   H641    1.082   .     S
C614   N648    1.363   .     A
C614   H642    1.082   .     S
C615   C617    1.407   .     A
C615   N647    1.363   .     A
C615   H643    1.082   .     S
C616   H644    1.082   .     S
C616   N648    1.363   .     A
C616   C618    1.407   .     A
C617   C619    1.411   .     A
C617   H645    1.082   .     S
C618   H646    1.082   .     S
C618   C620    1.411   .     A
C620   C163    1.513   1_556 S
C621   O653    1.269   .     A
C621   C623    1.403   .     S
C621   O655    1.281   .     A
C622   O654    1.269   .     A
C622   C624    1.403   .     S
C622   O656    1.281   .     A
C624   C471    1.355   1_655 S
C624   C511    1.525   1_655 S
C625   C667    1.518   .     S
C625   C635    1.410   .     A
C625   C627    1.409   .     A
C626   C671    1.518   .     S
C626   C636    1.413   .     A
C626   C628    1.410   .     A
C627   C675    1.518   .     S
C627   C629    1.418   .     A
C628   C679    1.520   .     S
C628   C630    1.417   .     A
C629   C631    1.393   .     A
C630   C632    1.393   .     A
C631   H683    1.085   .     S
C631   C633    1.373   .     A
C632   H684    1.084   .     S
C632   C634    1.373   .     A
C633   C635    1.392   .     A
C633   H637    1.084   .     S
C634   C636    1.392   .     A
C634   H638    1.084   .     S
C635   C864    1.440   1_545 S
C636   C863    1.440   .     S
N647   Zn658   2.004   .     S
N648   Zn657   2.004   .     S
O649   Zn657   1.995   .     S
O650   Zn658   1.995   .     S
O651   Zn658   1.989   .     S
O652   Zn657   1.989   .     S
O653   Zn657   1.984   .     S
O654   Zn658   1.984   .     S
O655   Zn658   1.986   .     S
O656   Zn657   1.986   .     S
C659   H662    1.110   .     S
C659   H661    1.111   .     S
C659   C471    1.525   1_655 S
C659   H508    1.112   1_655 S
C663   H665    1.110   .     S
C663   H666    1.111   .     S
H664   C511    1.112   1_655 S
C667   H668    1.110   .     S
C667   H670    1.106   .     S
C667   H897    1.110   1_545 S
H669   C895    1.110   .     S
C671   H673    1.110   .     S
C671   H674    1.110   .     S
C671   H900    1.108   .     S
H672   C899    1.108   1_545 S
C675   H678    1.110   .     S
C675   H676    1.106   .     S
C675   H677    1.111   .     S
C679   H682    1.106   .     S
C679   H681    1.111   .     S
C679   H680    1.110   .     S
C685   C705    1.433   .     S
C685   O725    1.282   .     A
C685   O727    1.284   .     A
C686   C706    1.436   .     S
C686   O726    1.282   .     A
C686   O728    1.285   .     A
C687   H715    1.082   .     S
C687   C689    1.407   .     A
C687   C695    1.410   .     A
C688   H716    1.082   .     S
C688   C696    1.411   .     A
C688   C690    1.407   .     A
C689   N723    1.363   .     A
C689   H717    1.082   .     S
C690   N724    1.363   .     A
C690   H718    1.082   .     S
C691   C693    1.407   .     A
C691   N723    1.363   .     A
C691   H719    1.082   .     S
C692   H720    1.082   .     S
C692   N724    1.363   .     A
C692   C694    1.407   .     A
C693   C695    1.411   .     A
C693   H721    1.082   .     S
C694   H722    1.082   .     S
C694   C696    1.411   .     A
C696   C239    1.513   1_556 S
C697   O729    1.269   .     A
C697   C699    1.403   .     S
C697   O731    1.281   .     A
C698   O730    1.269   .     A
C698   C700    1.403   .     S
C698   O732    1.281   .     A
C699   C852    1.355   1_455 S
C699   C887    1.525   1_455 S
C700   C775    1.355   .     S
C700   C815    1.525   .     S
C701   C743    1.518   .     S
C701   C711    1.410   .     A
C701   C703    1.409   .     A
C702   C747    1.518   .     S
C702   C712    1.413   .     A
C702   C704    1.410   .     A
C703   C751    1.518   .     S
C703   C705    1.418   .     A
C704   C755    1.520   .     S
C704   C706    1.417   .     A
C705   C707    1.393   .     A
C706   C708    1.393   .     A
C707   H759    1.085   .     S
C707   C709    1.373   .     A
C708   H760    1.084   .     S
C708   C710    1.373   .     A
C709   C711    1.392   .     A
C709   H713    1.084   .     S
C710   C712    1.392   .     A
C710   H714    1.084   .     S
C712   C483    1.440   1_565 S
N723   Zn734   2.004   .     S
N724   Zn733   2.004   .     S
O725   Zn733   1.995   .     S
O726   Zn734   1.995   .     S
O727   Zn734   1.989   .     S
O728   Zn733   1.989   .     S
O729   Zn733   1.984   .     S
O730   Zn734   1.984   .     S
O731   Zn734   1.986   .     S
O732   Zn733   1.986   .     S
C735   H738    1.110   .     S
C735   H737    1.111   .     S
C735   C775    1.525   .     S
C735   H812    1.112   .     S
H736   C887    1.112   1_455 S
C739   H741    1.110   .     S
C739   H742    1.111   .     S
C739   C852    1.525   1_455 S
C739   H892    1.112   1_455 S
H740   C815    1.112   .     S
C743   H744    1.110   .     S
C743   H746    1.106   .     S
H745   C515    1.110   1_565 S
C747   H749    1.110   .     S
C747   H750    1.110   .     S
C747   H520    1.108   1_565 S
C751   H754    1.110   .     S
C751   H752    1.106   .     S
C751   H753    1.111   .     S
C755   H758    1.106   .     S
C755   H757    1.111   .     S
C755   H756    1.110   .     S
C761   C781    1.433   .     S
C761   O801    1.282   .     A
C761   O803    1.284   .     A
C762   C782    1.436   .     S
C762   O802    1.282   .     A
C762   O804    1.285   .     A
C763   H791    1.082   .     S
C763   C765    1.407   .     A
C763   C771    1.410   .     A
C764   H792    1.082   .     S
C764   C772    1.411   .     A
C764   C766    1.407   .     A
C765   N799    1.363   .     A
C765   H793    1.082   .     S
C766   N800    1.363   .     A
C766   H794    1.082   .     S
C767   C769    1.407   .     A
C767   N799    1.363   .     A
C767   H795    1.082   .     S
C768   H796    1.082   .     S
C768   N800    1.363   .     A
C768   C770    1.407   .     A
C769   C771    1.411   .     A
C769   H797    1.082   .     S
C770   H798    1.082   .     S
C770   C772    1.411   .     A
C772   C315    1.513   1_556 S
C773   O805    1.269   .     A
C773   C775    1.403   .     S
C773   O807    1.281   .     A
C774   O806    1.269   .     A
C774   C776    1.403   .     S
C774   O808    1.281   .     A
C776   C851    1.355   .     S
C776   C891    1.525   .     S
C777   C819    1.518   .     S
C777   C787    1.410   .     A
C777   C779    1.409   .     A
C778   C823    1.518   .     S
C778   C788    1.413   .     A
C778   C780    1.410   .     A
C779   C827    1.518   .     S
C779   C781    1.418   .     A
C780   C831    1.520   .     S
C780   C782    1.417   .     A
C781   C783    1.393   .     A
C782   C784    1.393   .     A
C783   H835    1.085   .     S
C783   C785    1.373   .     A
C784   H836    1.084   .     S
C784   C786    1.373   .     A
C785   C787    1.392   .     A
C785   H789    1.084   .     S
C786   C788    1.392   .     A
C786   H790    1.084   .     S
C788   C559    1.440   1_565 S
N799   Zn810   2.004   .     S
N800   Zn809   2.004   .     S
O801   Zn809   1.995   .     S
O802   Zn810   1.995   .     S
O803   Zn810   1.989   .     S
O804   Zn809   1.989   .     S
O805   Zn809   1.984   .     S
O806   Zn810   1.984   .     S
O807   Zn810   1.986   .     S
O808   Zn809   1.986   .     S
C811   H814    1.110   .     S
C811   H813    1.111   .     S
C811   C851    1.525   .     S
C811   H888    1.112   .     S
C815   H817    1.110   .     S
C815   H818    1.111   .     S
H816   C891    1.112   .     S
C819   H820    1.110   .     S
C819   H822    1.106   .     S
H821   C591    1.110   1_565 S
C823   H825    1.110   .     S
C823   H826    1.110   .     S
C823   H596    1.108   1_565 S
C827   H830    1.110   .     S
C827   H828    1.106   .     S
C827   H829    1.111   .     S
C831   H834    1.106   .     S
C831   H833    1.111   .     S
C831   H832    1.110   .     S
C837   C857    1.433   .     S
C837   O877    1.282   .     A
C837   O879    1.284   .     A
C838   C858    1.436   .     S
C838   O878    1.282   .     A
C838   O880    1.285   .     A
C839   H867    1.082   .     S
C839   C841    1.407   .     A
C839   C847    1.410   .     A
C840   H868    1.082   .     S
C840   C848    1.411   .     A
C840   C842    1.407   .     A
C841   N875    1.363   .     A
C841   H869    1.082   .     S
C842   N876    1.363   .     A
C842   H870    1.082   .     S
C843   C845    1.407   .     A
C843   N875    1.363   .     A
C843   H871    1.082   .     S
C844   H872    1.082   .     S
C844   N876    1.363   .     A
C844   C846    1.407   .     A
C845   C847    1.411   .     A
C845   H873    1.082   .     S
C846   H874    1.082   .     S
C846   C848    1.411   .     A
C848   C391    1.513   1_556 S
C849   O881    1.269   .     A
C849   C851    1.403   .     S
C849   O883    1.281   .     A
C850   O882    1.269   .     A
C850   C852    1.403   .     S
C850   O884    1.281   .     A
C852   C699    1.355   1_655 S
C852   C739    1.525   1_655 S
C853   C895    1.518   .     S
C853   C863    1.410   .     A
C853   C855    1.409   .     A
C854   C899    1.518   .     S
C854   C864    1.413   .     A
C854   C856    1.410   .     A
C855   C903    1.518   .     S
C855   C857    1.418   .     A
C856   C907    1.520   .     S
C856   C858    1.417   .     A
C857   C859    1.393   .     A
C858   C860    1.393   .     A
C859   H911    1.085   .     S
C859   C861    1.373   .     A
C860   H912    1.084   .     S
C860   C862    1.373   .     A
C861   C863    1.392   .     A
C861   H865    1.084   .     S
C862   C864    1.392   .     A
C862   H866    1.084   .     S
C864   C635    1.440   1_565 S
N875   Zn886   2.004   .     S
N876   Zn885   2.004   .     S
O877   Zn885   1.995   .     S
O878   Zn886   1.995   .     S
O879   Zn886   1.989   .     S
O880   Zn885   1.989   .     S
O881   Zn885   1.984   .     S
O882   Zn886   1.984   .     S
O883   Zn886   1.986   .     S
O884   Zn885   1.986   .     S
C887   H890    1.110   .     S
C887   H889    1.111   .     S
C887   C699    1.525   1_655 S
C887   H736    1.112   1_655 S
C891   H893    1.110   .     S
C891   H894    1.111   .     S
H892   C739    1.112   1_655 S
C895   H896    1.110   .     S
C895   H898    1.106   .     S
H897   C667    1.110   1_565 S
C899   H901    1.110   .     S
C899   H902    1.110   .     S
C899   H672    1.108   1_565 S
C903   H906    1.110   .     S
C903   H904    1.106   .     S
C903   H905    1.111   .     S
C907   H910    1.106   .     S
C907   H909    1.111   .     S
C907   H908    1.110   .     S
