data_str_m3_o1_o1_pcu_sym.74
_audit_creation_date              2020-01-03
_audit_creation_method            'Materials Studio'
_symmetry_space_group_name_H-M    'P1'
_symmetry_Int_Tables_number       1
_symmetry_cell_setting            triclinic
loop_
_symmetry_equiv_pos_as_xyz
  x,y,z
_cell_length_a                    31.6447
_cell_length_b                    29.3619
_cell_length_c                    29.8579
_cell_angle_alpha                 93.4909
_cell_angle_beta                  89.9992
_cell_angle_gamma                 90.0015
loop_
_atom_site_label
_atom_site_type_symbol
_atom_site_fract_x
_atom_site_fract_y
_atom_site_fract_z
_atom_site_U_iso_or_equiv
_atom_site_adp_type
_atom_site_occupancy
O1     O     0.04580   0.20419   0.20487   0.00000  Uiso   1.00
O2     O     0.45419   0.29581   0.12846   0.00000  Uiso   1.00
O3     O     0.45419   0.29581   0.20487   0.00000  Uiso   1.00
O4     O     0.04580   0.20419   0.12846   0.00000  Uiso   1.00
O5     O     0.45419   0.20419   0.12846   0.00000  Uiso   1.00
O6     O     0.04580   0.29581   0.20487   0.00000  Uiso   1.00
O7     O     0.04580   0.29581   0.12846   0.00000  Uiso   1.00
O8     O     0.45419   0.20419   0.20487   0.00000  Uiso   1.00
O9     O     0.29580   0.45419   0.20487   0.00000  Uiso   1.00
O10    O     0.20419   0.04581   0.12846   0.00000  Uiso   1.00
O11    O     0.20419   0.04581   0.20487   0.00000  Uiso   1.00
O12    O     0.29580   0.45419   0.12846   0.00000  Uiso   1.00
O13    O     0.20419   0.45419   0.12846   0.00000  Uiso   1.00
O14    O     0.29580   0.04581   0.20487   0.00000  Uiso   1.00
O15    O     0.29580   0.04581   0.12846   0.00000  Uiso   1.00
O16    O     0.20419   0.45419   0.20487   0.00000  Uiso   1.00
C17    C     0.06067   0.19086   0.16578   0.00000  Uiso   1.00
C18    C     0.43934   0.30916   0.16756   0.00000  Uiso   1.00
C19    C     0.43935   0.19084   0.16578   0.00000  Uiso   1.00
C20    C     0.06067   0.30915   0.16756   0.00000  Uiso   1.00
C21    C     0.31066   0.44084   0.16578   0.00000  Uiso   1.00
C22    C     0.18933   0.05914   0.16756   0.00000  Uiso   1.00
C23    C     0.18933   0.44085   0.16578   0.00000  Uiso   1.00
C24    C     0.31066   0.05916   0.16756   0.00000  Uiso   1.00
N25    N     0.00000   0.25000   0.28573   0.00000  Uiso   1.00
N26    N    -0.00000   0.25000   0.04760   0.00000  Uiso   1.00
N27    N     0.25000  -0.00000   0.28573   0.00000  Uiso   1.00
N28    N     0.25000  -0.00000   0.04760   0.00000  Uiso   1.00
Zn29   Zn   -0.00000   0.25000   0.21771   0.00000  Uiso   1.00
Zn30   Zn   -0.00000   0.25000   0.11563   0.00000  Uiso   1.00
Zn31   Zn    0.25000  -0.00000   0.21771   0.00000  Uiso   1.00
Zn32   Zn    0.25000  -0.00000   0.11563   0.00000  Uiso   1.00
C33    C     0.49999   0.29019   0.02588   0.00000  Uiso   1.00
C34    C     0.00002   0.20981   0.30745   0.00000  Uiso   1.00
C35    C     0.00002   0.20997   0.02140   0.00000  Uiso   1.00
C36    C     0.49999   0.29003   0.31193   0.00000  Uiso   1.00
C37    C     0.24999   0.04019   0.02588   0.00000  Uiso   1.00
C38    C     0.25000   0.45981   0.30745   0.00000  Uiso   1.00
C39    C     0.25000   0.45997   0.02140   0.00000  Uiso   1.00
C40    C     0.24999   0.04003   0.31193   0.00000  Uiso   1.00
C41    C     0.40168   0.12530   0.12903   0.00000  Uiso   1.00
C42    C     0.09842   0.37459   0.20438   0.00000  Uiso   1.00
C43    C     0.12309   0.34004   0.13222   0.00000  Uiso   1.00
C44    C     0.37685   0.16004   0.20105   0.00000  Uiso   1.00
C45    C     0.12307   0.15994   0.20114   0.00000  Uiso   1.00
C46    C     0.37686   0.33997   0.13227   0.00000  Uiso   1.00
C47    C     0.40163   0.37464   0.20434   0.00000  Uiso   1.00
C48    C     0.09847   0.12547   0.12892   0.00000  Uiso   1.00
C49    C     0.15156   0.37543   0.12894   0.00000  Uiso   1.00
C50    C     0.34834   0.12467   0.20432   0.00000  Uiso   1.00
C51    C     0.37317   0.08995   0.13229   0.00000  Uiso   1.00
C52    C     0.12690   0.40997   0.20111   0.00000  Uiso   1.00
C53    C     0.37313   0.41002   0.20107   0.00000  Uiso   1.00
C54    C     0.12693   0.09006   0.13219   0.00000  Uiso   1.00
C55    C     0.15153   0.12454   0.20441   0.00000  Uiso   1.00
C56    C     0.34836   0.37534   0.12901   0.00000  Uiso   1.00
C57    C     0.09549   0.34062   0.16914   0.00000  Uiso   1.00
C58    C     0.40454   0.15936   0.16420   0.00000  Uiso   1.00
C59    C     0.40452   0.34062   0.16914   0.00000  Uiso   1.00
C60    C     0.09550   0.15940   0.16419   0.00000  Uiso   1.00
C61    C     0.34547   0.09063   0.16914   0.00000  Uiso   1.00
C62    C     0.15451   0.40939   0.16419   0.00000  Uiso   1.00
C63    C     0.15450   0.09060   0.16914   0.00000  Uiso   1.00
C64    C     0.34547   0.40937   0.16419   0.00000  Uiso   1.00
O65    O     0.49997   0.33242   0.04859   0.00000  Uiso   1.00
H66    H     0.00000   0.32853   0.08083   0.00000  Uiso   1.00
O67    O     0.00004   0.16758   0.28474   0.00000  Uiso   1.00
H68    H     0.49999   0.17147   0.25250   0.00000  Uiso   1.00
O69    O     0.00005   0.16839   0.03992   0.00000  Uiso   1.00
H70    H     0.00002   0.17377   0.07265   0.00000  Uiso   1.00
O71    O     0.49999   0.33161   0.29342   0.00000  Uiso   1.00
H72    H     0.00000   0.32623   0.26069   0.00000  Uiso   1.00
O73    O     0.24999   0.08242   0.04859   0.00000  Uiso   1.00
H74    H     0.25000   0.07853   0.08083   0.00000  Uiso   1.00
O75    O     0.25000   0.41758   0.28474   0.00000  Uiso   1.00
H76    H     0.25000   0.42147   0.25250   0.00000  Uiso   1.00
O77    O     0.24998   0.41839   0.03992   0.00000  Uiso   1.00
H78    H     0.24999   0.42377   0.07265   0.00000  Uiso   1.00
O79    O     0.24997   0.08161   0.29342   0.00000  Uiso   1.00
H80    H     0.24999   0.07623   0.26069   0.00000  Uiso   1.00
N81    N     0.42778   0.12590   0.09001   0.00000  Uiso   1.00
O82    O     0.41570   0.15006   0.05721   0.00000  Uiso   1.00
O83    O     0.45548   0.09367   0.08225   0.00000  Uiso   1.00
N84    N     0.07245   0.37387   0.24349   0.00000  Uiso   1.00
O85    O     0.08454   0.34944   0.27609   0.00000  Uiso   1.00
O86    O     0.04488   0.40618   0.25155   0.00000  Uiso   1.00
N87    N     0.12313   0.30285   0.09851   0.00000  Uiso   1.00
O88    O     0.12882   0.26122   0.10994   0.00000  Uiso   1.00
O89    O     0.11698   0.31042   0.05651   0.00000  Uiso   1.00
N90    N     0.37673   0.19732   0.23466   0.00000  Uiso   1.00
O91    O     0.37115   0.23891   0.22308   0.00000  Uiso   1.00
O92    O     0.38266   0.18986   0.27672   0.00000  Uiso   1.00
N93    N     0.12311   0.19713   0.23485   0.00000  Uiso   1.00
O94    O     0.12877   0.23876   0.22343   0.00000  Uiso   1.00
O95    O     0.11704   0.18954   0.27686   0.00000  Uiso   1.00
N96    N     0.37675   0.30271   0.09864   0.00000  Uiso   1.00
O97    O     0.37119   0.26111   0.11019   0.00000  Uiso   1.00
O98    O     0.38266   0.31019   0.05658   0.00000  Uiso   1.00
N99    N     0.42764   0.37397   0.24342   0.00000  Uiso   1.00
O100   O     0.41555   0.34962   0.27609   0.00000  Uiso   1.00
O101   O     0.45524   0.40627   0.25140   0.00000  Uiso   1.00
N102   N     0.07261   0.12628   0.08973   0.00000  Uiso   1.00
O103   O     0.08470   0.15097   0.05732   0.00000  Uiso   1.00
O104   O     0.04518   0.09389   0.08139   0.00000  Uiso   1.00
N105   N     0.17748   0.37620   0.08979   0.00000  Uiso   1.00
O106   O     0.16539   0.40076   0.05729   0.00000  Uiso   1.00
O107   O     0.20497   0.34383   0.08158   0.00000  Uiso   1.00
N108   N     0.32229   0.12404   0.24337   0.00000  Uiso   1.00
O109   O     0.33437   0.09977   0.27610   0.00000  Uiso   1.00
O110   O     0.29466   0.15631   0.25126   0.00000  Uiso   1.00
N111   N     0.37329   0.05266   0.09869   0.00000  Uiso   1.00
O112   O     0.37883   0.01106   0.11028   0.00000  Uiso   1.00
O113   O     0.36744   0.06011   0.05662   0.00000  Uiso   1.00
N114   N     0.12684   0.44718   0.23480   0.00000  Uiso   1.00
O115   O     0.12120   0.48880   0.22333   0.00000  Uiso   1.00
O116   O     0.13287   0.43963   0.27682   0.00000  Uiso   1.00
N117   N     0.37323   0.44727   0.23471   0.00000  Uiso   1.00
O118   O     0.37883   0.48887   0.22318   0.00000  Uiso   1.00
O119   O     0.36727   0.43977   0.27675   0.00000  Uiso   1.00
N120   N     0.12692   0.05290   0.09845   0.00000  Uiso   1.00
O121   O     0.12121   0.01126   0.10983   0.00000  Uiso   1.00
O122   O     0.13312   0.06052   0.05647   0.00000  Uiso   1.00
N123   N     0.17745   0.12377   0.24355   0.00000  Uiso   1.00
O124   O     0.16536   0.09925   0.27607   0.00000  Uiso   1.00
O125   O     0.20498   0.15611   0.25172   0.00000  Uiso   1.00
N126   N     0.32231   0.37599   0.08995   0.00000  Uiso   1.00
O127   O     0.33440   0.40025   0.05722   0.00000  Uiso   1.00
O128   O     0.29466   0.34373   0.08207   0.00000  Uiso   1.00
O129   O     0.54580   0.20419   0.20487   0.00000  Uiso   1.00
O130   O     0.95419   0.29581   0.12846   0.00000  Uiso   1.00
O131   O     0.95419   0.29581   0.20487   0.00000  Uiso   1.00
O132   O     0.54580   0.20419   0.12846   0.00000  Uiso   1.00
O133   O     0.95419   0.20419   0.12846   0.00000  Uiso   1.00
O134   O     0.54580   0.29581   0.20487   0.00000  Uiso   1.00
O135   O     0.54580   0.29581   0.12846   0.00000  Uiso   1.00
O136   O     0.95419   0.20419   0.20487   0.00000  Uiso   1.00
O137   O     0.79580   0.45419   0.20487   0.00000  Uiso   1.00
O138   O     0.70419   0.04581   0.12846   0.00000  Uiso   1.00
O139   O     0.70419   0.04581   0.20487   0.00000  Uiso   1.00
O140   O     0.79580   0.45419   0.12846   0.00000  Uiso   1.00
O141   O     0.70419   0.45419   0.12846   0.00000  Uiso   1.00
O142   O     0.79580   0.04581   0.20487   0.00000  Uiso   1.00
O143   O     0.79580   0.04581   0.12846   0.00000  Uiso   1.00
O144   O     0.70419   0.45419   0.20487   0.00000  Uiso   1.00
C145   C     0.56067   0.19086   0.16578   0.00000  Uiso   1.00
C146   C     0.93934   0.30916   0.16756   0.00000  Uiso   1.00
C147   C     0.93935   0.19084   0.16578   0.00000  Uiso   1.00
C148   C     0.56067   0.30915   0.16756   0.00000  Uiso   1.00
C149   C     0.81066   0.44084   0.16578   0.00000  Uiso   1.00
C150   C     0.68933   0.05914   0.16756   0.00000  Uiso   1.00
C151   C     0.68933   0.44085   0.16578   0.00000  Uiso   1.00
C152   C     0.81066   0.05916   0.16756   0.00000  Uiso   1.00
N153   N     0.50000   0.25000   0.28573   0.00000  Uiso   1.00
N154   N     0.50000   0.25000   0.04760   0.00000  Uiso   1.00
N155   N     0.75000  -0.00000   0.28573   0.00000  Uiso   1.00
N156   N     0.75000  -0.00000   0.04760   0.00000  Uiso   1.00
Zn157  Zn    0.50000   0.25000   0.21771   0.00000  Uiso   1.00
Zn158  Zn    0.50000   0.25000   0.11563   0.00000  Uiso   1.00
Zn159  Zn    0.75000  -0.00000   0.21771   0.00000  Uiso   1.00
Zn160  Zn    0.75000  -0.00000   0.11563   0.00000  Uiso   1.00
C161   C     0.99999   0.29019   0.02588   0.00000  Uiso   1.00
C162   C     0.50002   0.20981   0.30745   0.00000  Uiso   1.00
C163   C     0.50002   0.20997   0.02140   0.00000  Uiso   1.00
C164   C     0.99999   0.29003   0.31193   0.00000  Uiso   1.00
C165   C     0.74999   0.04019   0.02588   0.00000  Uiso   1.00
C166   C     0.75000   0.45981   0.30745   0.00000  Uiso   1.00
C167   C     0.75000   0.45997   0.02140   0.00000  Uiso   1.00
C168   C     0.74999   0.04003   0.31193   0.00000  Uiso   1.00
C169   C     0.90168   0.12530   0.12903   0.00000  Uiso   1.00
C170   C     0.59842   0.37459   0.20438   0.00000  Uiso   1.00
C171   C     0.62309   0.34004   0.13222   0.00000  Uiso   1.00
C172   C     0.87685   0.16004   0.20105   0.00000  Uiso   1.00
C173   C     0.62307   0.15994   0.20114   0.00000  Uiso   1.00
C174   C     0.87686   0.33997   0.13227   0.00000  Uiso   1.00
C175   C     0.90163   0.37464   0.20434   0.00000  Uiso   1.00
C176   C     0.59847   0.12547   0.12892   0.00000  Uiso   1.00
C177   C     0.65156   0.37543   0.12894   0.00000  Uiso   1.00
C178   C     0.84834   0.12467   0.20432   0.00000  Uiso   1.00
C179   C     0.87317   0.08995   0.13229   0.00000  Uiso   1.00
C180   C     0.62690   0.40997   0.20111   0.00000  Uiso   1.00
C181   C     0.87313   0.41002   0.20107   0.00000  Uiso   1.00
C182   C     0.62693   0.09006   0.13219   0.00000  Uiso   1.00
C183   C     0.65153   0.12454   0.20441   0.00000  Uiso   1.00
C184   C     0.84836   0.37534   0.12901   0.00000  Uiso   1.00
C185   C     0.59549   0.34062   0.16914   0.00000  Uiso   1.00
C186   C     0.90454   0.15936   0.16420   0.00000  Uiso   1.00
C187   C     0.90452   0.34062   0.16914   0.00000  Uiso   1.00
C188   C     0.59550   0.15940   0.16419   0.00000  Uiso   1.00
C189   C     0.84547   0.09063   0.16914   0.00000  Uiso   1.00
C190   C     0.65451   0.40939   0.16419   0.00000  Uiso   1.00
C191   C     0.65450   0.09060   0.16914   0.00000  Uiso   1.00
C192   C     0.84547   0.40937   0.16419   0.00000  Uiso   1.00
O193   O     0.99997   0.33242   0.04859   0.00000  Uiso   1.00
H194   H     0.50000   0.32853   0.08083   0.00000  Uiso   1.00
O195   O     0.50004   0.16758   0.28474   0.00000  Uiso   1.00
H196   H     0.99999   0.17147   0.25250   0.00000  Uiso   1.00
O197   O     0.50005   0.16839   0.03992   0.00000  Uiso   1.00
H198   H     0.50002   0.17377   0.07265   0.00000  Uiso   1.00
O199   O     0.99999   0.33161   0.29342   0.00000  Uiso   1.00
H200   H     0.50000   0.32623   0.26069   0.00000  Uiso   1.00
O201   O     0.74999   0.08242   0.04859   0.00000  Uiso   1.00
H202   H     0.75000   0.07853   0.08083   0.00000  Uiso   1.00
O203   O     0.75000   0.41758   0.28474   0.00000  Uiso   1.00
H204   H     0.75000   0.42147   0.25250   0.00000  Uiso   1.00
O205   O     0.74998   0.41839   0.03992   0.00000  Uiso   1.00
H206   H     0.74999   0.42377   0.07265   0.00000  Uiso   1.00
O207   O     0.74997   0.08161   0.29342   0.00000  Uiso   1.00
H208   H     0.74999   0.07623   0.26069   0.00000  Uiso   1.00
N209   N     0.92778   0.12590   0.09001   0.00000  Uiso   1.00
O210   O     0.91570   0.15006   0.05721   0.00000  Uiso   1.00
O211   O     0.95548   0.09367   0.08225   0.00000  Uiso   1.00
N212   N     0.57245   0.37387   0.24349   0.00000  Uiso   1.00
O213   O     0.58454   0.34944   0.27609   0.00000  Uiso   1.00
O214   O     0.54488   0.40618   0.25155   0.00000  Uiso   1.00
N215   N     0.62313   0.30285   0.09851   0.00000  Uiso   1.00
O216   O     0.62882   0.26122   0.10994   0.00000  Uiso   1.00
O217   O     0.61698   0.31042   0.05651   0.00000  Uiso   1.00
N218   N     0.87673   0.19732   0.23466   0.00000  Uiso   1.00
O219   O     0.87115   0.23891   0.22308   0.00000  Uiso   1.00
O220   O     0.88266   0.18986   0.27672   0.00000  Uiso   1.00
N221   N     0.62311   0.19713   0.23485   0.00000  Uiso   1.00
O222   O     0.62877   0.23876   0.22343   0.00000  Uiso   1.00
O223   O     0.61704   0.18954   0.27686   0.00000  Uiso   1.00
N224   N     0.87675   0.30271   0.09864   0.00000  Uiso   1.00
O225   O     0.87119   0.26111   0.11019   0.00000  Uiso   1.00
O226   O     0.88266   0.31019   0.05658   0.00000  Uiso   1.00
N227   N     0.92764   0.37397   0.24342   0.00000  Uiso   1.00
O228   O     0.91555   0.34962   0.27609   0.00000  Uiso   1.00
O229   O     0.95524   0.40627   0.25140   0.00000  Uiso   1.00
N230   N     0.57261   0.12628   0.08973   0.00000  Uiso   1.00
O231   O     0.58470   0.15097   0.05732   0.00000  Uiso   1.00
O232   O     0.54518   0.09389   0.08139   0.00000  Uiso   1.00
N233   N     0.67748   0.37620   0.08979   0.00000  Uiso   1.00
O234   O     0.66539   0.40076   0.05729   0.00000  Uiso   1.00
O235   O     0.70497   0.34383   0.08158   0.00000  Uiso   1.00
N236   N     0.82229   0.12404   0.24337   0.00000  Uiso   1.00
O237   O     0.83437   0.09977   0.27610   0.00000  Uiso   1.00
O238   O     0.79466   0.15631   0.25126   0.00000  Uiso   1.00
N239   N     0.87329   0.05266   0.09869   0.00000  Uiso   1.00
O240   O     0.87883   0.01106   0.11028   0.00000  Uiso   1.00
O241   O     0.86744   0.06011   0.05662   0.00000  Uiso   1.00
N242   N     0.62684   0.44718   0.23480   0.00000  Uiso   1.00
O243   O     0.62120   0.48880   0.22333   0.00000  Uiso   1.00
O244   O     0.63287   0.43963   0.27682   0.00000  Uiso   1.00
N245   N     0.87323   0.44727   0.23471   0.00000  Uiso   1.00
O246   O     0.87883   0.48887   0.22318   0.00000  Uiso   1.00
O247   O     0.86727   0.43977   0.27675   0.00000  Uiso   1.00
N248   N     0.62692   0.05290   0.09845   0.00000  Uiso   1.00
O249   O     0.62121   0.01126   0.10983   0.00000  Uiso   1.00
O250   O     0.63312   0.06052   0.05647   0.00000  Uiso   1.00
N251   N     0.67745   0.12377   0.24355   0.00000  Uiso   1.00
O252   O     0.66536   0.09925   0.27607   0.00000  Uiso   1.00
O253   O     0.70498   0.15611   0.25172   0.00000  Uiso   1.00
N254   N     0.82231   0.37599   0.08995   0.00000  Uiso   1.00
O255   O     0.83440   0.40025   0.05722   0.00000  Uiso   1.00
O256   O     0.79466   0.34373   0.08207   0.00000  Uiso   1.00
O257   O     0.04580   0.70419   0.20487   0.00000  Uiso   1.00
O258   O     0.45419   0.79581   0.12846   0.00000  Uiso   1.00
O259   O     0.45419   0.79581   0.20487   0.00000  Uiso   1.00
O260   O     0.04580   0.70419   0.12846   0.00000  Uiso   1.00
O261   O     0.45419   0.70419   0.12846   0.00000  Uiso   1.00
O262   O     0.04580   0.79581   0.20487   0.00000  Uiso   1.00
O263   O     0.04580   0.79581   0.12846   0.00000  Uiso   1.00
O264   O     0.45419   0.70419   0.20487   0.00000  Uiso   1.00
O265   O     0.29580   0.95419   0.20487   0.00000  Uiso   1.00
O266   O     0.20419   0.54581   0.12846   0.00000  Uiso   1.00
O267   O     0.20419   0.54581   0.20487   0.00000  Uiso   1.00
O268   O     0.29580   0.95419   0.12846   0.00000  Uiso   1.00
O269   O     0.20419   0.95419   0.12846   0.00000  Uiso   1.00
O270   O     0.29580   0.54581   0.20487   0.00000  Uiso   1.00
O271   O     0.29580   0.54581   0.12846   0.00000  Uiso   1.00
O272   O     0.20419   0.95419   0.20487   0.00000  Uiso   1.00
C273   C     0.06067   0.69086   0.16578   0.00000  Uiso   1.00
C274   C     0.43934   0.80916   0.16756   0.00000  Uiso   1.00
C275   C     0.43935   0.69084   0.16578   0.00000  Uiso   1.00
C276   C     0.06067   0.80915   0.16756   0.00000  Uiso   1.00
C277   C     0.31066   0.94084   0.16578   0.00000  Uiso   1.00
C278   C     0.18933   0.55914   0.16756   0.00000  Uiso   1.00
C279   C     0.18933   0.94085   0.16578   0.00000  Uiso   1.00
C280   C     0.31066   0.55916   0.16756   0.00000  Uiso   1.00
N281   N     0.00000   0.75000   0.28573   0.00000  Uiso   1.00
N282   N    -0.00000   0.75000   0.04760   0.00000  Uiso   1.00
N283   N     0.25000   0.50000   0.28573   0.00000  Uiso   1.00
N284   N     0.25000   0.50000   0.04760   0.00000  Uiso   1.00
Zn285  Zn   -0.00000   0.75000   0.21771   0.00000  Uiso   1.00
Zn286  Zn   -0.00000   0.75000   0.11563   0.00000  Uiso   1.00
Zn287  Zn    0.25000   0.50000   0.21771   0.00000  Uiso   1.00
Zn288  Zn    0.25000   0.50000   0.11563   0.00000  Uiso   1.00
C289   C     0.49999   0.79019   0.02588   0.00000  Uiso   1.00
C290   C     0.00002   0.70981   0.30745   0.00000  Uiso   1.00
C291   C     0.00002   0.70997   0.02140   0.00000  Uiso   1.00
C292   C     0.49999   0.79003   0.31193   0.00000  Uiso   1.00
C293   C     0.24999   0.54019   0.02588   0.00000  Uiso   1.00
C294   C     0.25000   0.95981   0.30745   0.00000  Uiso   1.00
C295   C     0.25000   0.95997   0.02140   0.00000  Uiso   1.00
C296   C     0.24999   0.54003   0.31193   0.00000  Uiso   1.00
C297   C     0.40168   0.62530   0.12903   0.00000  Uiso   1.00
C298   C     0.09842   0.87459   0.20438   0.00000  Uiso   1.00
C299   C     0.12309   0.84004   0.13222   0.00000  Uiso   1.00
C300   C     0.37685   0.66004   0.20105   0.00000  Uiso   1.00
C301   C     0.12307   0.65994   0.20114   0.00000  Uiso   1.00
C302   C     0.37686   0.83997   0.13227   0.00000  Uiso   1.00
C303   C     0.40163   0.87464   0.20434   0.00000  Uiso   1.00
C304   C     0.09847   0.62547   0.12892   0.00000  Uiso   1.00
C305   C     0.15156   0.87543   0.12894   0.00000  Uiso   1.00
C306   C     0.34834   0.62467   0.20432   0.00000  Uiso   1.00
C307   C     0.37317   0.58995   0.13229   0.00000  Uiso   1.00
C308   C     0.12690   0.90997   0.20111   0.00000  Uiso   1.00
C309   C     0.37313   0.91002   0.20107   0.00000  Uiso   1.00
C310   C     0.12693   0.59006   0.13219   0.00000  Uiso   1.00
C311   C     0.15153   0.62454   0.20441   0.00000  Uiso   1.00
C312   C     0.34836   0.87534   0.12901   0.00000  Uiso   1.00
C313   C     0.09549   0.84062   0.16914   0.00000  Uiso   1.00
C314   C     0.40454   0.65936   0.16420   0.00000  Uiso   1.00
C315   C     0.40452   0.84062   0.16914   0.00000  Uiso   1.00
C316   C     0.09550   0.65940   0.16419   0.00000  Uiso   1.00
C317   C     0.34547   0.59063   0.16914   0.00000  Uiso   1.00
C318   C     0.15451   0.90939   0.16419   0.00000  Uiso   1.00
C319   C     0.15450   0.59060   0.16914   0.00000  Uiso   1.00
C320   C     0.34547   0.90937   0.16419   0.00000  Uiso   1.00
O321   O     0.49997   0.83242   0.04859   0.00000  Uiso   1.00
H322   H     0.00000   0.82853   0.08083   0.00000  Uiso   1.00
O323   O     0.00004   0.66758   0.28474   0.00000  Uiso   1.00
H324   H     0.49999   0.67147   0.25250   0.00000  Uiso   1.00
O325   O     0.00005   0.66839   0.03992   0.00000  Uiso   1.00
H326   H     0.00002   0.67377   0.07265   0.00000  Uiso   1.00
O327   O     0.49999   0.83161   0.29342   0.00000  Uiso   1.00
H328   H     0.00000   0.82623   0.26069   0.00000  Uiso   1.00
O329   O     0.24999   0.58242   0.04859   0.00000  Uiso   1.00
H330   H     0.25000   0.57853   0.08083   0.00000  Uiso   1.00
O331   O     0.25000   0.91758   0.28474   0.00000  Uiso   1.00
H332   H     0.25000   0.92147   0.25250   0.00000  Uiso   1.00
O333   O     0.24998   0.91839   0.03992   0.00000  Uiso   1.00
H334   H     0.24999   0.92377   0.07265   0.00000  Uiso   1.00
O335   O     0.24997   0.58161   0.29342   0.00000  Uiso   1.00
H336   H     0.24999   0.57623   0.26069   0.00000  Uiso   1.00
N337   N     0.42778   0.62590   0.09001   0.00000  Uiso   1.00
O338   O     0.41570   0.65006   0.05721   0.00000  Uiso   1.00
O339   O     0.45548   0.59367   0.08225   0.00000  Uiso   1.00
N340   N     0.07245   0.87387   0.24349   0.00000  Uiso   1.00
O341   O     0.08454   0.84944   0.27609   0.00000  Uiso   1.00
O342   O     0.04488   0.90618   0.25155   0.00000  Uiso   1.00
N343   N     0.12313   0.80285   0.09851   0.00000  Uiso   1.00
O344   O     0.12882   0.76122   0.10994   0.00000  Uiso   1.00
O345   O     0.11698   0.81042   0.05651   0.00000  Uiso   1.00
N346   N     0.37673   0.69732   0.23466   0.00000  Uiso   1.00
O347   O     0.37115   0.73891   0.22308   0.00000  Uiso   1.00
O348   O     0.38266   0.68986   0.27672   0.00000  Uiso   1.00
N349   N     0.12311   0.69713   0.23485   0.00000  Uiso   1.00
O350   O     0.12877   0.73876   0.22343   0.00000  Uiso   1.00
O351   O     0.11704   0.68954   0.27686   0.00000  Uiso   1.00
N352   N     0.37675   0.80271   0.09864   0.00000  Uiso   1.00
O353   O     0.37119   0.76111   0.11019   0.00000  Uiso   1.00
O354   O     0.38266   0.81019   0.05658   0.00000  Uiso   1.00
N355   N     0.42764   0.87397   0.24342   0.00000  Uiso   1.00
O356   O     0.41555   0.84962   0.27609   0.00000  Uiso   1.00
O357   O     0.45524   0.90627   0.25140   0.00000  Uiso   1.00
N358   N     0.07261   0.62628   0.08973   0.00000  Uiso   1.00
O359   O     0.08470   0.65097   0.05732   0.00000  Uiso   1.00
O360   O     0.04518   0.59389   0.08139   0.00000  Uiso   1.00
N361   N     0.17748   0.87620   0.08979   0.00000  Uiso   1.00
O362   O     0.16539   0.90076   0.05729   0.00000  Uiso   1.00
O363   O     0.20497   0.84383   0.08158   0.00000  Uiso   1.00
N364   N     0.32229   0.62404   0.24337   0.00000  Uiso   1.00
O365   O     0.33437   0.59977   0.27610   0.00000  Uiso   1.00
O366   O     0.29466   0.65631   0.25126   0.00000  Uiso   1.00
N367   N     0.37329   0.55266   0.09869   0.00000  Uiso   1.00
O368   O     0.37883   0.51106   0.11028   0.00000  Uiso   1.00
O369   O     0.36744   0.56011   0.05662   0.00000  Uiso   1.00
N370   N     0.12684   0.94718   0.23480   0.00000  Uiso   1.00
O371   O     0.12120   0.98880   0.22333   0.00000  Uiso   1.00
O372   O     0.13287   0.93963   0.27682   0.00000  Uiso   1.00
N373   N     0.37323   0.94727   0.23471   0.00000  Uiso   1.00
O374   O     0.37883   0.98887   0.22318   0.00000  Uiso   1.00
O375   O     0.36727   0.93977   0.27675   0.00000  Uiso   1.00
N376   N     0.12692   0.55290   0.09845   0.00000  Uiso   1.00
O377   O     0.12121   0.51126   0.10983   0.00000  Uiso   1.00
O378   O     0.13312   0.56052   0.05647   0.00000  Uiso   1.00
N379   N     0.17745   0.62377   0.24355   0.00000  Uiso   1.00
O380   O     0.16536   0.59925   0.27607   0.00000  Uiso   1.00
O381   O     0.20498   0.65611   0.25172   0.00000  Uiso   1.00
N382   N     0.32231   0.87599   0.08995   0.00000  Uiso   1.00
O383   O     0.33440   0.90025   0.05722   0.00000  Uiso   1.00
O384   O     0.29466   0.84373   0.08207   0.00000  Uiso   1.00
O385   O     0.54580   0.70419   0.20487   0.00000  Uiso   1.00
O386   O     0.95419   0.79581   0.12846   0.00000  Uiso   1.00
O387   O     0.95419   0.79581   0.20487   0.00000  Uiso   1.00
O388   O     0.54580   0.70419   0.12846   0.00000  Uiso   1.00
O389   O     0.95419   0.70419   0.12846   0.00000  Uiso   1.00
O390   O     0.54580   0.79581   0.20487   0.00000  Uiso   1.00
O391   O     0.54580   0.79581   0.12846   0.00000  Uiso   1.00
O392   O     0.95419   0.70419   0.20487   0.00000  Uiso   1.00
O393   O     0.79580   0.95419   0.20487   0.00000  Uiso   1.00
O394   O     0.70419   0.54581   0.12846   0.00000  Uiso   1.00
O395   O     0.70419   0.54581   0.20487   0.00000  Uiso   1.00
O396   O     0.79580   0.95419   0.12846   0.00000  Uiso   1.00
O397   O     0.70419   0.95419   0.12846   0.00000  Uiso   1.00
O398   O     0.79580   0.54581   0.20487   0.00000  Uiso   1.00
O399   O     0.79580   0.54581   0.12846   0.00000  Uiso   1.00
O400   O     0.70419   0.95419   0.20487   0.00000  Uiso   1.00
C401   C     0.56067   0.69086   0.16578   0.00000  Uiso   1.00
C402   C     0.93934   0.80916   0.16756   0.00000  Uiso   1.00
C403   C     0.93935   0.69084   0.16578   0.00000  Uiso   1.00
C404   C     0.56067   0.80915   0.16756   0.00000  Uiso   1.00
C405   C     0.81066   0.94084   0.16578   0.00000  Uiso   1.00
C406   C     0.68933   0.55914   0.16756   0.00000  Uiso   1.00
C407   C     0.68933   0.94085   0.16578   0.00000  Uiso   1.00
C408   C     0.81066   0.55916   0.16756   0.00000  Uiso   1.00
N409   N     0.50000   0.75000   0.28573   0.00000  Uiso   1.00
N410   N     0.50000   0.75000   0.04760   0.00000  Uiso   1.00
N411   N     0.75000   0.50000   0.28573   0.00000  Uiso   1.00
N412   N     0.75000   0.50000   0.04760   0.00000  Uiso   1.00
Zn413  Zn    0.50000   0.75000   0.21771   0.00000  Uiso   1.00
Zn414  Zn    0.50000   0.75000   0.11563   0.00000  Uiso   1.00
Zn415  Zn    0.75000   0.50000   0.21771   0.00000  Uiso   1.00
Zn416  Zn    0.75000   0.50000   0.11563   0.00000  Uiso   1.00
C417   C     0.99999   0.79019   0.02588   0.00000  Uiso   1.00
C418   C     0.50002   0.70981   0.30745   0.00000  Uiso   1.00
C419   C     0.50002   0.70997   0.02140   0.00000  Uiso   1.00
C420   C     0.99999   0.79003   0.31193   0.00000  Uiso   1.00
C421   C     0.74999   0.54019   0.02588   0.00000  Uiso   1.00
C422   C     0.75000   0.95981   0.30745   0.00000  Uiso   1.00
C423   C     0.75000   0.95997   0.02140   0.00000  Uiso   1.00
C424   C     0.74999   0.54003   0.31193   0.00000  Uiso   1.00
C425   C     0.90168   0.62530   0.12903   0.00000  Uiso   1.00
C426   C     0.59842   0.87459   0.20438   0.00000  Uiso   1.00
C427   C     0.62309   0.84004   0.13222   0.00000  Uiso   1.00
C428   C     0.87685   0.66004   0.20105   0.00000  Uiso   1.00
C429   C     0.62307   0.65994   0.20114   0.00000  Uiso   1.00
C430   C     0.87686   0.83997   0.13227   0.00000  Uiso   1.00
C431   C     0.90163   0.87464   0.20434   0.00000  Uiso   1.00
C432   C     0.59847   0.62547   0.12892   0.00000  Uiso   1.00
C433   C     0.65156   0.87543   0.12894   0.00000  Uiso   1.00
C434   C     0.84834   0.62467   0.20432   0.00000  Uiso   1.00
C435   C     0.87317   0.58995   0.13229   0.00000  Uiso   1.00
C436   C     0.62690   0.90997   0.20111   0.00000  Uiso   1.00
C437   C     0.87313   0.91002   0.20107   0.00000  Uiso   1.00
C438   C     0.62693   0.59006   0.13219   0.00000  Uiso   1.00
C439   C     0.65153   0.62454   0.20441   0.00000  Uiso   1.00
C440   C     0.84836   0.87534   0.12901   0.00000  Uiso   1.00
C441   C     0.59549   0.84062   0.16914   0.00000  Uiso   1.00
C442   C     0.90454   0.65936   0.16420   0.00000  Uiso   1.00
C443   C     0.90452   0.84062   0.16914   0.00000  Uiso   1.00
C444   C     0.59550   0.65940   0.16419   0.00000  Uiso   1.00
C445   C     0.84547   0.59063   0.16914   0.00000  Uiso   1.00
C446   C     0.65451   0.90939   0.16419   0.00000  Uiso   1.00
C447   C     0.65450   0.59060   0.16914   0.00000  Uiso   1.00
C448   C     0.84547   0.90937   0.16419   0.00000  Uiso   1.00
O449   O     0.99997   0.83242   0.04859   0.00000  Uiso   1.00
H450   H     0.50000   0.82853   0.08083   0.00000  Uiso   1.00
O451   O     0.50004   0.66758   0.28474   0.00000  Uiso   1.00
H452   H     0.99999   0.67147   0.25250   0.00000  Uiso   1.00
O453   O     0.50005   0.66839   0.03992   0.00000  Uiso   1.00
H454   H     0.50002   0.67377   0.07265   0.00000  Uiso   1.00
O455   O     0.99999   0.83161   0.29342   0.00000  Uiso   1.00
H456   H     0.50000   0.82623   0.26069   0.00000  Uiso   1.00
O457   O     0.74999   0.58242   0.04859   0.00000  Uiso   1.00
H458   H     0.75000   0.57853   0.08083   0.00000  Uiso   1.00
O459   O     0.75000   0.91758   0.28474   0.00000  Uiso   1.00
H460   H     0.75000   0.92147   0.25250   0.00000  Uiso   1.00
O461   O     0.74998   0.91839   0.03992   0.00000  Uiso   1.00
H462   H     0.74999   0.92377   0.07265   0.00000  Uiso   1.00
O463   O     0.74997   0.58161   0.29342   0.00000  Uiso   1.00
H464   H     0.74999   0.57623   0.26069   0.00000  Uiso   1.00
N465   N     0.92778   0.62590   0.09001   0.00000  Uiso   1.00
O466   O     0.91570   0.65006   0.05721   0.00000  Uiso   1.00
O467   O     0.95548   0.59367   0.08225   0.00000  Uiso   1.00
N468   N     0.57245   0.87387   0.24349   0.00000  Uiso   1.00
O469   O     0.58454   0.84944   0.27609   0.00000  Uiso   1.00
O470   O     0.54488   0.90618   0.25155   0.00000  Uiso   1.00
N471   N     0.62313   0.80285   0.09851   0.00000  Uiso   1.00
O472   O     0.62882   0.76122   0.10994   0.00000  Uiso   1.00
O473   O     0.61698   0.81042   0.05651   0.00000  Uiso   1.00
N474   N     0.87673   0.69732   0.23466   0.00000  Uiso   1.00
O475   O     0.87115   0.73891   0.22308   0.00000  Uiso   1.00
O476   O     0.88266   0.68986   0.27672   0.00000  Uiso   1.00
N477   N     0.62311   0.69713   0.23485   0.00000  Uiso   1.00
O478   O     0.62877   0.73876   0.22343   0.00000  Uiso   1.00
O479   O     0.61704   0.68954   0.27686   0.00000  Uiso   1.00
N480   N     0.87675   0.80271   0.09864   0.00000  Uiso   1.00
O481   O     0.87119   0.76111   0.11019   0.00000  Uiso   1.00
O482   O     0.88266   0.81019   0.05658   0.00000  Uiso   1.00
N483   N     0.92764   0.87397   0.24342   0.00000  Uiso   1.00
O484   O     0.91555   0.84962   0.27609   0.00000  Uiso   1.00
O485   O     0.95524   0.90627   0.25140   0.00000  Uiso   1.00
N486   N     0.57261   0.62628   0.08973   0.00000  Uiso   1.00
O487   O     0.58470   0.65097   0.05732   0.00000  Uiso   1.00
O488   O     0.54518   0.59389   0.08139   0.00000  Uiso   1.00
N489   N     0.67748   0.87620   0.08979   0.00000  Uiso   1.00
O490   O     0.66539   0.90076   0.05729   0.00000  Uiso   1.00
O491   O     0.70497   0.84383   0.08158   0.00000  Uiso   1.00
N492   N     0.82229   0.62404   0.24337   0.00000  Uiso   1.00
O493   O     0.83437   0.59977   0.27610   0.00000  Uiso   1.00
O494   O     0.79466   0.65631   0.25126   0.00000  Uiso   1.00
N495   N     0.87329   0.55266   0.09869   0.00000  Uiso   1.00
O496   O     0.87883   0.51106   0.11028   0.00000  Uiso   1.00
O497   O     0.86744   0.56011   0.05662   0.00000  Uiso   1.00
N498   N     0.62684   0.94718   0.23480   0.00000  Uiso   1.00
O499   O     0.62120   0.98880   0.22333   0.00000  Uiso   1.00
O500   O     0.63287   0.93963   0.27682   0.00000  Uiso   1.00
N501   N     0.87323   0.94727   0.23471   0.00000  Uiso   1.00
O502   O     0.87883   0.98887   0.22318   0.00000  Uiso   1.00
O503   O     0.86727   0.93977   0.27675   0.00000  Uiso   1.00
N504   N     0.62692   0.55290   0.09845   0.00000  Uiso   1.00
O505   O     0.62121   0.51126   0.10983   0.00000  Uiso   1.00
O506   O     0.63312   0.56052   0.05647   0.00000  Uiso   1.00
N507   N     0.67745   0.62377   0.24355   0.00000  Uiso   1.00
O508   O     0.66536   0.59925   0.27607   0.00000  Uiso   1.00
O509   O     0.70498   0.65611   0.25172   0.00000  Uiso   1.00
N510   N     0.82231   0.87599   0.08995   0.00000  Uiso   1.00
O511   O     0.83440   0.90025   0.05722   0.00000  Uiso   1.00
O512   O     0.79466   0.84373   0.08207   0.00000  Uiso   1.00
O513   O     0.04580   0.20419   0.53821   0.00000  Uiso   1.00
O514   O     0.45419   0.29581   0.46179   0.00000  Uiso   1.00
O515   O     0.45419   0.29581   0.53821   0.00000  Uiso   1.00
O516   O     0.04580   0.20419   0.46179   0.00000  Uiso   1.00
O517   O     0.45419   0.20419   0.46179   0.00000  Uiso   1.00
O518   O     0.04580   0.29581   0.53821   0.00000  Uiso   1.00
O519   O     0.04580   0.29581   0.46179   0.00000  Uiso   1.00
O520   O     0.45419   0.20419   0.53821   0.00000  Uiso   1.00
O521   O     0.29580   0.45419   0.53821   0.00000  Uiso   1.00
O522   O     0.20419   0.04581   0.46179   0.00000  Uiso   1.00
O523   O     0.20419   0.04581   0.53821   0.00000  Uiso   1.00
O524   O     0.29580   0.45419   0.46179   0.00000  Uiso   1.00
O525   O     0.20419   0.45419   0.46179   0.00000  Uiso   1.00
O526   O     0.29580   0.04581   0.53821   0.00000  Uiso   1.00
O527   O     0.29580   0.04581   0.46179   0.00000  Uiso   1.00
O528   O     0.20419   0.45419   0.53821   0.00000  Uiso   1.00
C529   C     0.06067   0.19086   0.49911   0.00000  Uiso   1.00
C530   C     0.43934   0.30916   0.50089   0.00000  Uiso   1.00
C531   C     0.43935   0.19084   0.49911   0.00000  Uiso   1.00
C532   C     0.06067   0.30915   0.50089   0.00000  Uiso   1.00
C533   C     0.31066   0.44084   0.49911   0.00000  Uiso   1.00
C534   C     0.18933   0.05914   0.50089   0.00000  Uiso   1.00
C535   C     0.18933   0.44085   0.49911   0.00000  Uiso   1.00
C536   C     0.31066   0.05916   0.50089   0.00000  Uiso   1.00
N537   N     0.00000   0.25000   0.61907   0.00000  Uiso   1.00
N538   N    -0.00000   0.25000   0.38093   0.00000  Uiso   1.00
N539   N     0.25000  -0.00000   0.61907   0.00000  Uiso   1.00
N540   N     0.25000  -0.00000   0.38093   0.00000  Uiso   1.00
Zn541  Zn   -0.00000   0.25000   0.55104   0.00000  Uiso   1.00
Zn542  Zn   -0.00000   0.25000   0.44896   0.00000  Uiso   1.00
Zn543  Zn    0.25000  -0.00000   0.55104   0.00000  Uiso   1.00
Zn544  Zn    0.25000  -0.00000   0.44896   0.00000  Uiso   1.00
C545   C     0.49999   0.29019   0.35922   0.00000  Uiso   1.00
C546   C     0.00002   0.20981   0.64078   0.00000  Uiso   1.00
C547   C     0.00002   0.20997   0.35474   0.00000  Uiso   1.00
C548   C     0.49999   0.29003   0.64526   0.00000  Uiso   1.00
C549   C     0.24999   0.04019   0.35922   0.00000  Uiso   1.00
C550   C     0.25000   0.45981   0.64078   0.00000  Uiso   1.00
C551   C     0.25000   0.45997   0.35474   0.00000  Uiso   1.00
C552   C     0.24999   0.04003   0.64526   0.00000  Uiso   1.00
C553   C     0.40168   0.12530   0.46237   0.00000  Uiso   1.00
C554   C     0.09842   0.37459   0.53771   0.00000  Uiso   1.00
C555   C     0.12309   0.34004   0.46555   0.00000  Uiso   1.00
C556   C     0.37685   0.16004   0.53438   0.00000  Uiso   1.00
C557   C     0.12307   0.15994   0.53447   0.00000  Uiso   1.00
C558   C     0.37686   0.33997   0.46560   0.00000  Uiso   1.00
C559   C     0.40163   0.37464   0.53767   0.00000  Uiso   1.00
C560   C     0.09847   0.12547   0.46225   0.00000  Uiso   1.00
C561   C     0.15156   0.37543   0.46228   0.00000  Uiso   1.00
C562   C     0.34834   0.12467   0.53765   0.00000  Uiso   1.00
C563   C     0.37317   0.08995   0.46563   0.00000  Uiso   1.00
C564   C     0.12690   0.40997   0.53444   0.00000  Uiso   1.00
C565   C     0.37313   0.41002   0.53440   0.00000  Uiso   1.00
C566   C     0.12693   0.09006   0.46552   0.00000  Uiso   1.00
C567   C     0.15153   0.12454   0.53774   0.00000  Uiso   1.00
C568   C     0.34836   0.37534   0.46234   0.00000  Uiso   1.00
C569   C     0.09549   0.34062   0.50247   0.00000  Uiso   1.00
C570   C     0.40454   0.15936   0.49753   0.00000  Uiso   1.00
C571   C     0.40452   0.34062   0.50248   0.00000  Uiso   1.00
C572   C     0.09550   0.15940   0.49752   0.00000  Uiso   1.00
C573   C     0.34547   0.09063   0.50248   0.00000  Uiso   1.00
C574   C     0.15451   0.40939   0.49752   0.00000  Uiso   1.00
C575   C     0.15450   0.09060   0.50247   0.00000  Uiso   1.00
C576   C     0.34547   0.40937   0.49753   0.00000  Uiso   1.00
O577   O     0.49997   0.33242   0.38193   0.00000  Uiso   1.00
H578   H     0.00000   0.32853   0.41417   0.00000  Uiso   1.00
O579   O     0.00004   0.16758   0.61807   0.00000  Uiso   1.00
H580   H     0.49999   0.17147   0.58583   0.00000  Uiso   1.00
O581   O     0.00005   0.16839   0.37325   0.00000  Uiso   1.00
H582   H     0.00002   0.17377   0.40598   0.00000  Uiso   1.00
O583   O     0.49999   0.33161   0.62675   0.00000  Uiso   1.00
H584   H     0.00000   0.32623   0.59402   0.00000  Uiso   1.00
O585   O     0.24999   0.08242   0.38193   0.00000  Uiso   1.00
H586   H     0.25000   0.07853   0.41417   0.00000  Uiso   1.00
O587   O     0.25000   0.41758   0.61807   0.00000  Uiso   1.00
H588   H     0.25000   0.42147   0.58583   0.00000  Uiso   1.00
O589   O     0.24998   0.41839   0.37325   0.00000  Uiso   1.00
H590   H     0.24999   0.42377   0.40598   0.00000  Uiso   1.00
O591   O     0.24997   0.08161   0.62675   0.00000  Uiso   1.00
H592   H     0.24999   0.07623   0.59402   0.00000  Uiso   1.00
N593   N     0.42778   0.12590   0.42334   0.00000  Uiso   1.00
O594   O     0.41570   0.15006   0.39054   0.00000  Uiso   1.00
O595   O     0.45548   0.09367   0.41558   0.00000  Uiso   1.00
N596   N     0.07245   0.37387   0.57682   0.00000  Uiso   1.00
O597   O     0.08454   0.34944   0.60943   0.00000  Uiso   1.00
O598   O     0.04488   0.40618   0.58488   0.00000  Uiso   1.00
N599   N     0.12313   0.30285   0.43184   0.00000  Uiso   1.00
O600   O     0.12882   0.26122   0.44327   0.00000  Uiso   1.00
O601   O     0.11698   0.31042   0.38984   0.00000  Uiso   1.00
N602   N     0.37673   0.19732   0.56799   0.00000  Uiso   1.00
O603   O     0.37115   0.23891   0.55642   0.00000  Uiso   1.00
O604   O     0.38266   0.18986   0.61005   0.00000  Uiso   1.00
N605   N     0.12311   0.19713   0.56818   0.00000  Uiso   1.00
O606   O     0.12877   0.23876   0.55676   0.00000  Uiso   1.00
O607   O     0.11704   0.18954   0.61019   0.00000  Uiso   1.00
N608   N     0.37675   0.30271   0.43198   0.00000  Uiso   1.00
O609   O     0.37119   0.26111   0.44353   0.00000  Uiso   1.00
O610   O     0.38266   0.31019   0.38992   0.00000  Uiso   1.00
N611   N     0.42764   0.37397   0.57676   0.00000  Uiso   1.00
O612   O     0.41555   0.34962   0.60942   0.00000  Uiso   1.00
O613   O     0.45524   0.40627   0.58473   0.00000  Uiso   1.00
N614   N     0.07261   0.12628   0.42306   0.00000  Uiso   1.00
O615   O     0.08470   0.15097   0.39065   0.00000  Uiso   1.00
O616   O     0.04518   0.09389   0.41473   0.00000  Uiso   1.00
N617   N     0.17748   0.37620   0.42313   0.00000  Uiso   1.00
O618   O     0.16539   0.40076   0.39063   0.00000  Uiso   1.00
O619   O     0.20497   0.34383   0.41492   0.00000  Uiso   1.00
N620   N     0.32229   0.12404   0.57671   0.00000  Uiso   1.00
O621   O     0.33437   0.09977   0.60943   0.00000  Uiso   1.00
O622   O     0.29466   0.15631   0.58459   0.00000  Uiso   1.00
N623   N     0.37329   0.05266   0.43203   0.00000  Uiso   1.00
O624   O     0.37883   0.01106   0.44362   0.00000  Uiso   1.00
O625   O     0.36744   0.06011   0.38995   0.00000  Uiso   1.00
N626   N     0.12684   0.44718   0.56813   0.00000  Uiso   1.00
O627   O     0.12120   0.48880   0.55667   0.00000  Uiso   1.00
O628   O     0.13287   0.43963   0.61015   0.00000  Uiso   1.00
N629   N     0.37323   0.44727   0.56804   0.00000  Uiso   1.00
O630   O     0.37883   0.48887   0.55651   0.00000  Uiso   1.00
O631   O     0.36727   0.43977   0.61009   0.00000  Uiso   1.00
N632   N     0.12692   0.05290   0.43178   0.00000  Uiso   1.00
O633   O     0.12121   0.01126   0.44317   0.00000  Uiso   1.00
O634   O     0.13312   0.06052   0.38980   0.00000  Uiso   1.00
N635   N     0.17745   0.12377   0.57688   0.00000  Uiso   1.00
O636   O     0.16536   0.09925   0.60940   0.00000  Uiso   1.00
O637   O     0.20498   0.15611   0.58506   0.00000  Uiso   1.00
N638   N     0.32231   0.37599   0.42328   0.00000  Uiso   1.00
O639   O     0.33440   0.40025   0.39056   0.00000  Uiso   1.00
O640   O     0.29466   0.34373   0.41540   0.00000  Uiso   1.00
O641   O     0.54580   0.20419   0.53821   0.00000  Uiso   1.00
O642   O     0.95419   0.29581   0.46179   0.00000  Uiso   1.00
O643   O     0.95419   0.29581   0.53821   0.00000  Uiso   1.00
O644   O     0.54580   0.20419   0.46179   0.00000  Uiso   1.00
O645   O     0.95419   0.20419   0.46179   0.00000  Uiso   1.00
O646   O     0.54580   0.29581   0.53821   0.00000  Uiso   1.00
O647   O     0.54580   0.29581   0.46179   0.00000  Uiso   1.00
O648   O     0.95419   0.20419   0.53821   0.00000  Uiso   1.00
O649   O     0.79580   0.45419   0.53821   0.00000  Uiso   1.00
O650   O     0.70419   0.04581   0.46179   0.00000  Uiso   1.00
O651   O     0.70419   0.04581   0.53821   0.00000  Uiso   1.00
O652   O     0.79580   0.45419   0.46179   0.00000  Uiso   1.00
O653   O     0.70419   0.45419   0.46179   0.00000  Uiso   1.00
O654   O     0.79580   0.04581   0.53821   0.00000  Uiso   1.00
O655   O     0.79580   0.04581   0.46179   0.00000  Uiso   1.00
O656   O     0.70419   0.45419   0.53821   0.00000  Uiso   1.00
C657   C     0.56067   0.19086   0.49911   0.00000  Uiso   1.00
C658   C     0.93934   0.30916   0.50089   0.00000  Uiso   1.00
C659   C     0.93935   0.19084   0.49911   0.00000  Uiso   1.00
C660   C     0.56067   0.30915   0.50089   0.00000  Uiso   1.00
C661   C     0.81066   0.44084   0.49911   0.00000  Uiso   1.00
C662   C     0.68933   0.05914   0.50089   0.00000  Uiso   1.00
C663   C     0.68933   0.44085   0.49911   0.00000  Uiso   1.00
C664   C     0.81066   0.05916   0.50089   0.00000  Uiso   1.00
N665   N     0.50000   0.25000   0.61907   0.00000  Uiso   1.00
N666   N     0.50000   0.25000   0.38093   0.00000  Uiso   1.00
N667   N     0.75000  -0.00000   0.61907   0.00000  Uiso   1.00
N668   N     0.75000  -0.00000   0.38093   0.00000  Uiso   1.00
Zn669  Zn    0.50000   0.25000   0.55104   0.00000  Uiso   1.00
Zn670  Zn    0.50000   0.25000   0.44896   0.00000  Uiso   1.00
Zn671  Zn    0.75000  -0.00000   0.55104   0.00000  Uiso   1.00
Zn672  Zn    0.75000  -0.00000   0.44896   0.00000  Uiso   1.00
C673   C     0.99999   0.29019   0.35922   0.00000  Uiso   1.00
C674   C     0.50002   0.20981   0.64078   0.00000  Uiso   1.00
C675   C     0.50002   0.20997   0.35474   0.00000  Uiso   1.00
C676   C     0.99999   0.29003   0.64526   0.00000  Uiso   1.00
C677   C     0.74999   0.04019   0.35922   0.00000  Uiso   1.00
C678   C     0.75000   0.45981   0.64078   0.00000  Uiso   1.00
C679   C     0.75000   0.45997   0.35474   0.00000  Uiso   1.00
C680   C     0.74999   0.04003   0.64526   0.00000  Uiso   1.00
C681   C     0.90168   0.12530   0.46237   0.00000  Uiso   1.00
C682   C     0.59842   0.37459   0.53771   0.00000  Uiso   1.00
C683   C     0.62309   0.34004   0.46555   0.00000  Uiso   1.00
C684   C     0.87685   0.16004   0.53438   0.00000  Uiso   1.00
C685   C     0.62307   0.15994   0.53447   0.00000  Uiso   1.00
C686   C     0.87686   0.33997   0.46560   0.00000  Uiso   1.00
C687   C     0.90163   0.37464   0.53767   0.00000  Uiso   1.00
C688   C     0.59847   0.12547   0.46225   0.00000  Uiso   1.00
C689   C     0.65156   0.37543   0.46228   0.00000  Uiso   1.00
C690   C     0.84834   0.12467   0.53765   0.00000  Uiso   1.00
C691   C     0.87317   0.08995   0.46563   0.00000  Uiso   1.00
C692   C     0.62690   0.40997   0.53444   0.00000  Uiso   1.00
C693   C     0.87313   0.41002   0.53440   0.00000  Uiso   1.00
C694   C     0.62693   0.09006   0.46552   0.00000  Uiso   1.00
C695   C     0.65153   0.12454   0.53774   0.00000  Uiso   1.00
C696   C     0.84836   0.37534   0.46234   0.00000  Uiso   1.00
C697   C     0.59549   0.34062   0.50247   0.00000  Uiso   1.00
C698   C     0.90454   0.15936   0.49753   0.00000  Uiso   1.00
C699   C     0.90452   0.34062   0.50248   0.00000  Uiso   1.00
C700   C     0.59550   0.15940   0.49752   0.00000  Uiso   1.00
C701   C     0.84547   0.09063   0.50248   0.00000  Uiso   1.00
C702   C     0.65451   0.40939   0.49752   0.00000  Uiso   1.00
C703   C     0.65450   0.09060   0.50247   0.00000  Uiso   1.00
C704   C     0.84547   0.40937   0.49753   0.00000  Uiso   1.00
O705   O     0.99997   0.33242   0.38193   0.00000  Uiso   1.00
H706   H     0.50000   0.32853   0.41417   0.00000  Uiso   1.00
O707   O     0.50004   0.16758   0.61807   0.00000  Uiso   1.00
H708   H     0.99999   0.17147   0.58583   0.00000  Uiso   1.00
O709   O     0.50005   0.16839   0.37325   0.00000  Uiso   1.00
H710   H     0.50002   0.17377   0.40598   0.00000  Uiso   1.00
O711   O     0.99999   0.33161   0.62675   0.00000  Uiso   1.00
H712   H     0.50000   0.32623   0.59402   0.00000  Uiso   1.00
O713   O     0.74999   0.08242   0.38193   0.00000  Uiso   1.00
H714   H     0.75000   0.07853   0.41417   0.00000  Uiso   1.00
O715   O     0.75000   0.41758   0.61807   0.00000  Uiso   1.00
H716   H     0.75000   0.42147   0.58583   0.00000  Uiso   1.00
O717   O     0.74998   0.41839   0.37325   0.00000  Uiso   1.00
H718   H     0.74999   0.42377   0.40598   0.00000  Uiso   1.00
O719   O     0.74997   0.08161   0.62675   0.00000  Uiso   1.00
H720   H     0.74999   0.07623   0.59402   0.00000  Uiso   1.00
N721   N     0.92778   0.12590   0.42334   0.00000  Uiso   1.00
O722   O     0.91570   0.15006   0.39054   0.00000  Uiso   1.00
O723   O     0.95548   0.09367   0.41558   0.00000  Uiso   1.00
N724   N     0.57245   0.37387   0.57682   0.00000  Uiso   1.00
O725   O     0.58454   0.34944   0.60943   0.00000  Uiso   1.00
O726   O     0.54488   0.40618   0.58488   0.00000  Uiso   1.00
N727   N     0.62313   0.30285   0.43184   0.00000  Uiso   1.00
O728   O     0.62882   0.26122   0.44327   0.00000  Uiso   1.00
O729   O     0.61698   0.31042   0.38984   0.00000  Uiso   1.00
N730   N     0.87673   0.19732   0.56799   0.00000  Uiso   1.00
O731   O     0.87115   0.23891   0.55642   0.00000  Uiso   1.00
O732   O     0.88266   0.18986   0.61005   0.00000  Uiso   1.00
N733   N     0.62311   0.19713   0.56818   0.00000  Uiso   1.00
O734   O     0.62877   0.23876   0.55676   0.00000  Uiso   1.00
O735   O     0.61704   0.18954   0.61019   0.00000  Uiso   1.00
N736   N     0.87675   0.30271   0.43198   0.00000  Uiso   1.00
O737   O     0.87119   0.26111   0.44353   0.00000  Uiso   1.00
O738   O     0.88266   0.31019   0.38992   0.00000  Uiso   1.00
N739   N     0.92764   0.37397   0.57676   0.00000  Uiso   1.00
O740   O     0.91555   0.34962   0.60942   0.00000  Uiso   1.00
O741   O     0.95524   0.40627   0.58473   0.00000  Uiso   1.00
N742   N     0.57261   0.12628   0.42306   0.00000  Uiso   1.00
O743   O     0.58470   0.15097   0.39065   0.00000  Uiso   1.00
O744   O     0.54518   0.09389   0.41473   0.00000  Uiso   1.00
N745   N     0.67748   0.37620   0.42313   0.00000  Uiso   1.00
O746   O     0.66539   0.40076   0.39063   0.00000  Uiso   1.00
O747   O     0.70497   0.34383   0.41492   0.00000  Uiso   1.00
N748   N     0.82229   0.12404   0.57671   0.00000  Uiso   1.00
O749   O     0.83437   0.09977   0.60943   0.00000  Uiso   1.00
O750   O     0.79466   0.15631   0.58459   0.00000  Uiso   1.00
N751   N     0.87329   0.05266   0.43203   0.00000  Uiso   1.00
O752   O     0.87883   0.01106   0.44362   0.00000  Uiso   1.00
O753   O     0.86744   0.06011   0.38995   0.00000  Uiso   1.00
N754   N     0.62684   0.44718   0.56813   0.00000  Uiso   1.00
O755   O     0.62120   0.48880   0.55667   0.00000  Uiso   1.00
O756   O     0.63287   0.43963   0.61015   0.00000  Uiso   1.00
N757   N     0.87323   0.44727   0.56804   0.00000  Uiso   1.00
O758   O     0.87883   0.48887   0.55651   0.00000  Uiso   1.00
O759   O     0.86727   0.43977   0.61009   0.00000  Uiso   1.00
N760   N     0.62692   0.05290   0.43178   0.00000  Uiso   1.00
O761   O     0.62121   0.01126   0.44317   0.00000  Uiso   1.00
O762   O     0.63312   0.06052   0.38980   0.00000  Uiso   1.00
N763   N     0.67745   0.12377   0.57688   0.00000  Uiso   1.00
O764   O     0.66536   0.09925   0.60940   0.00000  Uiso   1.00
O765   O     0.70498   0.15611   0.58506   0.00000  Uiso   1.00
N766   N     0.82231   0.37599   0.42328   0.00000  Uiso   1.00
O767   O     0.83440   0.40025   0.39056   0.00000  Uiso   1.00
O768   O     0.79466   0.34373   0.41540   0.00000  Uiso   1.00
O769   O     0.04580   0.70419   0.53821   0.00000  Uiso   1.00
O770   O     0.45419   0.79581   0.46179   0.00000  Uiso   1.00
O771   O     0.45419   0.79581   0.53821   0.00000  Uiso   1.00
O772   O     0.04580   0.70419   0.46179   0.00000  Uiso   1.00
O773   O     0.45419   0.70419   0.46179   0.00000  Uiso   1.00
O774   O     0.04580   0.79581   0.53821   0.00000  Uiso   1.00
O775   O     0.04580   0.79581   0.46179   0.00000  Uiso   1.00
O776   O     0.45419   0.70419   0.53821   0.00000  Uiso   1.00
O777   O     0.29580   0.95419   0.53821   0.00000  Uiso   1.00
O778   O     0.20419   0.54581   0.46179   0.00000  Uiso   1.00
O779   O     0.20419   0.54581   0.53821   0.00000  Uiso   1.00
O780   O     0.29580   0.95419   0.46179   0.00000  Uiso   1.00
O781   O     0.20419   0.95419   0.46179   0.00000  Uiso   1.00
O782   O     0.29580   0.54581   0.53821   0.00000  Uiso   1.00
O783   O     0.29580   0.54581   0.46179   0.00000  Uiso   1.00
O784   O     0.20419   0.95419   0.53821   0.00000  Uiso   1.00
C785   C     0.06067   0.69086   0.49911   0.00000  Uiso   1.00
C786   C     0.43934   0.80916   0.50089   0.00000  Uiso   1.00
C787   C     0.43935   0.69084   0.49911   0.00000  Uiso   1.00
C788   C     0.06067   0.80915   0.50089   0.00000  Uiso   1.00
C789   C     0.31066   0.94084   0.49911   0.00000  Uiso   1.00
C790   C     0.18933   0.55914   0.50089   0.00000  Uiso   1.00
C791   C     0.18933   0.94085   0.49911   0.00000  Uiso   1.00
C792   C     0.31066   0.55916   0.50089   0.00000  Uiso   1.00
N793   N     0.00000   0.75000   0.61907   0.00000  Uiso   1.00
N794   N    -0.00000   0.75000   0.38093   0.00000  Uiso   1.00
N795   N     0.25000   0.50000   0.61907   0.00000  Uiso   1.00
N796   N     0.25000   0.50000   0.38093   0.00000  Uiso   1.00
Zn797  Zn   -0.00000   0.75000   0.55104   0.00000  Uiso   1.00
Zn798  Zn   -0.00000   0.75000   0.44896   0.00000  Uiso   1.00
Zn799  Zn    0.25000   0.50000   0.55104   0.00000  Uiso   1.00
Zn800  Zn    0.25000   0.50000   0.44896   0.00000  Uiso   1.00
C801   C     0.49999   0.79019   0.35922   0.00000  Uiso   1.00
C802   C     0.00002   0.70981   0.64078   0.00000  Uiso   1.00
C803   C     0.00002   0.70997   0.35474   0.00000  Uiso   1.00
C804   C     0.49999   0.79003   0.64526   0.00000  Uiso   1.00
C805   C     0.24999   0.54019   0.35922   0.00000  Uiso   1.00
C806   C     0.25000   0.95981   0.64078   0.00000  Uiso   1.00
C807   C     0.25000   0.95997   0.35474   0.00000  Uiso   1.00
C808   C     0.24999   0.54003   0.64526   0.00000  Uiso   1.00
C809   C     0.40168   0.62530   0.46237   0.00000  Uiso   1.00
C810   C     0.09842   0.87459   0.53771   0.00000  Uiso   1.00
C811   C     0.12309   0.84004   0.46555   0.00000  Uiso   1.00
C812   C     0.37685   0.66004   0.53438   0.00000  Uiso   1.00
C813   C     0.12307   0.65994   0.53447   0.00000  Uiso   1.00
C814   C     0.37686   0.83997   0.46560   0.00000  Uiso   1.00
C815   C     0.40163   0.87464   0.53767   0.00000  Uiso   1.00
C816   C     0.09847   0.62547   0.46225   0.00000  Uiso   1.00
C817   C     0.15156   0.87543   0.46228   0.00000  Uiso   1.00
C818   C     0.34834   0.62467   0.53765   0.00000  Uiso   1.00
C819   C     0.37317   0.58995   0.46563   0.00000  Uiso   1.00
C820   C     0.12690   0.90997   0.53444   0.00000  Uiso   1.00
C821   C     0.37313   0.91002   0.53440   0.00000  Uiso   1.00
C822   C     0.12693   0.59006   0.46552   0.00000  Uiso   1.00
C823   C     0.15153   0.62454   0.53774   0.00000  Uiso   1.00
C824   C     0.34836   0.87534   0.46234   0.00000  Uiso   1.00
C825   C     0.09549   0.84062   0.50247   0.00000  Uiso   1.00
C826   C     0.40454   0.65936   0.49753   0.00000  Uiso   1.00
C827   C     0.40452   0.84062   0.50248   0.00000  Uiso   1.00
C828   C     0.09550   0.65940   0.49752   0.00000  Uiso   1.00
C829   C     0.34547   0.59063   0.50248   0.00000  Uiso   1.00
C830   C     0.15451   0.90939   0.49752   0.00000  Uiso   1.00
C831   C     0.15450   0.59060   0.50247   0.00000  Uiso   1.00
C832   C     0.34547   0.90937   0.49753   0.00000  Uiso   1.00
O833   O     0.49997   0.83242   0.38193   0.00000  Uiso   1.00
H834   H     0.00000   0.82853   0.41417   0.00000  Uiso   1.00
O835   O     0.00004   0.66758   0.61807   0.00000  Uiso   1.00
H836   H     0.49999   0.67147   0.58583   0.00000  Uiso   1.00
O837   O     0.00005   0.66839   0.37325   0.00000  Uiso   1.00
H838   H     0.00002   0.67377   0.40598   0.00000  Uiso   1.00
O839   O     0.49999   0.83161   0.62675   0.00000  Uiso   1.00
H840   H     0.00000   0.82623   0.59402   0.00000  Uiso   1.00
O841   O     0.24999   0.58242   0.38193   0.00000  Uiso   1.00
H842   H     0.25000   0.57853   0.41417   0.00000  Uiso   1.00
O843   O     0.25000   0.91758   0.61807   0.00000  Uiso   1.00
H844   H     0.25000   0.92147   0.58583   0.00000  Uiso   1.00
O845   O     0.24998   0.91839   0.37325   0.00000  Uiso   1.00
H846   H     0.24999   0.92377   0.40598   0.00000  Uiso   1.00
O847   O     0.24997   0.58161   0.62675   0.00000  Uiso   1.00
H848   H     0.24999   0.57623   0.59402   0.00000  Uiso   1.00
N849   N     0.42778   0.62590   0.42334   0.00000  Uiso   1.00
O850   O     0.41570   0.65006   0.39054   0.00000  Uiso   1.00
O851   O     0.45548   0.59367   0.41558   0.00000  Uiso   1.00
N852   N     0.07245   0.87387   0.57682   0.00000  Uiso   1.00
O853   O     0.08454   0.84944   0.60943   0.00000  Uiso   1.00
O854   O     0.04488   0.90618   0.58488   0.00000  Uiso   1.00
N855   N     0.12313   0.80285   0.43184   0.00000  Uiso   1.00
O856   O     0.12882   0.76122   0.44327   0.00000  Uiso   1.00
O857   O     0.11698   0.81042   0.38984   0.00000  Uiso   1.00
N858   N     0.37673   0.69732   0.56799   0.00000  Uiso   1.00
O859   O     0.37115   0.73891   0.55642   0.00000  Uiso   1.00
O860   O     0.38266   0.68986   0.61005   0.00000  Uiso   1.00
N861   N     0.12311   0.69713   0.56818   0.00000  Uiso   1.00
O862   O     0.12877   0.73876   0.55676   0.00000  Uiso   1.00
O863   O     0.11704   0.68954   0.61019   0.00000  Uiso   1.00
N864   N     0.37675   0.80271   0.43198   0.00000  Uiso   1.00
O865   O     0.37119   0.76111   0.44353   0.00000  Uiso   1.00
O866   O     0.38266   0.81019   0.38992   0.00000  Uiso   1.00
N867   N     0.42764   0.87397   0.57676   0.00000  Uiso   1.00
O868   O     0.41555   0.84962   0.60942   0.00000  Uiso   1.00
O869   O     0.45524   0.90627   0.58473   0.00000  Uiso   1.00
N870   N     0.07261   0.62628   0.42306   0.00000  Uiso   1.00
O871   O     0.08470   0.65097   0.39065   0.00000  Uiso   1.00
O872   O     0.04518   0.59389   0.41473   0.00000  Uiso   1.00
N873   N     0.17748   0.87620   0.42313   0.00000  Uiso   1.00
O874   O     0.16539   0.90076   0.39063   0.00000  Uiso   1.00
O875   O     0.20497   0.84383   0.41492   0.00000  Uiso   1.00
N876   N     0.32229   0.62404   0.57671   0.00000  Uiso   1.00
O877   O     0.33437   0.59977   0.60943   0.00000  Uiso   1.00
O878   O     0.29466   0.65631   0.58459   0.00000  Uiso   1.00
N879   N     0.37329   0.55266   0.43203   0.00000  Uiso   1.00
O880   O     0.37883   0.51106   0.44362   0.00000  Uiso   1.00
O881   O     0.36744   0.56011   0.38995   0.00000  Uiso   1.00
N882   N     0.12684   0.94718   0.56813   0.00000  Uiso   1.00
O883   O     0.12120   0.98880   0.55667   0.00000  Uiso   1.00
O884   O     0.13287   0.93963   0.61015   0.00000  Uiso   1.00
N885   N     0.37323   0.94727   0.56804   0.00000  Uiso   1.00
O886   O     0.37883   0.98887   0.55651   0.00000  Uiso   1.00
O887   O     0.36727   0.93977   0.61009   0.00000  Uiso   1.00
N888   N     0.12692   0.55290   0.43178   0.00000  Uiso   1.00
O889   O     0.12121   0.51126   0.44317   0.00000  Uiso   1.00
O890   O     0.13312   0.56052   0.38980   0.00000  Uiso   1.00
N891   N     0.17745   0.62377   0.57688   0.00000  Uiso   1.00
O892   O     0.16536   0.59925   0.60940   0.00000  Uiso   1.00
O893   O     0.20498   0.65611   0.58506   0.00000  Uiso   1.00
N894   N     0.32231   0.87599   0.42328   0.00000  Uiso   1.00
O895   O     0.33440   0.90025   0.39056   0.00000  Uiso   1.00
O896   O     0.29466   0.84373   0.41540   0.00000  Uiso   1.00
O897   O     0.54580   0.70419   0.53821   0.00000  Uiso   1.00
O898   O     0.95419   0.79581   0.46179   0.00000  Uiso   1.00
O899   O     0.95419   0.79581   0.53821   0.00000  Uiso   1.00
O900   O     0.54580   0.70419   0.46179   0.00000  Uiso   1.00
O901   O     0.95419   0.70419   0.46179   0.00000  Uiso   1.00
O902   O     0.54580   0.79581   0.53821   0.00000  Uiso   1.00
O903   O     0.54580   0.79581   0.46179   0.00000  Uiso   1.00
O904   O     0.95419   0.70419   0.53821   0.00000  Uiso   1.00
O905   O     0.79580   0.95419   0.53821   0.00000  Uiso   1.00
O906   O     0.70419   0.54581   0.46179   0.00000  Uiso   1.00
O907   O     0.70419   0.54581   0.53821   0.00000  Uiso   1.00
O908   O     0.79580   0.95419   0.46179   0.00000  Uiso   1.00
O909   O     0.70419   0.95419   0.46179   0.00000  Uiso   1.00
O910   O     0.79580   0.54581   0.53821   0.00000  Uiso   1.00
O911   O     0.79580   0.54581   0.46179   0.00000  Uiso   1.00
O912   O     0.70419   0.95419   0.53821   0.00000  Uiso   1.00
C913   C     0.56067   0.69086   0.49911   0.00000  Uiso   1.00
C914   C     0.93934   0.80916   0.50089   0.00000  Uiso   1.00
C915   C     0.93935   0.69084   0.49911   0.00000  Uiso   1.00
C916   C     0.56067   0.80915   0.50089   0.00000  Uiso   1.00
C917   C     0.81066   0.94084   0.49911   0.00000  Uiso   1.00
C918   C     0.68933   0.55914   0.50089   0.00000  Uiso   1.00
C919   C     0.68933   0.94085   0.49911   0.00000  Uiso   1.00
C920   C     0.81066   0.55916   0.50089   0.00000  Uiso   1.00
N921   N     0.50000   0.75000   0.61907   0.00000  Uiso   1.00
N922   N     0.50000   0.75000   0.38093   0.00000  Uiso   1.00
N923   N     0.75000   0.50000   0.61907   0.00000  Uiso   1.00
N924   N     0.75000   0.50000   0.38093   0.00000  Uiso   1.00
Zn925  Zn    0.50000   0.75000   0.55104   0.00000  Uiso   1.00
Zn926  Zn    0.50000   0.75000   0.44896   0.00000  Uiso   1.00
Zn927  Zn    0.75000   0.50000   0.55104   0.00000  Uiso   1.00
Zn928  Zn    0.75000   0.50000   0.44896   0.00000  Uiso   1.00
C929   C     0.99999   0.79019   0.35922   0.00000  Uiso   1.00
C930   C     0.50002   0.70981   0.64078   0.00000  Uiso   1.00
C931   C     0.50002   0.70997   0.35474   0.00000  Uiso   1.00
C932   C     0.99999   0.79003   0.64526   0.00000  Uiso   1.00
C933   C     0.74999   0.54019   0.35922   0.00000  Uiso   1.00
C934   C     0.75000   0.95981   0.64078   0.00000  Uiso   1.00
C935   C     0.75000   0.95997   0.35474   0.00000  Uiso   1.00
C936   C     0.74999   0.54003   0.64526   0.00000  Uiso   1.00
C937   C     0.90168   0.62530   0.46237   0.00000  Uiso   1.00
C938   C     0.59842   0.87459   0.53771   0.00000  Uiso   1.00
C939   C     0.62309   0.84004   0.46555   0.00000  Uiso   1.00
C940   C     0.87685   0.66004   0.53438   0.00000  Uiso   1.00
C941   C     0.62307   0.65994   0.53447   0.00000  Uiso   1.00
C942   C     0.87686   0.83997   0.46560   0.00000  Uiso   1.00
C943   C     0.90163   0.87464   0.53767   0.00000  Uiso   1.00
C944   C     0.59847   0.62547   0.46225   0.00000  Uiso   1.00
C945   C     0.65156   0.87543   0.46228   0.00000  Uiso   1.00
C946   C     0.84834   0.62467   0.53765   0.00000  Uiso   1.00
C947   C     0.87317   0.58995   0.46563   0.00000  Uiso   1.00
C948   C     0.62690   0.90997   0.53444   0.00000  Uiso   1.00
C949   C     0.87313   0.91002   0.53440   0.00000  Uiso   1.00
C950   C     0.62693   0.59006   0.46552   0.00000  Uiso   1.00
C951   C     0.65153   0.62454   0.53774   0.00000  Uiso   1.00
C952   C     0.84836   0.87534   0.46234   0.00000  Uiso   1.00
C953   C     0.59549   0.84062   0.50247   0.00000  Uiso   1.00
C954   C     0.90454   0.65936   0.49753   0.00000  Uiso   1.00
C955   C     0.90452   0.84062   0.50248   0.00000  Uiso   1.00
C956   C     0.59550   0.65940   0.49752   0.00000  Uiso   1.00
C957   C     0.84547   0.59063   0.50248   0.00000  Uiso   1.00
C958   C     0.65451   0.90939   0.49752   0.00000  Uiso   1.00
C959   C     0.65450   0.59060   0.50247   0.00000  Uiso   1.00
C960   C     0.84547   0.90937   0.49753   0.00000  Uiso   1.00
O961   O     0.99997   0.83242   0.38193   0.00000  Uiso   1.00
H962   H     0.50000   0.82853   0.41417   0.00000  Uiso   1.00
O963   O     0.50004   0.66758   0.61807   0.00000  Uiso   1.00
H964   H     0.99999   0.67147   0.58583   0.00000  Uiso   1.00
O965   O     0.50005   0.66839   0.37325   0.00000  Uiso   1.00
H966   H     0.50002   0.67377   0.40598   0.00000  Uiso   1.00
O967   O     0.99999   0.83161   0.62675   0.00000  Uiso   1.00
H968   H     0.50000   0.82623   0.59402   0.00000  Uiso   1.00
O969   O     0.74999   0.58242   0.38193   0.00000  Uiso   1.00
H970   H     0.75000   0.57853   0.41417   0.00000  Uiso   1.00
O971   O     0.75000   0.91758   0.61807   0.00000  Uiso   1.00
H972   H     0.75000   0.92147   0.58583   0.00000  Uiso   1.00
O973   O     0.74998   0.91839   0.37325   0.00000  Uiso   1.00
H974   H     0.74999   0.92377   0.40598   0.00000  Uiso   1.00
O975   O     0.74997   0.58161   0.62675   0.00000  Uiso   1.00
H976   H     0.74999   0.57623   0.59402   0.00000  Uiso   1.00
N977   N     0.92778   0.62590   0.42334   0.00000  Uiso   1.00
O978   O     0.91570   0.65006   0.39054   0.00000  Uiso   1.00
O979   O     0.95548   0.59367   0.41558   0.00000  Uiso   1.00
N980   N     0.57245   0.87387   0.57682   0.00000  Uiso   1.00
O981   O     0.58454   0.84944   0.60943   0.00000  Uiso   1.00
O982   O     0.54488   0.90618   0.58488   0.00000  Uiso   1.00
N983   N     0.62313   0.80285   0.43184   0.00000  Uiso   1.00
O984   O     0.62882   0.76122   0.44327   0.00000  Uiso   1.00
O985   O     0.61698   0.81042   0.38984   0.00000  Uiso   1.00
N986   N     0.87673   0.69732   0.56799   0.00000  Uiso   1.00
O987   O     0.87115   0.73891   0.55642   0.00000  Uiso   1.00
O988   O     0.88266   0.68986   0.61005   0.00000  Uiso   1.00
N989   N     0.62311   0.69713   0.56818   0.00000  Uiso   1.00
O990   O     0.62877   0.73876   0.55676   0.00000  Uiso   1.00
O991   O     0.61704   0.68954   0.61019   0.00000  Uiso   1.00
N992   N     0.87675   0.80271   0.43198   0.00000  Uiso   1.00
O993   O     0.87119   0.76111   0.44353   0.00000  Uiso   1.00
O994   O     0.88266   0.81019   0.38992   0.00000  Uiso   1.00
N995   N     0.92764   0.87397   0.57676   0.00000  Uiso   1.00
O996   O     0.91555   0.84962   0.60942   0.00000  Uiso   1.00
O997   O     0.95524   0.90627   0.58473   0.00000  Uiso   1.00
N998   N     0.57261   0.62628   0.42306   0.00000  Uiso   1.00
O999   O     0.58470   0.65097   0.39065   0.00000  Uiso   1.00
O1000  O     0.54518   0.59389   0.41473   0.00000  Uiso   1.00
N1001  N     0.67748   0.87620   0.42313   0.00000  Uiso   1.00
O1002  O     0.66539   0.90076   0.39063   0.00000  Uiso   1.00
O1003  O     0.70497   0.84383   0.41492   0.00000  Uiso   1.00
N1004  N     0.82229   0.62404   0.57671   0.00000  Uiso   1.00
O1005  O     0.83437   0.59977   0.60943   0.00000  Uiso   1.00
O1006  O     0.79466   0.65631   0.58459   0.00000  Uiso   1.00
N1007  N     0.87329   0.55266   0.43203   0.00000  Uiso   1.00
O1008  O     0.87883   0.51106   0.44362   0.00000  Uiso   1.00
O1009  O     0.86744   0.56011   0.38995   0.00000  Uiso   1.00
N1010  N     0.62684   0.94718   0.56813   0.00000  Uiso   1.00
O1011  O     0.62120   0.98880   0.55667   0.00000  Uiso   1.00
O1012  O     0.63287   0.93963   0.61015   0.00000  Uiso   1.00
N1013  N     0.87323   0.94727   0.56804   0.00000  Uiso   1.00
O1014  O     0.87883   0.98887   0.55651   0.00000  Uiso   1.00
O1015  O     0.86727   0.93977   0.61009   0.00000  Uiso   1.00
N1016  N     0.62692   0.55290   0.43178   0.00000  Uiso   1.00
O1017  O     0.62121   0.51126   0.44317   0.00000  Uiso   1.00
O1018  O     0.63312   0.56052   0.38980   0.00000  Uiso   1.00
N1019  N     0.67745   0.62377   0.57688   0.00000  Uiso   1.00
O1020  O     0.66536   0.59925   0.60940   0.00000  Uiso   1.00
O1021  O     0.70498   0.65611   0.58506   0.00000  Uiso   1.00
N1022  N     0.82231   0.87599   0.42328   0.00000  Uiso   1.00
O1023  O     0.83440   0.90025   0.39056   0.00000  Uiso   1.00
O1024  O     0.79466   0.84373   0.41540   0.00000  Uiso   1.00
O1025  O     0.04580   0.20419   0.87154   0.00000  Uiso   1.00
O1026  O     0.45419   0.29581   0.79513   0.00000  Uiso   1.00
O1027  O     0.45419   0.29581   0.87154   0.00000  Uiso   1.00
O1028  O     0.04580   0.20419   0.79513   0.00000  Uiso   1.00
O1029  O     0.45419   0.20419   0.79513   0.00000  Uiso   1.00
O1030  O     0.04580   0.29581   0.87154   0.00000  Uiso   1.00
O1031  O     0.04580   0.29581   0.79513   0.00000  Uiso   1.00
O1032  O     0.45419   0.20419   0.87154   0.00000  Uiso   1.00
O1033  O     0.29580   0.45419   0.87154   0.00000  Uiso   1.00
O1034  O     0.20419   0.04581   0.79513   0.00000  Uiso   1.00
O1035  O     0.20419   0.04581   0.87154   0.00000  Uiso   1.00
O1036  O     0.29580   0.45419   0.79513   0.00000  Uiso   1.00
O1037  O     0.20419   0.45419   0.79513   0.00000  Uiso   1.00
O1038  O     0.29580   0.04581   0.87154   0.00000  Uiso   1.00
O1039  O     0.29580   0.04581   0.79513   0.00000  Uiso   1.00
O1040  O     0.20419   0.45419   0.87154   0.00000  Uiso   1.00
C1041  C     0.06067   0.19086   0.83244   0.00000  Uiso   1.00
C1042  C     0.43934   0.30916   0.83422   0.00000  Uiso   1.00
C1043  C     0.43935   0.19084   0.83244   0.00000  Uiso   1.00
C1044  C     0.06067   0.30915   0.83422   0.00000  Uiso   1.00
C1045  C     0.31066   0.44084   0.83244   0.00000  Uiso   1.00
C1046  C     0.18933   0.05914   0.83422   0.00000  Uiso   1.00
C1047  C     0.18933   0.44085   0.83244   0.00000  Uiso   1.00
C1048  C     0.31066   0.05916   0.83422   0.00000  Uiso   1.00
N1049  N     0.00000   0.25000   0.95240   0.00000  Uiso   1.00
N1050  N    -0.00000   0.25000   0.71427   0.00000  Uiso   1.00
N1051  N     0.25000  -0.00000   0.95240   0.00000  Uiso   1.00
N1052  N     0.25000  -0.00000   0.71427   0.00000  Uiso   1.00
Zn1053 Zn   -0.00000   0.25000   0.88437   0.00000  Uiso   1.00
Zn1054 Zn   -0.00000   0.25000   0.78229   0.00000  Uiso   1.00
Zn1055 Zn    0.25000  -0.00000   0.88437   0.00000  Uiso   1.00
Zn1056 Zn    0.25000  -0.00000   0.78229   0.00000  Uiso   1.00
C1057  C     0.49999   0.29019   0.69255   0.00000  Uiso   1.00
C1058  C     0.00002   0.20981   0.97412   0.00000  Uiso   1.00
C1059  C     0.00002   0.20997   0.68807   0.00000  Uiso   1.00
C1060  C     0.49999   0.29003   0.97859   0.00000  Uiso   1.00
C1061  C     0.24999   0.04019   0.69255   0.00000  Uiso   1.00
C1062  C     0.25000   0.45981   0.97412   0.00000  Uiso   1.00
C1063  C     0.25000   0.45997   0.68807   0.00000  Uiso   1.00
C1064  C     0.24999   0.04003   0.97859   0.00000  Uiso   1.00
C1065  C     0.40168   0.12530   0.79570   0.00000  Uiso   1.00
C1066  C     0.09842   0.37459   0.87104   0.00000  Uiso   1.00
C1067  C     0.12309   0.34004   0.79888   0.00000  Uiso   1.00
C1068  C     0.37685   0.16004   0.86771   0.00000  Uiso   1.00
C1069  C     0.12307   0.15994   0.86780   0.00000  Uiso   1.00
C1070  C     0.37686   0.33997   0.79894   0.00000  Uiso   1.00
C1071  C     0.40163   0.37464   0.87101   0.00000  Uiso   1.00
C1072  C     0.09847   0.12547   0.79558   0.00000  Uiso   1.00
C1073  C     0.15156   0.37543   0.79561   0.00000  Uiso   1.00
C1074  C     0.34834   0.12467   0.87098   0.00000  Uiso   1.00
C1075  C     0.37317   0.08995   0.79896   0.00000  Uiso   1.00
C1076  C     0.12690   0.40997   0.86778   0.00000  Uiso   1.00
C1077  C     0.37313   0.41002   0.86774   0.00000  Uiso   1.00
C1078  C     0.12693   0.09006   0.79886   0.00000  Uiso   1.00
C1079  C     0.15153   0.12454   0.87107   0.00000  Uiso   1.00
C1080  C     0.34836   0.37534   0.79567   0.00000  Uiso   1.00
C1081  C     0.09549   0.34062   0.83581   0.00000  Uiso   1.00
C1082  C     0.40454   0.15936   0.83086   0.00000  Uiso   1.00
C1083  C     0.40452   0.34062   0.83581   0.00000  Uiso   1.00
C1084  C     0.09550   0.15940   0.83086   0.00000  Uiso   1.00
C1085  C     0.34547   0.09063   0.83581   0.00000  Uiso   1.00
C1086  C     0.15451   0.40939   0.83086   0.00000  Uiso   1.00
C1087  C     0.15450   0.09060   0.83581   0.00000  Uiso   1.00
C1088  C     0.34547   0.40937   0.83086   0.00000  Uiso   1.00
O1089  O     0.49997   0.33242   0.71526   0.00000  Uiso   1.00
H1090  H     0.00000   0.32853   0.74750   0.00000  Uiso   1.00
O1091  O     0.00004   0.16758   0.95141   0.00000  Uiso   1.00
H1092  H     0.49999   0.17147   0.91916   0.00000  Uiso   1.00
O1093  O     0.00005   0.16839   0.70658   0.00000  Uiso   1.00
H1094  H     0.00002   0.17377   0.73931   0.00000  Uiso   1.00
O1095  O     0.49999   0.33161   0.96008   0.00000  Uiso   1.00
H1096  H     0.00000   0.32623   0.92735   0.00000  Uiso   1.00
O1097  O     0.24999   0.08242   0.71526   0.00000  Uiso   1.00
H1098  H     0.25000   0.07853   0.74750   0.00000  Uiso   1.00
O1099  O     0.25000   0.41758   0.95141   0.00000  Uiso   1.00
H1100  H     0.25000   0.42147   0.91916   0.00000  Uiso   1.00
O1101  O     0.24998   0.41839   0.70658   0.00000  Uiso   1.00
H1102  H     0.24999   0.42377   0.73931   0.00000  Uiso   1.00
O1103  O     0.24997   0.08161   0.96008   0.00000  Uiso   1.00
H1104  H     0.24999   0.07623   0.92735   0.00000  Uiso   1.00
N1105  N     0.42778   0.12590   0.75668   0.00000  Uiso   1.00
O1106  O     0.41570   0.15006   0.72387   0.00000  Uiso   1.00
O1107  O     0.45548   0.09367   0.74892   0.00000  Uiso   1.00
N1108  N     0.07245   0.37387   0.91016   0.00000  Uiso   1.00
O1109  O     0.08454   0.34944   0.94276   0.00000  Uiso   1.00
O1110  O     0.04488   0.40618   0.91821   0.00000  Uiso   1.00
N1111  N     0.12313   0.30285   0.76518   0.00000  Uiso   1.00
O1112  O     0.12882   0.26122   0.77660   0.00000  Uiso   1.00
O1113  O     0.11698   0.31042   0.72317   0.00000  Uiso   1.00
N1114  N     0.37673   0.19732   0.90132   0.00000  Uiso   1.00
O1115  O     0.37115   0.23891   0.88975   0.00000  Uiso   1.00
O1116  O     0.38266   0.18986   0.94339   0.00000  Uiso   1.00
N1117  N     0.12311   0.19713   0.90152   0.00000  Uiso   1.00
O1118  O     0.12877   0.23876   0.89010   0.00000  Uiso   1.00
O1119  O     0.11704   0.18954   0.94352   0.00000  Uiso   1.00
N1120  N     0.37675   0.30271   0.76531   0.00000  Uiso   1.00
O1121  O     0.37119   0.26111   0.77686   0.00000  Uiso   1.00
O1122  O     0.38266   0.31019   0.72325   0.00000  Uiso   1.00
N1123  N     0.42764   0.37397   0.91009   0.00000  Uiso   1.00
O1124  O     0.41555   0.34962   0.94275   0.00000  Uiso   1.00
O1125  O     0.45524   0.40627   0.91806   0.00000  Uiso   1.00
N1126  N     0.07261   0.12628   0.75639   0.00000  Uiso   1.00
O1127  O     0.08470   0.15097   0.72398   0.00000  Uiso   1.00
O1128  O     0.04518   0.09389   0.74806   0.00000  Uiso   1.00
N1129  N     0.17748   0.37620   0.75646   0.00000  Uiso   1.00
O1130  O     0.16539   0.40076   0.72396   0.00000  Uiso   1.00
O1131  O     0.20497   0.34383   0.74825   0.00000  Uiso   1.00
N1132  N     0.32229   0.12404   0.91004   0.00000  Uiso   1.00
O1133  O     0.33437   0.09977   0.94276   0.00000  Uiso   1.00
O1134  O     0.29466   0.15631   0.91793   0.00000  Uiso   1.00
N1135  N     0.37329   0.05266   0.76536   0.00000  Uiso   1.00
O1136  O     0.37883   0.01106   0.77695   0.00000  Uiso   1.00
O1137  O     0.36744   0.06011   0.72329   0.00000  Uiso   1.00
N1138  N     0.12684   0.44718   0.90146   0.00000  Uiso   1.00
O1139  O     0.12120   0.48880   0.89000   0.00000  Uiso   1.00
O1140  O     0.13287   0.43963   0.94349   0.00000  Uiso   1.00
N1141  N     0.37323   0.44727   0.90137   0.00000  Uiso   1.00
O1142  O     0.37883   0.48887   0.88984   0.00000  Uiso   1.00
O1143  O     0.36727   0.43977   0.94342   0.00000  Uiso   1.00
N1144  N     0.12692   0.05290   0.76512   0.00000  Uiso   1.00
O1145  O     0.12121   0.01126   0.77650   0.00000  Uiso   1.00
O1146  O     0.13312   0.06052   0.72313   0.00000  Uiso   1.00
N1147  N     0.17745   0.12377   0.91022   0.00000  Uiso   1.00
O1148  O     0.16536   0.09925   0.94274   0.00000  Uiso   1.00
O1149  O     0.20498   0.15611   0.91839   0.00000  Uiso   1.00
N1150  N     0.32231   0.37599   0.75661   0.00000  Uiso   1.00
O1151  O     0.33440   0.40025   0.72389   0.00000  Uiso   1.00
O1152  O     0.29466   0.34373   0.74873   0.00000  Uiso   1.00
O1153  O     0.54580   0.20419   0.87154   0.00000  Uiso   1.00
O1154  O     0.95419   0.29581   0.79513   0.00000  Uiso   1.00
O1155  O     0.95419   0.29581   0.87154   0.00000  Uiso   1.00
O1156  O     0.54580   0.20419   0.79513   0.00000  Uiso   1.00
O1157  O     0.95419   0.20419   0.79513   0.00000  Uiso   1.00
O1158  O     0.54580   0.29581   0.87154   0.00000  Uiso   1.00
O1159  O     0.54580   0.29581   0.79513   0.00000  Uiso   1.00
O1160  O     0.95419   0.20419   0.87154   0.00000  Uiso   1.00
O1161  O     0.79580   0.45419   0.87154   0.00000  Uiso   1.00
O1162  O     0.70419   0.04581   0.79513   0.00000  Uiso   1.00
O1163  O     0.70419   0.04581   0.87154   0.00000  Uiso   1.00
O1164  O     0.79580   0.45419   0.79513   0.00000  Uiso   1.00
O1165  O     0.70419   0.45419   0.79513   0.00000  Uiso   1.00
O1166  O     0.79580   0.04581   0.87154   0.00000  Uiso   1.00
O1167  O     0.79580   0.04581   0.79513   0.00000  Uiso   1.00
O1168  O     0.70419   0.45419   0.87154   0.00000  Uiso   1.00
C1169  C     0.56067   0.19086   0.83244   0.00000  Uiso   1.00
C1170  C     0.93934   0.30916   0.83422   0.00000  Uiso   1.00
C1171  C     0.93935   0.19084   0.83244   0.00000  Uiso   1.00
C1172  C     0.56067   0.30915   0.83422   0.00000  Uiso   1.00
C1173  C     0.81066   0.44084   0.83244   0.00000  Uiso   1.00
C1174  C     0.68933   0.05914   0.83422   0.00000  Uiso   1.00
C1175  C     0.68933   0.44085   0.83244   0.00000  Uiso   1.00
C1176  C     0.81066   0.05916   0.83422   0.00000  Uiso   1.00
N1177  N     0.50000   0.25000   0.95240   0.00000  Uiso   1.00
N1178  N     0.50000   0.25000   0.71427   0.00000  Uiso   1.00
N1179  N     0.75000  -0.00000   0.95240   0.00000  Uiso   1.00
N1180  N     0.75000  -0.00000   0.71427   0.00000  Uiso   1.00
Zn1181 Zn    0.50000   0.25000   0.88437   0.00000  Uiso   1.00
Zn1182 Zn    0.50000   0.25000   0.78229   0.00000  Uiso   1.00
Zn1183 Zn    0.75000  -0.00000   0.88437   0.00000  Uiso   1.00
Zn1184 Zn    0.75000  -0.00000   0.78229   0.00000  Uiso   1.00
C1185  C     0.99999   0.29019   0.69255   0.00000  Uiso   1.00
C1186  C     0.50002   0.20981   0.97412   0.00000  Uiso   1.00
C1187  C     0.50002   0.20997   0.68807   0.00000  Uiso   1.00
C1188  C     0.99999   0.29003   0.97859   0.00000  Uiso   1.00
C1189  C     0.74999   0.04019   0.69255   0.00000  Uiso   1.00
C1190  C     0.75000   0.45981   0.97412   0.00000  Uiso   1.00
C1191  C     0.75000   0.45997   0.68807   0.00000  Uiso   1.00
C1192  C     0.74999   0.04003   0.97859   0.00000  Uiso   1.00
C1193  C     0.90168   0.12530   0.79570   0.00000  Uiso   1.00
C1194  C     0.59842   0.37459   0.87104   0.00000  Uiso   1.00
C1195  C     0.62309   0.34004   0.79888   0.00000  Uiso   1.00
C1196  C     0.87685   0.16004   0.86771   0.00000  Uiso   1.00
C1197  C     0.62307   0.15994   0.86780   0.00000  Uiso   1.00
C1198  C     0.87686   0.33997   0.79894   0.00000  Uiso   1.00
C1199  C     0.90163   0.37464   0.87101   0.00000  Uiso   1.00
C1200  C     0.59847   0.12547   0.79558   0.00000  Uiso   1.00
C1201  C     0.65156   0.37543   0.79561   0.00000  Uiso   1.00
C1202  C     0.84834   0.12467   0.87098   0.00000  Uiso   1.00
C1203  C     0.87317   0.08995   0.79896   0.00000  Uiso   1.00
C1204  C     0.62690   0.40997   0.86778   0.00000  Uiso   1.00
C1205  C     0.87313   0.41002   0.86774   0.00000  Uiso   1.00
C1206  C     0.62693   0.09006   0.79886   0.00000  Uiso   1.00
C1207  C     0.65153   0.12454   0.87107   0.00000  Uiso   1.00
C1208  C     0.84836   0.37534   0.79567   0.00000  Uiso   1.00
C1209  C     0.59549   0.34062   0.83581   0.00000  Uiso   1.00
C1210  C     0.90454   0.15936   0.83086   0.00000  Uiso   1.00
C1211  C     0.90452   0.34062   0.83581   0.00000  Uiso   1.00
C1212  C     0.59550   0.15940   0.83086   0.00000  Uiso   1.00
C1213  C     0.84547   0.09063   0.83581   0.00000  Uiso   1.00
C1214  C     0.65451   0.40939   0.83086   0.00000  Uiso   1.00
C1215  C     0.65450   0.09060   0.83581   0.00000  Uiso   1.00
C1216  C     0.84547   0.40937   0.83086   0.00000  Uiso   1.00
O1217  O     0.99997   0.33242   0.71526   0.00000  Uiso   1.00
H1218  H     0.50000   0.32853   0.74750   0.00000  Uiso   1.00
O1219  O     0.50004   0.16758   0.95141   0.00000  Uiso   1.00
H1220  H     0.99999   0.17147   0.91916   0.00000  Uiso   1.00
O1221  O     0.50005   0.16839   0.70658   0.00000  Uiso   1.00
H1222  H     0.50002   0.17377   0.73931   0.00000  Uiso   1.00
O1223  O     0.99999   0.33161   0.96008   0.00000  Uiso   1.00
H1224  H     0.50000   0.32623   0.92735   0.00000  Uiso   1.00
O1225  O     0.74999   0.08242   0.71526   0.00000  Uiso   1.00
H1226  H     0.75000   0.07853   0.74750   0.00000  Uiso   1.00
O1227  O     0.75000   0.41758   0.95141   0.00000  Uiso   1.00
H1228  H     0.75000   0.42147   0.91916   0.00000  Uiso   1.00
O1229  O     0.74998   0.41839   0.70658   0.00000  Uiso   1.00
H1230  H     0.74999   0.42377   0.73931   0.00000  Uiso   1.00
O1231  O     0.74997   0.08161   0.96008   0.00000  Uiso   1.00
H1232  H     0.74999   0.07623   0.92735   0.00000  Uiso   1.00
N1233  N     0.92778   0.12590   0.75668   0.00000  Uiso   1.00
O1234  O     0.91570   0.15006   0.72387   0.00000  Uiso   1.00
O1235  O     0.95548   0.09367   0.74892   0.00000  Uiso   1.00
N1236  N     0.57245   0.37387   0.91016   0.00000  Uiso   1.00
O1237  O     0.58454   0.34944   0.94276   0.00000  Uiso   1.00
O1238  O     0.54488   0.40618   0.91821   0.00000  Uiso   1.00
N1239  N     0.62313   0.30285   0.76518   0.00000  Uiso   1.00
O1240  O     0.62882   0.26122   0.77660   0.00000  Uiso   1.00
O1241  O     0.61698   0.31042   0.72317   0.00000  Uiso   1.00
N1242  N     0.87673   0.19732   0.90132   0.00000  Uiso   1.00
O1243  O     0.87115   0.23891   0.88975   0.00000  Uiso   1.00
O1244  O     0.88266   0.18986   0.94339   0.00000  Uiso   1.00
N1245  N     0.62311   0.19713   0.90152   0.00000  Uiso   1.00
O1246  O     0.62877   0.23876   0.89010   0.00000  Uiso   1.00
O1247  O     0.61704   0.18954   0.94352   0.00000  Uiso   1.00
N1248  N     0.87675   0.30271   0.76531   0.00000  Uiso   1.00
O1249  O     0.87119   0.26111   0.77686   0.00000  Uiso   1.00
O1250  O     0.88266   0.31019   0.72325   0.00000  Uiso   1.00
N1251  N     0.92764   0.37397   0.91009   0.00000  Uiso   1.00
O1252  O     0.91555   0.34962   0.94275   0.00000  Uiso   1.00
O1253  O     0.95524   0.40627   0.91806   0.00000  Uiso   1.00
N1254  N     0.57261   0.12628   0.75639   0.00000  Uiso   1.00
O1255  O     0.58470   0.15097   0.72398   0.00000  Uiso   1.00
O1256  O     0.54518   0.09389   0.74806   0.00000  Uiso   1.00
N1257  N     0.67748   0.37620   0.75646   0.00000  Uiso   1.00
O1258  O     0.66539   0.40076   0.72396   0.00000  Uiso   1.00
O1259  O     0.70497   0.34383   0.74825   0.00000  Uiso   1.00
N1260  N     0.82229   0.12404   0.91004   0.00000  Uiso   1.00
O1261  O     0.83437   0.09977   0.94276   0.00000  Uiso   1.00
O1262  O     0.79466   0.15631   0.91793   0.00000  Uiso   1.00
N1263  N     0.87329   0.05266   0.76536   0.00000  Uiso   1.00
O1264  O     0.87883   0.01106   0.77695   0.00000  Uiso   1.00
O1265  O     0.86744   0.06011   0.72329   0.00000  Uiso   1.00
N1266  N     0.62684   0.44718   0.90146   0.00000  Uiso   1.00
O1267  O     0.62120   0.48880   0.89000   0.00000  Uiso   1.00
O1268  O     0.63287   0.43963   0.94349   0.00000  Uiso   1.00
N1269  N     0.87323   0.44727   0.90137   0.00000  Uiso   1.00
O1270  O     0.87883   0.48887   0.88984   0.00000  Uiso   1.00
O1271  O     0.86727   0.43977   0.94342   0.00000  Uiso   1.00
N1272  N     0.62692   0.05290   0.76512   0.00000  Uiso   1.00
O1273  O     0.62121   0.01126   0.77650   0.00000  Uiso   1.00
O1274  O     0.63312   0.06052   0.72313   0.00000  Uiso   1.00
N1275  N     0.67745   0.12377   0.91022   0.00000  Uiso   1.00
O1276  O     0.66536   0.09925   0.94274   0.00000  Uiso   1.00
O1277  O     0.70498   0.15611   0.91839   0.00000  Uiso   1.00
N1278  N     0.82231   0.37599   0.75661   0.00000  Uiso   1.00
O1279  O     0.83440   0.40025   0.72389   0.00000  Uiso   1.00
O1280  O     0.79466   0.34373   0.74873   0.00000  Uiso   1.00
O1281  O     0.04580   0.70419   0.87154   0.00000  Uiso   1.00
O1282  O     0.45419   0.79581   0.79513   0.00000  Uiso   1.00
O1283  O     0.45419   0.79581   0.87154   0.00000  Uiso   1.00
O1284  O     0.04580   0.70419   0.79513   0.00000  Uiso   1.00
O1285  O     0.45419   0.70419   0.79513   0.00000  Uiso   1.00
O1286  O     0.04580   0.79581   0.87154   0.00000  Uiso   1.00
O1287  O     0.04580   0.79581   0.79513   0.00000  Uiso   1.00
O1288  O     0.45419   0.70419   0.87154   0.00000  Uiso   1.00
O1289  O     0.29580   0.95419   0.87154   0.00000  Uiso   1.00
O1290  O     0.20419   0.54581   0.79513   0.00000  Uiso   1.00
O1291  O     0.20419   0.54581   0.87154   0.00000  Uiso   1.00
O1292  O     0.29580   0.95419   0.79513   0.00000  Uiso   1.00
O1293  O     0.20419   0.95419   0.79513   0.00000  Uiso   1.00
O1294  O     0.29580   0.54581   0.87154   0.00000  Uiso   1.00
O1295  O     0.29580   0.54581   0.79513   0.00000  Uiso   1.00
O1296  O     0.20419   0.95419   0.87154   0.00000  Uiso   1.00
C1297  C     0.06067   0.69086   0.83244   0.00000  Uiso   1.00
C1298  C     0.43934   0.80916   0.83422   0.00000  Uiso   1.00
C1299  C     0.43935   0.69084   0.83244   0.00000  Uiso   1.00
C1300  C     0.06067   0.80915   0.83422   0.00000  Uiso   1.00
C1301  C     0.31066   0.94084   0.83244   0.00000  Uiso   1.00
C1302  C     0.18933   0.55914   0.83422   0.00000  Uiso   1.00
C1303  C     0.18933   0.94085   0.83244   0.00000  Uiso   1.00
C1304  C     0.31066   0.55916   0.83422   0.00000  Uiso   1.00
N1305  N     0.00000   0.75000   0.95240   0.00000  Uiso   1.00
N1306  N    -0.00000   0.75000   0.71427   0.00000  Uiso   1.00
N1307  N     0.25000   0.50000   0.95240   0.00000  Uiso   1.00
N1308  N     0.25000   0.50000   0.71427   0.00000  Uiso   1.00
Zn1309 Zn   -0.00000   0.75000   0.88437   0.00000  Uiso   1.00
Zn1310 Zn   -0.00000   0.75000   0.78229   0.00000  Uiso   1.00
Zn1311 Zn    0.25000   0.50000   0.88437   0.00000  Uiso   1.00
Zn1312 Zn    0.25000   0.50000   0.78229   0.00000  Uiso   1.00
C1313  C     0.49999   0.79019   0.69255   0.00000  Uiso   1.00
C1314  C     0.00002   0.70981   0.97412   0.00000  Uiso   1.00
C1315  C     0.00002   0.70997   0.68807   0.00000  Uiso   1.00
C1316  C     0.49999   0.79003   0.97859   0.00000  Uiso   1.00
C1317  C     0.24999   0.54019   0.69255   0.00000  Uiso   1.00
C1318  C     0.25000   0.95981   0.97412   0.00000  Uiso   1.00
C1319  C     0.25000   0.95997   0.68807   0.00000  Uiso   1.00
C1320  C     0.24999   0.54003   0.97859   0.00000  Uiso   1.00
C1321  C     0.40168   0.62530   0.79570   0.00000  Uiso   1.00
C1322  C     0.09842   0.87459   0.87104   0.00000  Uiso   1.00
C1323  C     0.12309   0.84004   0.79888   0.00000  Uiso   1.00
C1324  C     0.37685   0.66004   0.86771   0.00000  Uiso   1.00
C1325  C     0.12307   0.65994   0.86780   0.00000  Uiso   1.00
C1326  C     0.37686   0.83997   0.79894   0.00000  Uiso   1.00
C1327  C     0.40163   0.87464   0.87101   0.00000  Uiso   1.00
C1328  C     0.09847   0.62547   0.79558   0.00000  Uiso   1.00
C1329  C     0.15156   0.87543   0.79561   0.00000  Uiso   1.00
C1330  C     0.34834   0.62467   0.87098   0.00000  Uiso   1.00
C1331  C     0.37317   0.58995   0.79896   0.00000  Uiso   1.00
C1332  C     0.12690   0.90997   0.86778   0.00000  Uiso   1.00
C1333  C     0.37313   0.91002   0.86774   0.00000  Uiso   1.00
C1334  C     0.12693   0.59006   0.79886   0.00000  Uiso   1.00
C1335  C     0.15153   0.62454   0.87107   0.00000  Uiso   1.00
C1336  C     0.34836   0.87534   0.79567   0.00000  Uiso   1.00
C1337  C     0.09549   0.84062   0.83581   0.00000  Uiso   1.00
C1338  C     0.40454   0.65936   0.83086   0.00000  Uiso   1.00
C1339  C     0.40452   0.84062   0.83581   0.00000  Uiso   1.00
C1340  C     0.09550   0.65940   0.83086   0.00000  Uiso   1.00
C1341  C     0.34547   0.59063   0.83581   0.00000  Uiso   1.00
C1342  C     0.15451   0.90939   0.83086   0.00000  Uiso   1.00
C1343  C     0.15450   0.59060   0.83581   0.00000  Uiso   1.00
C1344  C     0.34547   0.90937   0.83086   0.00000  Uiso   1.00
O1345  O     0.49997   0.83242   0.71526   0.00000  Uiso   1.00
H1346  H     0.00000   0.82853   0.74750   0.00000  Uiso   1.00
O1347  O     0.00004   0.66758   0.95141   0.00000  Uiso   1.00
H1348  H     0.49999   0.67147   0.91916   0.00000  Uiso   1.00
O1349  O     0.00005   0.66839   0.70658   0.00000  Uiso   1.00
H1350  H     0.00002   0.67377   0.73931   0.00000  Uiso   1.00
O1351  O     0.49999   0.83161   0.96008   0.00000  Uiso   1.00
H1352  H     0.00000   0.82623   0.92735   0.00000  Uiso   1.00
O1353  O     0.24999   0.58242   0.71526   0.00000  Uiso   1.00
H1354  H     0.25000   0.57853   0.74750   0.00000  Uiso   1.00
O1355  O     0.25000   0.91758   0.95141   0.00000  Uiso   1.00
H1356  H     0.25000   0.92147   0.91916   0.00000  Uiso   1.00
O1357  O     0.24998   0.91839   0.70658   0.00000  Uiso   1.00
H1358  H     0.24999   0.92377   0.73931   0.00000  Uiso   1.00
O1359  O     0.24997   0.58161   0.96008   0.00000  Uiso   1.00
H1360  H     0.24999   0.57623   0.92735   0.00000  Uiso   1.00
N1361  N     0.42778   0.62590   0.75668   0.00000  Uiso   1.00
O1362  O     0.41570   0.65006   0.72387   0.00000  Uiso   1.00
O1363  O     0.45548   0.59367   0.74892   0.00000  Uiso   1.00
N1364  N     0.07245   0.87387   0.91016   0.00000  Uiso   1.00
O1365  O     0.08454   0.84944   0.94276   0.00000  Uiso   1.00
O1366  O     0.04488   0.90618   0.91821   0.00000  Uiso   1.00
N1367  N     0.12313   0.80285   0.76518   0.00000  Uiso   1.00
O1368  O     0.12882   0.76122   0.77660   0.00000  Uiso   1.00
O1369  O     0.11698   0.81042   0.72317   0.00000  Uiso   1.00
N1370  N     0.37673   0.69732   0.90132   0.00000  Uiso   1.00
O1371  O     0.37115   0.73891   0.88975   0.00000  Uiso   1.00
O1372  O     0.38266   0.68986   0.94339   0.00000  Uiso   1.00
N1373  N     0.12311   0.69713   0.90152   0.00000  Uiso   1.00
O1374  O     0.12877   0.73876   0.89010   0.00000  Uiso   1.00
O1375  O     0.11704   0.68954   0.94352   0.00000  Uiso   1.00
N1376  N     0.37675   0.80271   0.76531   0.00000  Uiso   1.00
O1377  O     0.37119   0.76111   0.77686   0.00000  Uiso   1.00
O1378  O     0.38266   0.81019   0.72325   0.00000  Uiso   1.00
N1379  N     0.42764   0.87397   0.91009   0.00000  Uiso   1.00
O1380  O     0.41555   0.84962   0.94275   0.00000  Uiso   1.00
O1381  O     0.45524   0.90627   0.91806   0.00000  Uiso   1.00
N1382  N     0.07261   0.62628   0.75639   0.00000  Uiso   1.00
O1383  O     0.08470   0.65097   0.72398   0.00000  Uiso   1.00
O1384  O     0.04518   0.59389   0.74806   0.00000  Uiso   1.00
N1385  N     0.17748   0.87620   0.75646   0.00000  Uiso   1.00
O1386  O     0.16539   0.90076   0.72396   0.00000  Uiso   1.00
O1387  O     0.20497   0.84383   0.74825   0.00000  Uiso   1.00
N1388  N     0.32229   0.62404   0.91004   0.00000  Uiso   1.00
O1389  O     0.33437   0.59977   0.94276   0.00000  Uiso   1.00
O1390  O     0.29466   0.65631   0.91793   0.00000  Uiso   1.00
N1391  N     0.37329   0.55266   0.76536   0.00000  Uiso   1.00
O1392  O     0.37883   0.51106   0.77695   0.00000  Uiso   1.00
O1393  O     0.36744   0.56011   0.72329   0.00000  Uiso   1.00
N1394  N     0.12684   0.94718   0.90146   0.00000  Uiso   1.00
O1395  O     0.12120   0.98880   0.89000   0.00000  Uiso   1.00
O1396  O     0.13287   0.93963   0.94349   0.00000  Uiso   1.00
N1397  N     0.37323   0.94727   0.90137   0.00000  Uiso   1.00
O1398  O     0.37883   0.98887   0.88984   0.00000  Uiso   1.00
O1399  O     0.36727   0.93977   0.94342   0.00000  Uiso   1.00
N1400  N     0.12692   0.55290   0.76512   0.00000  Uiso   1.00
O1401  O     0.12121   0.51126   0.77650   0.00000  Uiso   1.00
O1402  O     0.13312   0.56052   0.72313   0.00000  Uiso   1.00
N1403  N     0.17745   0.62377   0.91022   0.00000  Uiso   1.00
O1404  O     0.16536   0.59925   0.94274   0.00000  Uiso   1.00
O1405  O     0.20498   0.65611   0.91839   0.00000  Uiso   1.00
N1406  N     0.32231   0.87599   0.75661   0.00000  Uiso   1.00
O1407  O     0.33440   0.90025   0.72389   0.00000  Uiso   1.00
O1408  O     0.29466   0.84373   0.74873   0.00000  Uiso   1.00
O1409  O     0.54580   0.70419   0.87154   0.00000  Uiso   1.00
O1410  O     0.95419   0.79581   0.79513   0.00000  Uiso   1.00
O1411  O     0.95419   0.79581   0.87154   0.00000  Uiso   1.00
O1412  O     0.54580   0.70419   0.79513   0.00000  Uiso   1.00
O1413  O     0.95419   0.70419   0.79513   0.00000  Uiso   1.00
O1414  O     0.54580   0.79581   0.87154   0.00000  Uiso   1.00
O1415  O     0.54580   0.79581   0.79513   0.00000  Uiso   1.00
O1416  O     0.95419   0.70419   0.87154   0.00000  Uiso   1.00
O1417  O     0.79580   0.95419   0.87154   0.00000  Uiso   1.00
O1418  O     0.70419   0.54581   0.79513   0.00000  Uiso   1.00
O1419  O     0.70419   0.54581   0.87154   0.00000  Uiso   1.00
O1420  O     0.79580   0.95419   0.79513   0.00000  Uiso   1.00
O1421  O     0.70419   0.95419   0.79513   0.00000  Uiso   1.00
O1422  O     0.79580   0.54581   0.87154   0.00000  Uiso   1.00
O1423  O     0.79580   0.54581   0.79513   0.00000  Uiso   1.00
O1424  O     0.70419   0.95419   0.87154   0.00000  Uiso   1.00
C1425  C     0.56067   0.69086   0.83244   0.00000  Uiso   1.00
C1426  C     0.93934   0.80916   0.83422   0.00000  Uiso   1.00
C1427  C     0.93935   0.69084   0.83244   0.00000  Uiso   1.00
C1428  C     0.56067   0.80915   0.83422   0.00000  Uiso   1.00
C1429  C     0.81066   0.94084   0.83244   0.00000  Uiso   1.00
C1430  C     0.68933   0.55914   0.83422   0.00000  Uiso   1.00
C1431  C     0.68933   0.94085   0.83244   0.00000  Uiso   1.00
C1432  C     0.81066   0.55916   0.83422   0.00000  Uiso   1.00
N1433  N     0.50000   0.75000   0.95240   0.00000  Uiso   1.00
N1434  N     0.50000   0.75000   0.71427   0.00000  Uiso   1.00
N1435  N     0.75000   0.50000   0.95240   0.00000  Uiso   1.00
N1436  N     0.75000   0.50000   0.71427   0.00000  Uiso   1.00
Zn1437 Zn    0.50000   0.75000   0.88437   0.00000  Uiso   1.00
Zn1438 Zn    0.50000   0.75000   0.78229   0.00000  Uiso   1.00
Zn1439 Zn    0.75000   0.50000   0.88437   0.00000  Uiso   1.00
Zn1440 Zn    0.75000   0.50000   0.78229   0.00000  Uiso   1.00
C1441  C     0.99999   0.79019   0.69255   0.00000  Uiso   1.00
C1442  C     0.50002   0.70981   0.97412   0.00000  Uiso   1.00
C1443  C     0.50002   0.70997   0.68807   0.00000  Uiso   1.00
C1444  C     0.99999   0.79003   0.97859   0.00000  Uiso   1.00
C1445  C     0.74999   0.54019   0.69255   0.00000  Uiso   1.00
C1446  C     0.75000   0.95981   0.97412   0.00000  Uiso   1.00
C1447  C     0.75000   0.95997   0.68807   0.00000  Uiso   1.00
C1448  C     0.74999   0.54003   0.97859   0.00000  Uiso   1.00
C1449  C     0.90168   0.62530   0.79570   0.00000  Uiso   1.00
C1450  C     0.59842   0.87459   0.87104   0.00000  Uiso   1.00
C1451  C     0.62309   0.84004   0.79888   0.00000  Uiso   1.00
C1452  C     0.87685   0.66004   0.86771   0.00000  Uiso   1.00
C1453  C     0.62307   0.65994   0.86780   0.00000  Uiso   1.00
C1454  C     0.87686   0.83997   0.79894   0.00000  Uiso   1.00
C1455  C     0.90163   0.87464   0.87101   0.00000  Uiso   1.00
C1456  C     0.59847   0.62547   0.79558   0.00000  Uiso   1.00
C1457  C     0.65156   0.87543   0.79561   0.00000  Uiso   1.00
C1458  C     0.84834   0.62467   0.87098   0.00000  Uiso   1.00
C1459  C     0.87317   0.58995   0.79896   0.00000  Uiso   1.00
C1460  C     0.62690   0.90997   0.86778   0.00000  Uiso   1.00
C1461  C     0.87313   0.91002   0.86774   0.00000  Uiso   1.00
C1462  C     0.62693   0.59006   0.79886   0.00000  Uiso   1.00
C1463  C     0.65153   0.62454   0.87107   0.00000  Uiso   1.00
C1464  C     0.84836   0.87534   0.79567   0.00000  Uiso   1.00
C1465  C     0.59549   0.84062   0.83581   0.00000  Uiso   1.00
C1466  C     0.90454   0.65936   0.83086   0.00000  Uiso   1.00
C1467  C     0.90452   0.84062   0.83581   0.00000  Uiso   1.00
C1468  C     0.59550   0.65940   0.83086   0.00000  Uiso   1.00
C1469  C     0.84547   0.59063   0.83581   0.00000  Uiso   1.00
C1470  C     0.65451   0.90939   0.83086   0.00000  Uiso   1.00
C1471  C     0.65450   0.59060   0.83581   0.00000  Uiso   1.00
C1472  C     0.84547   0.90937   0.83086   0.00000  Uiso   1.00
O1473  O     0.99997   0.83242   0.71526   0.00000  Uiso   1.00
H1474  H     0.50000   0.82853   0.74750   0.00000  Uiso   1.00
O1475  O     0.50004   0.66758   0.95141   0.00000  Uiso   1.00
H1476  H     0.99999   0.67147   0.91916   0.00000  Uiso   1.00
O1477  O     0.50005   0.66839   0.70658   0.00000  Uiso   1.00
H1478  H     0.50002   0.67377   0.73931   0.00000  Uiso   1.00
O1479  O     0.99999   0.83161   0.96008   0.00000  Uiso   1.00
H1480  H     0.50000   0.82623   0.92735   0.00000  Uiso   1.00
O1481  O     0.74999   0.58242   0.71526   0.00000  Uiso   1.00
H1482  H     0.75000   0.57853   0.74750   0.00000  Uiso   1.00
O1483  O     0.75000   0.91758   0.95141   0.00000  Uiso   1.00
H1484  H     0.75000   0.92147   0.91916   0.00000  Uiso   1.00
O1485  O     0.74998   0.91839   0.70658   0.00000  Uiso   1.00
H1486  H     0.74999   0.92377   0.73931   0.00000  Uiso   1.00
O1487  O     0.74997   0.58161   0.96008   0.00000  Uiso   1.00
H1488  H     0.74999   0.57623   0.92735   0.00000  Uiso   1.00
N1489  N     0.92778   0.62590   0.75668   0.00000  Uiso   1.00
O1490  O     0.91570   0.65006   0.72387   0.00000  Uiso   1.00
O1491  O     0.95548   0.59367   0.74892   0.00000  Uiso   1.00
N1492  N     0.57245   0.87387   0.91016   0.00000  Uiso   1.00
O1493  O     0.58454   0.84944   0.94276   0.00000  Uiso   1.00
O1494  O     0.54488   0.90618   0.91821   0.00000  Uiso   1.00
N1495  N     0.62313   0.80285   0.76518   0.00000  Uiso   1.00
O1496  O     0.62882   0.76122   0.77660   0.00000  Uiso   1.00
O1497  O     0.61698   0.81042   0.72317   0.00000  Uiso   1.00
N1498  N     0.87673   0.69732   0.90132   0.00000  Uiso   1.00
O1499  O     0.87115   0.73891   0.88975   0.00000  Uiso   1.00
O1500  O     0.88266   0.68986   0.94339   0.00000  Uiso   1.00
N1501  N     0.62311   0.69713   0.90152   0.00000  Uiso   1.00
O1502  O     0.62877   0.73876   0.89010   0.00000  Uiso   1.00
O1503  O     0.61704   0.68954   0.94352   0.00000  Uiso   1.00
N1504  N     0.87675   0.80271   0.76531   0.00000  Uiso   1.00
O1505  O     0.87119   0.76111   0.77686   0.00000  Uiso   1.00
O1506  O     0.88266   0.81019   0.72325   0.00000  Uiso   1.00
N1507  N     0.92764   0.87397   0.91009   0.00000  Uiso   1.00
O1508  O     0.91555   0.84962   0.94275   0.00000  Uiso   1.00
O1509  O     0.95524   0.90627   0.91806   0.00000  Uiso   1.00
N1510  N     0.57261   0.62628   0.75639   0.00000  Uiso   1.00
O1511  O     0.58470   0.65097   0.72398   0.00000  Uiso   1.00
O1512  O     0.54518   0.59389   0.74806   0.00000  Uiso   1.00
N1513  N     0.67748   0.87620   0.75646   0.00000  Uiso   1.00
O1514  O     0.66539   0.90076   0.72396   0.00000  Uiso   1.00
O1515  O     0.70497   0.84383   0.74825   0.00000  Uiso   1.00
N1516  N     0.82229   0.62404   0.91004   0.00000  Uiso   1.00
O1517  O     0.83437   0.59977   0.94276   0.00000  Uiso   1.00
O1518  O     0.79466   0.65631   0.91793   0.00000  Uiso   1.00
N1519  N     0.87329   0.55266   0.76536   0.00000  Uiso   1.00
O1520  O     0.87883   0.51106   0.77695   0.00000  Uiso   1.00
O1521  O     0.86744   0.56011   0.72329   0.00000  Uiso   1.00
N1522  N     0.62684   0.94718   0.90146   0.00000  Uiso   1.00
O1523  O     0.62120   0.98880   0.89000   0.00000  Uiso   1.00
O1524  O     0.63287   0.93963   0.94349   0.00000  Uiso   1.00
N1525  N     0.87323   0.94727   0.90137   0.00000  Uiso   1.00
O1526  O     0.87883   0.98887   0.88984   0.00000  Uiso   1.00
O1527  O     0.86727   0.93977   0.94342   0.00000  Uiso   1.00
N1528  N     0.62692   0.55290   0.76512   0.00000  Uiso   1.00
O1529  O     0.62121   0.51126   0.77650   0.00000  Uiso   1.00
O1530  O     0.63312   0.56052   0.72313   0.00000  Uiso   1.00
N1531  N     0.67745   0.62377   0.91022   0.00000  Uiso   1.00
O1532  O     0.66536   0.59925   0.94274   0.00000  Uiso   1.00
O1533  O     0.70498   0.65611   0.91839   0.00000  Uiso   1.00
N1534  N     0.82231   0.87599   0.75661   0.00000  Uiso   1.00
O1535  O     0.83440   0.90025   0.72389   0.00000  Uiso   1.00
O1536  O     0.79466   0.84373   0.74873   0.00000  Uiso   1.00
loop_
_geom_bond_atom_site_label_1
_geom_bond_atom_site_label_2
_geom_bond_distance
_geom_bond_site_symmetry_2
_ccdc_geom_bond_type
O1     C17     1.297   .     A
O1     Zn29    1.999   .     S
O2     C18     1.297   .     A
O2     Zn158   1.999   .     S
O3     C18     1.292   .     A
O3     Zn157   2.030   .     S
O4     C17     1.292   .     A
O4     Zn30    2.030   .     S
O5     Zn158   2.030   .     S
O5     C19     1.292   .     A
O6     C20     1.292   .     A
O6     Zn29    2.030   .     S
O7     C20     1.297   .     A
O7     Zn30    1.999   .     S
O8     Zn157   1.999   .     S
O8     C19     1.297   .     A
O9     C21     1.297   .     A
O9     Zn287   1.999   .     S
O10    C22     1.297   .     A
O10    Zn32    1.999   .     S
O11    Zn31    2.030   .     S
O11    C22     1.292   .     A
O12    C21     1.292   .     A
O12    Zn288   2.030   .     S
O13    C23     1.292   .     A
O13    Zn288   2.030   .     S
O14    Zn31    2.030   .     S
O14    C24     1.292   .     A
O15    C24     1.297   .     A
O15    Zn32    1.999   .     S
O16    C23     1.297   .     A
O16    Zn287   1.999   .     S
C17    C60     1.437   .     S
C18    C59     1.437   .     S
C19    C58     1.437   .     S
C20    C57     1.437   .     S
C21    C64     1.437   .     S
C22    C63     1.437   .     S
C23    C62     1.437   .     S
C24    C61     1.437   .     S
N25    C34     1.381   .     A
N25    Zn29    2.031   .     S
N25    C164    1.372   1_455 S
N26    C161    1.381   1_455 A
N26    Zn30    2.031   .     S
N26    C35     1.372   .     S
N27    Zn31    2.031   .     S
N27    C40     1.372   .     A
N27    C294    1.381   1_545 S
N28    Zn32    2.031   .     S
N28    C37     1.381   .     A
N28    C295    1.372   1_545 S
Zn29   O136    1.999   1_455 S
Zn29   O131    2.030   1_455 S
Zn30   O133    2.030   1_455 S
Zn30   O130    1.999   1_455 S
Zn31   O272    1.999   1_545 S
Zn31   O265    1.999   1_545 S
Zn32   O269    2.030   1_545 S
Zn32   O268    2.030   1_545 S
C33    O65     1.376   .     S
C33    N154    1.381   .     A
C33    C1060   1.412   1_554 S
C34    O67     1.376   .     S
C34    C547    1.412   .     S
C35    O69     1.370   .     S
C35    C1058   1.412   1_554 S
C36    O71     1.370   .     S
C36    C545    1.412   .     S
C36    N153    1.372   .     S
C37    O73     1.376   .     S
C37    C1064   1.412   1_554 S
C38    O75     1.376   .     S
C38    N283    1.381   .     S
C38    C551    1.412   .     S
C39    O77     1.370   .     S
C39    C1062   1.412   1_554 S
C39    N284    1.372   .     S
C40    O79     1.370   .     S
C40    C549    1.412   .     S
C41    C58     1.408   .     A
C41    N81     1.429   .     S
C41    C51     1.383   .     A
C42    C57     1.408   .     A
C42    N84     1.429   .     S
C42    C52     1.383   .     A
C43    C49     1.383   .     A
C43    N87     1.439   .     S
C43    C57     1.406   .     A
C44    C58     1.406   .     A
C44    N90     1.439   .     S
C44    C50     1.383   .     A
C45    C60     1.406   .     A
C45    N93     1.439   .     S
C45    C55     1.383   .     A
C46    C59     1.406   .     A
C46    N96     1.439   .     S
C46    C56     1.383   .     A
C47    N99     1.429   .     S
C47    C53     1.383   .     A
C47    C59     1.408   .     A
C48    C54     1.383   .     A
C48    C60     1.408   .     A
C48    N102    1.429   .     S
C49    N105    1.429   .     S
C49    C62     1.408   .     A
C50    N108    1.429   .     S
C50    C61     1.408   .     A
C51    C61     1.406   .     A
C51    N111    1.439   .     S
C52    N114    1.439   .     S
C52    C62     1.406   .     A
C53    C64     1.406   .     A
C53    N117    1.439   .     S
C54    N120    1.439   .     S
C54    C63     1.406   .     A
C55    C63     1.408   .     A
C55    N123    1.429   .     S
C56    C64     1.408   .     A
C56    N126    1.429   .     S
O65    H194    0.976   .     S
H66    O193    0.976   1_455 S
O67    H196    0.976   1_455 S
H68    O195    0.976   .     S
O69    H70     0.980   .     S
O71    H200    0.980   .     S
H72    O199    0.980   1_455 S
O73    H74     0.976   .     S
O75    H76     0.976   .     S
O77    H78     0.980   .     S
O79    H80     0.980   .     S
N81    O83     1.301   .     A
N81    O82     1.301   .     A
N84    O86     1.301   .     A
N84    O85     1.301   .     A
N87    O88     1.301   .     A
N87    O89     1.302   .     A
N90    O92     1.302   .     A
N90    O91     1.301   .     A
N93    O94     1.301   .     A
N93    O95     1.301   .     A
N96    O98     1.301   .     A
N96    O97     1.301   .     A
N99    O100    1.301   .     A
N99    O101    1.301   .     A
N102   O104    1.301   .     A
N102   O103    1.301   .     A
N105   O107    1.301   .     A
N105   O106    1.301   .     A
N108   O109    1.301   .     A
N108   O110    1.300   .     A
N111   O112    1.301   .     A
N111   O113    1.301   .     A
N114   O115    1.301   .     A
N114   O116    1.301   .     A
N117   O119    1.301   .     A
N117   O118    1.301   .     A
N120   O122    1.302   .     A
N120   O121    1.301   .     A
N123   O124    1.301   .     A
N123   O125    1.300   .     A
N126   O128    1.301   .     A
N126   O127    1.301   .     A
O129   C145    1.297   .     A
O129   Zn157   1.999   .     S
O130   C146    1.297   .     A
O130   Zn30    1.999   1_655 S
O131   C146    1.292   .     A
O131   Zn29    2.030   1_655 S
O132   C145    1.292   .     A
O132   Zn158   2.030   .     S
O133   Zn30    2.030   1_655 S
O133   C147    1.292   .     A
O134   C148    1.292   .     A
O134   Zn157   2.030   .     S
O135   C148    1.297   .     A
O135   Zn158   1.999   .     S
O136   Zn29    1.999   1_655 S
O136   C147    1.297   .     A
O137   C149    1.297   .     A
O137   Zn415   1.999   .     S
O138   C150    1.297   .     A
O138   Zn160   1.999   .     S
O139   Zn159   2.030   .     S
O139   C150    1.292   .     A
O140   C149    1.292   .     A
O140   Zn416   2.030   .     S
O141   C151    1.292   .     A
O141   Zn416   2.030   .     S
O142   Zn159   2.030   .     S
O142   C152    1.292   .     A
O143   C152    1.297   .     A
O143   Zn160   1.999   .     S
O144   C151    1.297   .     A
O144   Zn415   1.999   .     S
C145   C188    1.437   .     S
C146   C187    1.437   .     S
C147   C186    1.437   .     S
C148   C185    1.437   .     S
C149   C192    1.437   .     S
C150   C191    1.437   .     S
C151   C190    1.437   .     S
C152   C189    1.437   .     S
N153   C162    1.381   .     A
N153   Zn157   2.031   .     S
N154   Zn158   2.031   .     S
N154   C163    1.372   .     S
N155   Zn159   2.031   .     S
N155   C168    1.372   .     A
N155   C422    1.381   1_545 S
N156   Zn160   2.031   .     S
N156   C165    1.381   .     A
N156   C423    1.372   1_545 S
Zn159  O400    1.999   1_545 S
Zn159  O393    1.999   1_545 S
Zn160  O397    2.030   1_545 S
Zn160  O396    2.030   1_545 S
C161   O193    1.376   .     S
C161   N26     1.381   1_655 A
C161   C1188   1.412   1_554 S
C162   O195    1.376   .     S
C162   C675    1.412   .     S
C163   O197    1.370   .     S
C163   C1186   1.412   1_554 S
C164   O199    1.370   .     S
C164   C673    1.412   .     S
C164   N25     1.372   1_655 S
C165   O201    1.376   .     S
C165   C1192   1.412   1_554 S
C166   O203    1.376   .     S
C166   N411    1.381   .     S
C166   C679    1.412   .     S
C167   O205    1.370   .     S
C167   C1190   1.412   1_554 S
C167   N412    1.372   .     S
C168   O207    1.370   .     S
C168   C677    1.412   .     S
C169   C186    1.408   .     A
C169   N209    1.429   .     S
C169   C179    1.383   .     A
C170   C185    1.408   .     A
C170   N212    1.429   .     S
C170   C180    1.383   .     A
C171   C177    1.383   .     A
C171   N215    1.439   .     S
C171   C185    1.406   .     A
C172   C186    1.406   .     A
C172   N218    1.439   .     S
C172   C178    1.383   .     A
C173   C188    1.406   .     A
C173   N221    1.439   .     S
C173   C183    1.383   .     A
C174   C187    1.406   .     A
C174   N224    1.439   .     S
C174   C184    1.383   .     A
C175   N227    1.429   .     S
C175   C181    1.383   .     A
C175   C187    1.408   .     A
C176   C182    1.383   .     A
C176   C188    1.408   .     A
C176   N230    1.429   .     S
C177   N233    1.429   .     S
C177   C190    1.408   .     A
C178   N236    1.429   .     S
C178   C189    1.408   .     A
C179   C189    1.406   .     A
C179   N239    1.439   .     S
C180   N242    1.439   .     S
C180   C190    1.406   .     A
C181   C192    1.406   .     A
C181   N245    1.439   .     S
C182   N248    1.439   .     S
C182   C191    1.406   .     A
C183   C191    1.408   .     A
C183   N251    1.429   .     S
C184   C192    1.408   .     A
C184   N254    1.429   .     S
O193   H66     0.976   1_655 S
H196   O67     0.976   1_655 S
O197   H198    0.980   .     S
O199   H72     0.980   1_655 S
O201   H202    0.976   .     S
O203   H204    0.976   .     S
O205   H206    0.980   .     S
O207   H208    0.980   .     S
N209   O211    1.301   .     A
N209   O210    1.301   .     A
N212   O214    1.301   .     A
N212   O213    1.301   .     A
N215   O216    1.301   .     A
N215   O217    1.302   .     A
N218   O220    1.302   .     A
N218   O219    1.301   .     A
N221   O222    1.301   .     A
N221   O223    1.301   .     A
N224   O226    1.301   .     A
N224   O225    1.301   .     A
N227   O228    1.301   .     A
N227   O229    1.301   .     A
N230   O232    1.301   .     A
N230   O231    1.301   .     A
N233   O235    1.301   .     A
N233   O234    1.301   .     A
N236   O237    1.301   .     A
N236   O238    1.300   .     A
N239   O240    1.301   .     A
N239   O241    1.301   .     A
N242   O243    1.301   .     A
N242   O244    1.301   .     A
N245   O247    1.301   .     A
N245   O246    1.301   .     A
N248   O250    1.302   .     A
N248   O249    1.301   .     A
N251   O252    1.301   .     A
N251   O253    1.300   .     A
N254   O256    1.301   .     A
N254   O255    1.301   .     A
O257   C273    1.297   .     A
O257   Zn285   1.999   .     S
O258   C274    1.297   .     A
O258   Zn414   1.999   .     S
O259   C274    1.292   .     A
O259   Zn413   2.030   .     S
O260   C273    1.292   .     A
O260   Zn286   2.030   .     S
O261   Zn414   2.030   .     S
O261   C275    1.292   .     A
O262   C276    1.292   .     A
O262   Zn285   2.030   .     S
O263   C276    1.297   .     A
O263   Zn286   1.999   .     S
O264   Zn413   1.999   .     S
O264   C275    1.297   .     A
O265   C277    1.297   .     A
O265   Zn31    1.999   1_565 S
O266   C278    1.297   .     A
O266   Zn288   1.999   .     S
O267   Zn287   2.030   .     S
O267   C278    1.292   .     A
O268   C277    1.292   .     A
O268   Zn32    2.030   1_565 S
O269   C279    1.292   .     A
O269   Zn32    2.030   1_565 S
O270   Zn287   2.030   .     S
O270   C280    1.292   .     A
O271   C280    1.297   .     A
O271   Zn288   1.999   .     S
O272   C279    1.297   .     A
O272   Zn31    1.999   1_565 S
C273   C316    1.437   .     S
C274   C315    1.437   .     S
C275   C314    1.437   .     S
C276   C313    1.437   .     S
C277   C320    1.437   .     S
C278   C319    1.437   .     S
C279   C318    1.437   .     S
C280   C317    1.437   .     S
N281   C290    1.381   .     A
N281   Zn285   2.031   .     S
N281   C420    1.372   1_455 S
N282   C417    1.381   1_455 A
N282   Zn286   2.031   .     S
N282   C291    1.372   .     S
N283   Zn287   2.031   .     S
N283   C296    1.372   .     A
N284   Zn288   2.031   .     S
N284   C293    1.381   .     A
Zn285  O392    1.999   1_455 S
Zn285  O387    2.030   1_455 S
Zn286  O389    2.030   1_455 S
Zn286  O386    1.999   1_455 S
C289   O321    1.376   .     S
C289   N410    1.381   .     A
C289   C1316   1.412   1_554 S
C290   O323    1.376   .     S
C290   C803    1.412   .     S
C291   O325    1.370   .     S
C291   C1314   1.412   1_554 S
C292   O327    1.370   .     S
C292   C801    1.412   .     S
C292   N409    1.372   .     S
C293   O329    1.376   .     S
C293   C1320   1.412   1_554 S
C294   O331    1.376   .     S
C294   N27     1.381   1_565 S
C294   C807    1.412   .     S
C295   O333    1.370   .     S
C295   C1318   1.412   1_554 S
C295   N28     1.372   1_565 S
C296   O335    1.370   .     S
C296   C805    1.412   .     S
C297   C314    1.408   .     A
C297   N337    1.429   .     S
C297   C307    1.383   .     A
C298   C313    1.408   .     A
C298   N340    1.429   .     S
C298   C308    1.383   .     A
C299   C305    1.383   .     A
C299   N343    1.439   .     S
C299   C313    1.406   .     A
C300   C314    1.406   .     A
C300   N346    1.439   .     S
C300   C306    1.383   .     A
C301   C316    1.406   .     A
C301   N349    1.439   .     S
C301   C311    1.383   .     A
C302   C315    1.406   .     A
C302   N352    1.439   .     S
C302   C312    1.383   .     A
C303   N355    1.429   .     S
C303   C309    1.383   .     A
C303   C315    1.408   .     A
C304   C310    1.383   .     A
C304   C316    1.408   .     A
C304   N358    1.429   .     S
C305   N361    1.429   .     S
C305   C318    1.408   .     A
C306   N364    1.429   .     S
C306   C317    1.408   .     A
C307   C317    1.406   .     A
C307   N367    1.439   .     S
C308   N370    1.439   .     S
C308   C318    1.406   .     A
C309   C320    1.406   .     A
C309   N373    1.439   .     S
C310   N376    1.439   .     S
C310   C319    1.406   .     A
C311   C319    1.408   .     A
C311   N379    1.429   .     S
C312   C320    1.408   .     A
C312   N382    1.429   .     S
O321   H450    0.976   .     S
H322   O449    0.976   1_455 S
O323   H452    0.976   1_455 S
H324   O451    0.976   .     S
O325   H326    0.980   .     S
O327   H456    0.980   .     S
H328   O455    0.980   1_455 S
O329   H330    0.976   .     S
O331   H332    0.976   .     S
O333   H334    0.980   .     S
O335   H336    0.980   .     S
N337   O339    1.301   .     A
N337   O338    1.301   .     A
N340   O342    1.301   .     A
N340   O341    1.301   .     A
N343   O344    1.301   .     A
N343   O345    1.302   .     A
N346   O348    1.302   .     A
N346   O347    1.301   .     A
N349   O350    1.301   .     A
N349   O351    1.301   .     A
N352   O354    1.301   .     A
N352   O353    1.301   .     A
N355   O356    1.301   .     A
N355   O357    1.301   .     A
N358   O360    1.301   .     A
N358   O359    1.301   .     A
N361   O363    1.301   .     A
N361   O362    1.301   .     A
N364   O365    1.301   .     A
N364   O366    1.300   .     A
N367   O368    1.301   .     A
N367   O369    1.301   .     A
N370   O371    1.301   .     A
N370   O372    1.301   .     A
N373   O375    1.301   .     A
N373   O374    1.301   .     A
N376   O378    1.302   .     A
N376   O377    1.301   .     A
N379   O380    1.301   .     A
N379   O381    1.300   .     A
N382   O384    1.301   .     A
N382   O383    1.301   .     A
O385   C401    1.297   .     A
O385   Zn413   1.999   .     S
O386   C402    1.297   .     A
O386   Zn286   1.999   1_655 S
O387   C402    1.292   .     A
O387   Zn285   2.030   1_655 S
O388   C401    1.292   .     A
O388   Zn414   2.030   .     S
O389   Zn286   2.030   1_655 S
O389   C403    1.292   .     A
O390   C404    1.292   .     A
O390   Zn413   2.030   .     S
O391   C404    1.297   .     A
O391   Zn414   1.999   .     S
O392   Zn285   1.999   1_655 S
O392   C403    1.297   .     A
O393   C405    1.297   .     A
O393   Zn159   1.999   1_565 S
O394   C406    1.297   .     A
O394   Zn416   1.999   .     S
O395   Zn415   2.030   .     S
O395   C406    1.292   .     A
O396   C405    1.292   .     A
O396   Zn160   2.030   1_565 S
O397   C407    1.292   .     A
O397   Zn160   2.030   1_565 S
O398   Zn415   2.030   .     S
O398   C408    1.292   .     A
O399   C408    1.297   .     A
O399   Zn416   1.999   .     S
O400   C407    1.297   .     A
O400   Zn159   1.999   1_565 S
C401   C444    1.437   .     S
C402   C443    1.437   .     S
C403   C442    1.437   .     S
C404   C441    1.437   .     S
C405   C448    1.437   .     S
C406   C447    1.437   .     S
C407   C446    1.437   .     S
C408   C445    1.437   .     S
N409   C418    1.381   .     A
N409   Zn413   2.031   .     S
N410   Zn414   2.031   .     S
N410   C419    1.372   .     S
N411   Zn415   2.031   .     S
N411   C424    1.372   .     A
N412   Zn416   2.031   .     S
N412   C421    1.381   .     A
C417   O449    1.376   .     S
C417   N282    1.381   1_655 A
C417   C1444   1.412   1_554 S
C418   O451    1.376   .     S
C418   C931    1.412   .     S
C419   O453    1.370   .     S
C419   C1442   1.412   1_554 S
C420   O455    1.370   .     S
C420   C929    1.412   .     S
C420   N281    1.372   1_655 S
C421   O457    1.376   .     S
C421   C1448   1.412   1_554 S
C422   O459    1.376   .     S
C422   N155    1.381   1_565 S
C422   C935    1.412   .     S
C423   O461    1.370   .     S
C423   C1446   1.412   1_554 S
C423   N156    1.372   1_565 S
C424   O463    1.370   .     S
C424   C933    1.412   .     S
C425   C442    1.408   .     A
C425   N465    1.429   .     S
C425   C435    1.383   .     A
C426   C441    1.408   .     A
C426   N468    1.429   .     S
C426   C436    1.383   .     A
C427   C433    1.383   .     A
C427   N471    1.439   .     S
C427   C441    1.406   .     A
C428   C442    1.406   .     A
C428   N474    1.439   .     S
C428   C434    1.383   .     A
C429   C444    1.406   .     A
C429   N477    1.439   .     S
C429   C439    1.383   .     A
C430   C443    1.406   .     A
C430   N480    1.439   .     S
C430   C440    1.383   .     A
C431   N483    1.429   .     S
C431   C437    1.383   .     A
C431   C443    1.408   .     A
C432   C438    1.383   .     A
C432   C444    1.408   .     A
C432   N486    1.429   .     S
C433   N489    1.429   .     S
C433   C446    1.408   .     A
C434   N492    1.429   .     S
C434   C445    1.408   .     A
C435   C445    1.406   .     A
C435   N495    1.439   .     S
C436   N498    1.439   .     S
C436   C446    1.406   .     A
C437   C448    1.406   .     A
C437   N501    1.439   .     S
C438   N504    1.439   .     S
C438   C447    1.406   .     A
C439   C447    1.408   .     A
C439   N507    1.429   .     S
C440   C448    1.408   .     A
C440   N510    1.429   .     S
O449   H322    0.976   1_655 S
H452   O323    0.976   1_655 S
O453   H454    0.980   .     S
O455   H328    0.980   1_655 S
O457   H458    0.976   .     S
O459   H460    0.976   .     S
O461   H462    0.980   .     S
O463   H464    0.980   .     S
N465   O467    1.301   .     A
N465   O466    1.301   .     A
N468   O470    1.301   .     A
N468   O469    1.301   .     A
N471   O472    1.301   .     A
N471   O473    1.302   .     A
N474   O476    1.302   .     A
N474   O475    1.301   .     A
N477   O478    1.301   .     A
N477   O479    1.301   .     A
N480   O482    1.301   .     A
N480   O481    1.301   .     A
N483   O484    1.301   .     A
N483   O485    1.301   .     A
N486   O488    1.301   .     A
N486   O487    1.301   .     A
N489   O491    1.301   .     A
N489   O490    1.301   .     A
N492   O493    1.301   .     A
N492   O494    1.300   .     A
N495   O496    1.301   .     A
N495   O497    1.301   .     A
N498   O499    1.301   .     A
N498   O500    1.301   .     A
N501   O503    1.301   .     A
N501   O502    1.301   .     A
N504   O506    1.302   .     A
N504   O505    1.301   .     A
N507   O508    1.301   .     A
N507   O509    1.300   .     A
N510   O512    1.301   .     A
N510   O511    1.301   .     A
O513   C529    1.297   .     A
O513   Zn541   1.999   .     S
O514   C530    1.297   .     A
O514   Zn670   1.999   .     S
O515   C530    1.292   .     A
O515   Zn669   2.030   .     S
O516   C529    1.292   .     A
O516   Zn542   2.030   .     S
O517   Zn670   2.030   .     S
O517   C531    1.292   .     A
O518   C532    1.292   .     A
O518   Zn541   2.030   .     S
O519   C532    1.297   .     A
O519   Zn542   1.999   .     S
O520   Zn669   1.999   .     S
O520   C531    1.297   .     A
O521   C533    1.297   .     A
O521   Zn799   1.999   .     S
O522   C534    1.297   .     A
O522   Zn544   1.999   .     S
O523   Zn543   2.030   .     S
O523   C534    1.292   .     A
O524   C533    1.292   .     A
O524   Zn800   2.030   .     S
O525   C535    1.292   .     A
O525   Zn800   2.030   .     S
O526   Zn543   2.030   .     S
O526   C536    1.292   .     A
O527   C536    1.297   .     A
O527   Zn544   1.999   .     S
O528   C535    1.297   .     A
O528   Zn799   1.999   .     S
C529   C572    1.437   .     S
C530   C571    1.437   .     S
C531   C570    1.437   .     S
C532   C569    1.437   .     S
C533   C576    1.437   .     S
C534   C575    1.437   .     S
C535   C574    1.437   .     S
C536   C573    1.437   .     S
N537   C546    1.381   .     A
N537   Zn541   2.031   .     S
N537   C676    1.372   1_455 S
N538   C673    1.381   1_455 A
N538   Zn542   2.031   .     S
N538   C547    1.372   .     S
N539   Zn543   2.031   .     S
N539   C552    1.372   .     A
N539   C806    1.381   1_545 S
N540   Zn544   2.031   .     S
N540   C549    1.381   .     A
N540   C807    1.372   1_545 S
Zn541  O648    1.999   1_455 S
Zn541  O643    2.030   1_455 S
Zn542  O645    2.030   1_455 S
Zn542  O642    1.999   1_455 S
Zn543  O784    1.999   1_545 S
Zn543  O777    1.999   1_545 S
Zn544  O781    2.030   1_545 S
Zn544  O780    2.030   1_545 S
C545   O577    1.376   .     S
C545   N666    1.381   .     A
C546   O579    1.376   .     S
C546   C1059   1.412   .     S
C547   O581    1.370   .     S
C548   O583    1.370   .     S
C548   C1057   1.412   .     S
C548   N665    1.372   .     S
C549   O585    1.376   .     S
C550   O587    1.376   .     S
C550   N795    1.381   .     S
C550   C1063   1.412   .     S
C551   O589    1.370   .     S
C551   N796    1.372   .     S
C552   O591    1.370   .     S
C552   C1061   1.412   .     S
C553   C570    1.408   .     A
C553   N593    1.429   .     S
C553   C563    1.383   .     A
C554   C569    1.408   .     A
C554   N596    1.429   .     S
C554   C564    1.383   .     A
C555   C561    1.383   .     A
C555   N599    1.439   .     S
C555   C569    1.406   .     A
C556   C570    1.406   .     A
C556   N602    1.439   .     S
C556   C562    1.383   .     A
C557   C572    1.406   .     A
C557   N605    1.439   .     S
C557   C567    1.383   .     A
C558   C571    1.406   .     A
C558   N608    1.439   .     S
C558   C568    1.383   .     A
C559   N611    1.429   .     S
C559   C565    1.383   .     A
C559   C571    1.408   .     A
C560   C566    1.383   .     A
C560   C572    1.408   .     A
C560   N614    1.429   .     S
C561   N617    1.429   .     S
C561   C574    1.408   .     A
C562   N620    1.429   .     S
C562   C573    1.408   .     A
C563   C573    1.406   .     A
C563   N623    1.439   .     S
C564   N626    1.439   .     S
C564   C574    1.406   .     A
C565   C576    1.406   .     A
C565   N629    1.439   .     S
C566   N632    1.439   .     S
C566   C575    1.406   .     A
C567   C575    1.408   .     A
C567   N635    1.429   .     S
C568   C576    1.408   .     A
C568   N638    1.429   .     S
O577   H706    0.976   .     S
H578   O705    0.976   1_455 S
O579   H708    0.976   1_455 S
H580   O707    0.976   .     S
O581   H582    0.980   .     S
O583   H712    0.980   .     S
H584   O711    0.980   1_455 S
O585   H586    0.976   .     S
O587   H588    0.976   .     S
O589   H590    0.980   .     S
O591   H592    0.980   .     S
N593   O595    1.301   .     A
N593   O594    1.301   .     A
N596   O598    1.301   .     A
N596   O597    1.301   .     A
N599   O600    1.301   .     A
N599   O601    1.302   .     A
N602   O604    1.302   .     A
N602   O603    1.301   .     A
N605   O606    1.301   .     A
N605   O607    1.301   .     A
N608   O610    1.301   .     A
N608   O609    1.301   .     A
N611   O612    1.301   .     A
N611   O613    1.301   .     A
N614   O616    1.301   .     A
N614   O615    1.301   .     A
N617   O619    1.301   .     A
N617   O618    1.301   .     A
N620   O621    1.301   .     A
N620   O622    1.300   .     A
N623   O624    1.301   .     A
N623   O625    1.301   .     A
N626   O627    1.301   .     A
N626   O628    1.301   .     A
N629   O631    1.301   .     A
N629   O630    1.301   .     A
N632   O634    1.302   .     A
N632   O633    1.301   .     A
N635   O636    1.301   .     A
N635   O637    1.300   .     A
N638   O640    1.301   .     A
N638   O639    1.301   .     A
O641   C657    1.297   .     A
O641   Zn669   1.999   .     S
O642   C658    1.297   .     A
O642   Zn542   1.999   1_655 S
O643   C658    1.292   .     A
O643   Zn541   2.030   1_655 S
O644   C657    1.292   .     A
O644   Zn670   2.030   .     S
O645   Zn542   2.030   1_655 S
O645   C659    1.292   .     A
O646   C660    1.292   .     A
O646   Zn669   2.030   .     S
O647   C660    1.297   .     A
O647   Zn670   1.999   .     S
O648   Zn541   1.999   1_655 S
O648   C659    1.297   .     A
O649   C661    1.297   .     A
O649   Zn927   1.999   .     S
O650   C662    1.297   .     A
O650   Zn672   1.999   .     S
O651   Zn671   2.030   .     S
O651   C662    1.292   .     A
O652   C661    1.292   .     A
O652   Zn928   2.030   .     S
O653   C663    1.292   .     A
O653   Zn928   2.030   .     S
O654   Zn671   2.030   .     S
O654   C664    1.292   .     A
O655   C664    1.297   .     A
O655   Zn672   1.999   .     S
O656   C663    1.297   .     A
O656   Zn927   1.999   .     S
C657   C700    1.437   .     S
C658   C699    1.437   .     S
C659   C698    1.437   .     S
C660   C697    1.437   .     S
C661   C704    1.437   .     S
C662   C703    1.437   .     S
C663   C702    1.437   .     S
C664   C701    1.437   .     S
N665   C674    1.381   .     A
N665   Zn669   2.031   .     S
N666   Zn670   2.031   .     S
N666   C675    1.372   .     S
N667   Zn671   2.031   .     S
N667   C680    1.372   .     A
N667   C934    1.381   1_545 S
N668   Zn672   2.031   .     S
N668   C677    1.381   .     A
N668   C935    1.372   1_545 S
Zn671  O912    1.999   1_545 S
Zn671  O905    1.999   1_545 S
Zn672  O909    2.030   1_545 S
Zn672  O908    2.030   1_545 S
C673   O705    1.376   .     S
C673   N538    1.381   1_655 A
C674   O707    1.376   .     S
C674   C1187   1.412   .     S
C675   O709    1.370   .     S
C676   O711    1.370   .     S
C676   C1185   1.412   .     S
C676   N537    1.372   1_655 S
C677   O713    1.376   .     S
C678   O715    1.376   .     S
C678   N923    1.381   .     S
C678   C1191   1.412   .     S
C679   O717    1.370   .     S
C679   N924    1.372   .     S
C680   O719    1.370   .     S
C680   C1189   1.412   .     S
C681   C698    1.408   .     A
C681   N721    1.429   .     S
C681   C691    1.383   .     A
C682   C697    1.408   .     A
C682   N724    1.429   .     S
C682   C692    1.383   .     A
C683   C689    1.383   .     A
C683   N727    1.439   .     S
C683   C697    1.406   .     A
C684   C698    1.406   .     A
C684   N730    1.439   .     S
C684   C690    1.383   .     A
C685   C700    1.406   .     A
C685   N733    1.439   .     S
C685   C695    1.383   .     A
C686   C699    1.406   .     A
C686   N736    1.439   .     S
C686   C696    1.383   .     A
C687   N739    1.429   .     S
C687   C693    1.383   .     A
C687   C699    1.408   .     A
C688   C694    1.383   .     A
C688   C700    1.408   .     A
C688   N742    1.429   .     S
C689   N745    1.429   .     S
C689   C702    1.408   .     A
C690   N748    1.429   .     S
C690   C701    1.408   .     A
C691   C701    1.406   .     A
C691   N751    1.439   .     S
C692   N754    1.439   .     S
C692   C702    1.406   .     A
C693   C704    1.406   .     A
C693   N757    1.439   .     S
C694   N760    1.439   .     S
C694   C703    1.406   .     A
C695   C703    1.408   .     A
C695   N763    1.429   .     S
C696   C704    1.408   .     A
C696   N766    1.429   .     S
O705   H578    0.976   1_655 S
H708   O579    0.976   1_655 S
O709   H710    0.980   .     S
O711   H584    0.980   1_655 S
O713   H714    0.976   .     S
O715   H716    0.976   .     S
O717   H718    0.980   .     S
O719   H720    0.980   .     S
N721   O723    1.301   .     A
N721   O722    1.301   .     A
N724   O726    1.301   .     A
N724   O725    1.301   .     A
N727   O728    1.301   .     A
N727   O729    1.302   .     A
N730   O732    1.302   .     A
N730   O731    1.301   .     A
N733   O734    1.301   .     A
N733   O735    1.301   .     A
N736   O738    1.301   .     A
N736   O737    1.301   .     A
N739   O740    1.301   .     A
N739   O741    1.301   .     A
N742   O744    1.301   .     A
N742   O743    1.301   .     A
N745   O747    1.301   .     A
N745   O746    1.301   .     A
N748   O749    1.301   .     A
N748   O750    1.300   .     A
N751   O752    1.301   .     A
N751   O753    1.301   .     A
N754   O755    1.301   .     A
N754   O756    1.301   .     A
N757   O759    1.301   .     A
N757   O758    1.301   .     A
N760   O762    1.302   .     A
N760   O761    1.301   .     A
N763   O764    1.301   .     A
N763   O765    1.300   .     A
N766   O768    1.301   .     A
N766   O767    1.301   .     A
O769   C785    1.297   .     A
O769   Zn797   1.999   .     S
O770   C786    1.297   .     A
O770   Zn926   1.999   .     S
O771   C786    1.292   .     A
O771   Zn925   2.030   .     S
O772   C785    1.292   .     A
O772   Zn798   2.030   .     S
O773   Zn926   2.030   .     S
O773   C787    1.292   .     A
O774   C788    1.292   .     A
O774   Zn797   2.030   .     S
O775   C788    1.297   .     A
O775   Zn798   1.999   .     S
O776   Zn925   1.999   .     S
O776   C787    1.297   .     A
O777   C789    1.297   .     A
O777   Zn543   1.999   1_565 S
O778   C790    1.297   .     A
O778   Zn800   1.999   .     S
O779   Zn799   2.030   .     S
O779   C790    1.292   .     A
O780   C789    1.292   .     A
O780   Zn544   2.030   1_565 S
O781   C791    1.292   .     A
O781   Zn544   2.030   1_565 S
O782   Zn799   2.030   .     S
O782   C792    1.292   .     A
O783   C792    1.297   .     A
O783   Zn800   1.999   .     S
O784   C791    1.297   .     A
O784   Zn543   1.999   1_565 S
C785   C828    1.437   .     S
C786   C827    1.437   .     S
C787   C826    1.437   .     S
C788   C825    1.437   .     S
C789   C832    1.437   .     S
C790   C831    1.437   .     S
C791   C830    1.437   .     S
C792   C829    1.437   .     S
N793   C802    1.381   .     A
N793   Zn797   2.031   .     S
N793   C932    1.372   1_455 S
N794   C929    1.381   1_455 A
N794   Zn798   2.031   .     S
N794   C803    1.372   .     S
N795   Zn799   2.031   .     S
N795   C808    1.372   .     A
N796   Zn800   2.031   .     S
N796   C805    1.381   .     A
Zn797  O904    1.999   1_455 S
Zn797  O899    2.030   1_455 S
Zn798  O901    2.030   1_455 S
Zn798  O898    1.999   1_455 S
C801   O833    1.376   .     S
C801   N922    1.381   .     A
C802   O835    1.376   .     S
C802   C1315   1.412   .     S
C803   O837    1.370   .     S
C804   O839    1.370   .     S
C804   C1313   1.412   .     S
C804   N921    1.372   .     S
C805   O841    1.376   .     S
C806   O843    1.376   .     S
C806   N539    1.381   1_565 S
C806   C1319   1.412   .     S
C807   O845    1.370   .     S
C807   N540    1.372   1_565 S
C808   O847    1.370   .     S
C808   C1317   1.412   .     S
C809   C826    1.408   .     A
C809   N849    1.429   .     S
C809   C819    1.383   .     A
C810   C825    1.408   .     A
C810   N852    1.429   .     S
C810   C820    1.383   .     A
C811   C817    1.383   .     A
C811   N855    1.439   .     S
C811   C825    1.406   .     A
C812   C826    1.406   .     A
C812   N858    1.439   .     S
C812   C818    1.383   .     A
C813   C828    1.406   .     A
C813   N861    1.439   .     S
C813   C823    1.383   .     A
C814   C827    1.406   .     A
C814   N864    1.439   .     S
C814   C824    1.383   .     A
C815   N867    1.429   .     S
C815   C821    1.383   .     A
C815   C827    1.408   .     A
C816   C822    1.383   .     A
C816   C828    1.408   .     A
C816   N870    1.429   .     S
C817   N873    1.429   .     S
C817   C830    1.408   .     A
C818   N876    1.429   .     S
C818   C829    1.408   .     A
C819   C829    1.406   .     A
C819   N879    1.439   .     S
C820   N882    1.439   .     S
C820   C830    1.406   .     A
C821   C832    1.406   .     A
C821   N885    1.439   .     S
C822   N888    1.439   .     S
C822   C831    1.406   .     A
C823   C831    1.408   .     A
C823   N891    1.429   .     S
C824   C832    1.408   .     A
C824   N894    1.429   .     S
O833   H962    0.976   .     S
H834   O961    0.976   1_455 S
O835   H964    0.976   1_455 S
H836   O963    0.976   .     S
O837   H838    0.980   .     S
O839   H968    0.980   .     S
H840   O967    0.980   1_455 S
O841   H842    0.976   .     S
O843   H844    0.976   .     S
O845   H846    0.980   .     S
O847   H848    0.980   .     S
N849   O851    1.301   .     A
N849   O850    1.301   .     A
N852   O854    1.301   .     A
N852   O853    1.301   .     A
N855   O856    1.301   .     A
N855   O857    1.302   .     A
N858   O860    1.302   .     A
N858   O859    1.301   .     A
N861   O862    1.301   .     A
N861   O863    1.301   .     A
N864   O866    1.301   .     A
N864   O865    1.301   .     A
N867   O868    1.301   .     A
N867   O869    1.301   .     A
N870   O872    1.301   .     A
N870   O871    1.301   .     A
N873   O875    1.301   .     A
N873   O874    1.301   .     A
N876   O877    1.301   .     A
N876   O878    1.300   .     A
N879   O880    1.301   .     A
N879   O881    1.301   .     A
N882   O883    1.301   .     A
N882   O884    1.301   .     A
N885   O887    1.301   .     A
N885   O886    1.301   .     A
N888   O890    1.302   .     A
N888   O889    1.301   .     A
N891   O892    1.301   .     A
N891   O893    1.300   .     A
N894   O896    1.301   .     A
N894   O895    1.301   .     A
O897   C913    1.297   .     A
O897   Zn925   1.999   .     S
O898   C914    1.297   .     A
O898   Zn798   1.999   1_655 S
O899   C914    1.292   .     A
O899   Zn797   2.030   1_655 S
O900   C913    1.292   .     A
O900   Zn926   2.030   .     S
O901   Zn798   2.030   1_655 S
O901   C915    1.292   .     A
O902   C916    1.292   .     A
O902   Zn925   2.030   .     S
O903   C916    1.297   .     A
O903   Zn926   1.999   .     S
O904   Zn797   1.999   1_655 S
O904   C915    1.297   .     A
O905   C917    1.297   .     A
O905   Zn671   1.999   1_565 S
O906   C918    1.297   .     A
O906   Zn928   1.999   .     S
O907   Zn927   2.030   .     S
O907   C918    1.292   .     A
O908   C917    1.292   .     A
O908   Zn672   2.030   1_565 S
O909   C919    1.292   .     A
O909   Zn672   2.030   1_565 S
O910   Zn927   2.030   .     S
O910   C920    1.292   .     A
O911   C920    1.297   .     A
O911   Zn928   1.999   .     S
O912   C919    1.297   .     A
O912   Zn671   1.999   1_565 S
C913   C956    1.437   .     S
C914   C955    1.437   .     S
C915   C954    1.437   .     S
C916   C953    1.437   .     S
C917   C960    1.437   .     S
C918   C959    1.437   .     S
C919   C958    1.437   .     S
C920   C957    1.437   .     S
N921   C930    1.381   .     A
N921   Zn925   2.031   .     S
N922   Zn926   2.031   .     S
N922   C931    1.372   .     S
N923   Zn927   2.031   .     S
N923   C936    1.372   .     A
N924   Zn928   2.031   .     S
N924   C933    1.381   .     A
C929   O961    1.376   .     S
C929   N794    1.381   1_655 A
C930   O963    1.376   .     S
C930   C1443   1.412   .     S
C931   O965    1.370   .     S
C932   O967    1.370   .     S
C932   C1441   1.412   .     S
C932   N793    1.372   1_655 S
C933   O969    1.376   .     S
C934   O971    1.376   .     S
C934   N667    1.381   1_565 S
C934   C1447   1.412   .     S
C935   O973    1.370   .     S
C935   N668    1.372   1_565 S
C936   O975    1.370   .     S
C936   C1445   1.412   .     S
C937   C954    1.408   .     A
C937   N977    1.429   .     S
C937   C947    1.383   .     A
C938   C953    1.408   .     A
C938   N980    1.429   .     S
C938   C948    1.383   .     A
C939   C945    1.383   .     A
C939   N983    1.439   .     S
C939   C953    1.406   .     A
C940   C954    1.406   .     A
C940   N986    1.439   .     S
C940   C946    1.383   .     A
C941   C956    1.406   .     A
C941   N989    1.439   .     S
C941   C951    1.383   .     A
C942   C955    1.406   .     A
C942   N992    1.439   .     S
C942   C952    1.383   .     A
C943   N995    1.429   .     S
C943   C949    1.383   .     A
C943   C955    1.408   .     A
C944   C950    1.383   .     A
C944   C956    1.408   .     A
C944   N998    1.429   .     S
C945   N1001   1.429   .     S
C945   C958    1.408   .     A
C946   N1004   1.429   .     S
C946   C957    1.408   .     A
C947   C957    1.406   .     A
C947   N1007   1.439   .     S
C948   N1010   1.439   .     S
C948   C958    1.406   .     A
C949   C960    1.406   .     A
C949   N1013   1.439   .     S
C950   N1016   1.439   .     S
C950   C959    1.406   .     A
C951   C959    1.408   .     A
C951   N1019   1.429   .     S
C952   C960    1.408   .     A
C952   N1022   1.429   .     S
O961   H834    0.976   1_655 S
H964   O835    0.976   1_655 S
O965   H966    0.980   .     S
O967   H840    0.980   1_655 S
O969   H970    0.976   .     S
O971   H972    0.976   .     S
O973   H974    0.980   .     S
O975   H976    0.980   .     S
N977   O979    1.301   .     A
N977   O978    1.301   .     A
N980   O982    1.301   .     A
N980   O981    1.301   .     A
N983   O984    1.301   .     A
N983   O985    1.302   .     A
N986   O988    1.302   .     A
N986   O987    1.301   .     A
N989   O990    1.301   .     A
N989   O991    1.301   .     A
N992   O994    1.301   .     A
N992   O993    1.301   .     A
N995   O996    1.301   .     A
N995   O997    1.301   .     A
N998   O1000   1.301   .     A
N998   O999    1.301   .     A
N1001  O1003   1.301   .     A
N1001  O1002   1.301   .     A
N1004  O1005   1.301   .     A
N1004  O1006   1.300   .     A
N1007  O1008   1.301   .     A
N1007  O1009   1.301   .     A
N1010  O1011   1.301   .     A
N1010  O1012   1.301   .     A
N1013  O1015   1.301   .     A
N1013  O1014   1.301   .     A
N1016  O1018   1.302   .     A
N1016  O1017   1.301   .     A
N1019  O1020   1.301   .     A
N1019  O1021   1.300   .     A
N1022  O1024   1.301   .     A
N1022  O1023   1.301   .     A
O1025  C1041   1.297   .     A
O1025  Zn1053  1.999   .     S
O1026  C1042   1.297   .     A
O1026  Zn1182  1.999   .     S
O1027  C1042   1.292   .     A
O1027  Zn1181  2.030   .     S
O1028  C1041   1.292   .     A
O1028  Zn1054  2.030   .     S
O1029  Zn1182  2.030   .     S
O1029  C1043   1.292   .     A
O1030  C1044   1.292   .     A
O1030  Zn1053  2.030   .     S
O1031  C1044   1.297   .     A
O1031  Zn1054  1.999   .     S
O1032  Zn1181  1.999   .     S
O1032  C1043   1.297   .     A
O1033  C1045   1.297   .     A
O1033  Zn1311  1.999   .     S
O1034  C1046   1.297   .     A
O1034  Zn1056  1.999   .     S
O1035  Zn1055  2.030   .     S
O1035  C1046   1.292   .     A
O1036  C1045   1.292   .     A
O1036  Zn1312  2.030   .     S
O1037  C1047   1.292   .     A
O1037  Zn1312  2.030   .     S
O1038  Zn1055  2.030   .     S
O1038  C1048   1.292   .     A
O1039  C1048   1.297   .     A
O1039  Zn1056  1.999   .     S
O1040  C1047   1.297   .     A
O1040  Zn1311  1.999   .     S
C1041  C1084   1.437   .     S
C1042  C1083   1.437   .     S
C1043  C1082   1.437   .     S
C1044  C1081   1.437   .     S
C1045  C1088   1.437   .     S
C1046  C1087   1.437   .     S
C1047  C1086   1.437   .     S
C1048  C1085   1.437   .     S
N1049  C1058   1.381   .     A
N1049  Zn1053  2.031   .     S
N1049  C1188   1.372   1_455 S
N1050  C1185   1.381   1_455 A
N1050  Zn1054  2.031   .     S
N1050  C1059   1.372   .     S
N1051  Zn1055  2.031   .     S
N1051  C1064   1.372   .     A
N1051  C1318   1.381   1_545 S
N1052  Zn1056  2.031   .     S
N1052  C1061   1.381   .     A
N1052  C1319   1.372   1_545 S
Zn1053 O1160   1.999   1_455 S
Zn1053 O1155   2.030   1_455 S
Zn1054 O1157   2.030   1_455 S
Zn1054 O1154   1.999   1_455 S
Zn1055 O1296   1.999   1_545 S
Zn1055 O1289   1.999   1_545 S
Zn1056 O1293   2.030   1_545 S
Zn1056 O1292   2.030   1_545 S
C1057  O1089   1.376   .     S
C1057  N1178   1.381   .     A
C1058  O1091   1.376   .     S
C1058  C35     1.412   1_556 S
C1059  O1093   1.370   .     S
C1060  O1095   1.370   .     S
C1060  C33     1.412   1_556 S
C1060  N1177   1.372   .     S
C1061  O1097   1.376   .     S
C1062  O1099   1.376   .     S
C1062  N1307   1.381   .     S
C1062  C39     1.412   1_556 S
C1063  O1101   1.370   .     S
C1063  N1308   1.372   .     S
C1064  O1103   1.370   .     S
C1064  C37     1.412   1_556 S
C1065  C1082   1.408   .     A
C1065  N1105   1.429   .     S
C1065  C1075   1.383   .     A
C1066  C1081   1.408   .     A
C1066  N1108   1.429   .     S
C1066  C1076   1.383   .     A
C1067  C1073   1.383   .     A
C1067  N1111   1.439   .     S
C1067  C1081   1.406   .     A
C1068  C1082   1.406   .     A
C1068  N1114   1.439   .     S
C1068  C1074   1.383   .     A
C1069  C1084   1.406   .     A
C1069  N1117   1.439   .     S
C1069  C1079   1.383   .     A
C1070  C1083   1.406   .     A
C1070  N1120   1.439   .     S
C1070  C1080   1.383   .     A
C1071  N1123   1.429   .     S
C1071  C1077   1.383   .     A
C1071  C1083   1.408   .     A
C1072  C1078   1.383   .     A
C1072  C1084   1.408   .     A
C1072  N1126   1.429   .     S
C1073  N1129   1.429   .     S
C1073  C1086   1.408   .     A
C1074  N1132   1.429   .     S
C1074  C1085   1.408   .     A
C1075  C1085   1.406   .     A
C1075  N1135   1.439   .     S
C1076  N1138   1.439   .     S
C1076  C1086   1.406   .     A
C1077  C1088   1.406   .     A
C1077  N1141   1.439   .     S
C1078  N1144   1.439   .     S
C1078  C1087   1.406   .     A
C1079  C1087   1.408   .     A
C1079  N1147   1.429   .     S
C1080  C1088   1.408   .     A
C1080  N1150   1.429   .     S
O1089  H1218   0.976   .     S
H1090  O1217   0.976   1_455 S
O1091  H1220   0.976   1_455 S
H1092  O1219   0.976   .     S
O1093  H1094   0.980   .     S
O1095  H1224   0.980   .     S
H1096  O1223   0.980   1_455 S
O1097  H1098   0.976   .     S
O1099  H1100   0.976   .     S
O1101  H1102   0.980   .     S
O1103  H1104   0.980   .     S
N1105  O1107   1.301   .     A
N1105  O1106   1.301   .     A
N1108  O1110   1.301   .     A
N1108  O1109   1.301   .     A
N1111  O1112   1.301   .     A
N1111  O1113   1.302   .     A
N1114  O1116   1.302   .     A
N1114  O1115   1.301   .     A
N1117  O1118   1.301   .     A
N1117  O1119   1.301   .     A
N1120  O1122   1.301   .     A
N1120  O1121   1.301   .     A
N1123  O1124   1.301   .     A
N1123  O1125   1.301   .     A
N1126  O1128   1.301   .     A
N1126  O1127   1.301   .     A
N1129  O1131   1.301   .     A
N1129  O1130   1.301   .     A
N1132  O1133   1.301   .     A
N1132  O1134   1.300   .     A
N1135  O1136   1.301   .     A
N1135  O1137   1.301   .     A
N1138  O1139   1.301   .     A
N1138  O1140   1.301   .     A
N1141  O1143   1.301   .     A
N1141  O1142   1.301   .     A
N1144  O1146   1.302   .     A
N1144  O1145   1.301   .     A
N1147  O1148   1.301   .     A
N1147  O1149   1.300   .     A
N1150  O1152   1.301   .     A
N1150  O1151   1.301   .     A
O1153  C1169   1.297   .     A
O1153  Zn1181  1.999   .     S
O1154  C1170   1.297   .     A
O1154  Zn1054  1.999   1_655 S
O1155  C1170   1.292   .     A
O1155  Zn1053  2.030   1_655 S
O1156  C1169   1.292   .     A
O1156  Zn1182  2.030   .     S
O1157  Zn1054  2.030   1_655 S
O1157  C1171   1.292   .     A
O1158  C1172   1.292   .     A
O1158  Zn1181  2.030   .     S
O1159  C1172   1.297   .     A
O1159  Zn1182  1.999   .     S
O1160  Zn1053  1.999   1_655 S
O1160  C1171   1.297   .     A
O1161  C1173   1.297   .     A
O1161  Zn1439  1.999   .     S
O1162  C1174   1.297   .     A
O1162  Zn1184  1.999   .     S
O1163  Zn1183  2.030   .     S
O1163  C1174   1.292   .     A
O1164  C1173   1.292   .     A
O1164  Zn1440  2.030   .     S
O1165  C1175   1.292   .     A
O1165  Zn1440  2.030   .     S
O1166  Zn1183  2.030   .     S
O1166  C1176   1.292   .     A
O1167  C1176   1.297   .     A
O1167  Zn1184  1.999   .     S
O1168  C1175   1.297   .     A
O1168  Zn1439  1.999   .     S
C1169  C1212   1.437   .     S
C1170  C1211   1.437   .     S
C1171  C1210   1.437   .     S
C1172  C1209   1.437   .     S
C1173  C1216   1.437   .     S
C1174  C1215   1.437   .     S
C1175  C1214   1.437   .     S
C1176  C1213   1.437   .     S
N1177  C1186   1.381   .     A
N1177  Zn1181  2.031   .     S
N1178  Zn1182  2.031   .     S
N1178  C1187   1.372   .     S
N1179  Zn1183  2.031   .     S
N1179  C1192   1.372   .     A
N1179  C1446   1.381   1_545 S
N1180  Zn1184  2.031   .     S
N1180  C1189   1.381   .     A
N1180  C1447   1.372   1_545 S
Zn1183 O1424   1.999   1_545 S
Zn1183 O1417   1.999   1_545 S
Zn1184 O1421   2.030   1_545 S
Zn1184 O1420   2.030   1_545 S
C1185  O1217   1.376   .     S
C1185  N1050   1.381   1_655 A
C1186  O1219   1.376   .     S
C1186  C163    1.412   1_556 S
C1187  O1221   1.370   .     S
C1188  O1223   1.370   .     S
C1188  C161    1.412   1_556 S
C1188  N1049   1.372   1_655 S
C1189  O1225   1.376   .     S
C1190  O1227   1.376   .     S
C1190  N1435   1.381   .     S
C1190  C167    1.412   1_556 S
C1191  O1229   1.370   .     S
C1191  N1436   1.372   .     S
C1192  O1231   1.370   .     S
C1192  C165    1.412   1_556 S
C1193  C1210   1.408   .     A
C1193  N1233   1.429   .     S
C1193  C1203   1.383   .     A
C1194  C1209   1.408   .     A
C1194  N1236   1.429   .     S
C1194  C1204   1.383   .     A
C1195  C1201   1.383   .     A
C1195  N1239   1.439   .     S
C1195  C1209   1.406   .     A
C1196  C1210   1.406   .     A
C1196  N1242   1.439   .     S
C1196  C1202   1.383   .     A
C1197  C1212   1.406   .     A
C1197  N1245   1.439   .     S
C1197  C1207   1.383   .     A
C1198  C1211   1.406   .     A
C1198  N1248   1.439   .     S
C1198  C1208   1.383   .     A
C1199  N1251   1.429   .     S
C1199  C1205   1.383   .     A
C1199  C1211   1.408   .     A
C1200  C1206   1.383   .     A
C1200  C1212   1.408   .     A
C1200  N1254   1.429   .     S
C1201  N1257   1.429   .     S
C1201  C1214   1.408   .     A
C1202  N1260   1.429   .     S
C1202  C1213   1.408   .     A
C1203  C1213   1.406   .     A
C1203  N1263   1.439   .     S
C1204  N1266   1.439   .     S
C1204  C1214   1.406   .     A
C1205  C1216   1.406   .     A
C1205  N1269   1.439   .     S
C1206  N1272   1.439   .     S
C1206  C1215   1.406   .     A
C1207  C1215   1.408   .     A
C1207  N1275   1.429   .     S
C1208  C1216   1.408   .     A
C1208  N1278   1.429   .     S
O1217  H1090   0.976   1_655 S
H1220  O1091   0.976   1_655 S
O1221  H1222   0.980   .     S
O1223  H1096   0.980   1_655 S
O1225  H1226   0.976   .     S
O1227  H1228   0.976   .     S
O1229  H1230   0.980   .     S
O1231  H1232   0.980   .     S
N1233  O1235   1.301   .     A
N1233  O1234   1.301   .     A
N1236  O1238   1.301   .     A
N1236  O1237   1.301   .     A
N1239  O1240   1.301   .     A
N1239  O1241   1.302   .     A
N1242  O1244   1.302   .     A
N1242  O1243   1.301   .     A
N1245  O1246   1.301   .     A
N1245  O1247   1.301   .     A
N1248  O1250   1.301   .     A
N1248  O1249   1.301   .     A
N1251  O1252   1.301   .     A
N1251  O1253   1.301   .     A
N1254  O1256   1.301   .     A
N1254  O1255   1.301   .     A
N1257  O1259   1.301   .     A
N1257  O1258   1.301   .     A
N1260  O1261   1.301   .     A
N1260  O1262   1.300   .     A
N1263  O1264   1.301   .     A
N1263  O1265   1.301   .     A
N1266  O1267   1.301   .     A
N1266  O1268   1.301   .     A
N1269  O1271   1.301   .     A
N1269  O1270   1.301   .     A
N1272  O1274   1.302   .     A
N1272  O1273   1.301   .     A
N1275  O1276   1.301   .     A
N1275  O1277   1.300   .     A
N1278  O1280   1.301   .     A
N1278  O1279   1.301   .     A
O1281  C1297   1.297   .     A
O1281  Zn1309  1.999   .     S
O1282  C1298   1.297   .     A
O1282  Zn1438  1.999   .     S
O1283  C1298   1.292   .     A
O1283  Zn1437  2.030   .     S
O1284  C1297   1.292   .     A
O1284  Zn1310  2.030   .     S
O1285  Zn1438  2.030   .     S
O1285  C1299   1.292   .     A
O1286  C1300   1.292   .     A
O1286  Zn1309  2.030   .     S
O1287  C1300   1.297   .     A
O1287  Zn1310  1.999   .     S
O1288  Zn1437  1.999   .     S
O1288  C1299   1.297   .     A
O1289  C1301   1.297   .     A
O1289  Zn1055  1.999   1_565 S
O1290  C1302   1.297   .     A
O1290  Zn1312  1.999   .     S
O1291  Zn1311  2.030   .     S
O1291  C1302   1.292   .     A
O1292  C1301   1.292   .     A
O1292  Zn1056  2.030   1_565 S
O1293  C1303   1.292   .     A
O1293  Zn1056  2.030   1_565 S
O1294  Zn1311  2.030   .     S
O1294  C1304   1.292   .     A
O1295  C1304   1.297   .     A
O1295  Zn1312  1.999   .     S
O1296  C1303   1.297   .     A
O1296  Zn1055  1.999   1_565 S
C1297  C1340   1.437   .     S
C1298  C1339   1.437   .     S
C1299  C1338   1.437   .     S
C1300  C1337   1.437   .     S
C1301  C1344   1.437   .     S
C1302  C1343   1.437   .     S
C1303  C1342   1.437   .     S
C1304  C1341   1.437   .     S
N1305  C1314   1.381   .     A
N1305  Zn1309  2.031   .     S
N1305  C1444   1.372   1_455 S
N1306  C1441   1.381   1_455 A
N1306  Zn1310  2.031   .     S
N1306  C1315   1.372   .     S
N1307  Zn1311  2.031   .     S
N1307  C1320   1.372   .     A
N1308  Zn1312  2.031   .     S
N1308  C1317   1.381   .     A
Zn1309 O1416   1.999   1_455 S
Zn1309 O1411   2.030   1_455 S
Zn1310 O1413   2.030   1_455 S
Zn1310 O1410   1.999   1_455 S
C1313  O1345   1.376   .     S
C1313  N1434   1.381   .     A
C1314  O1347   1.376   .     S
C1314  C291    1.412   1_556 S
C1315  O1349   1.370   .     S
C1316  O1351   1.370   .     S
C1316  C289    1.412   1_556 S
C1316  N1433   1.372   .     S
C1317  O1353   1.376   .     S
C1318  O1355   1.376   .     S
C1318  N1051   1.381   1_565 S
C1318  C295    1.412   1_556 S
C1319  O1357   1.370   .     S
C1319  N1052   1.372   1_565 S
C1320  O1359   1.370   .     S
C1320  C293    1.412   1_556 S
C1321  C1338   1.408   .     A
C1321  N1361   1.429   .     S
C1321  C1331   1.383   .     A
C1322  C1337   1.408   .     A
C1322  N1364   1.429   .     S
C1322  C1332   1.383   .     A
C1323  C1329   1.383   .     A
C1323  N1367   1.439   .     S
C1323  C1337   1.406   .     A
C1324  C1338   1.406   .     A
C1324  N1370   1.439   .     S
C1324  C1330   1.383   .     A
C1325  C1340   1.406   .     A
C1325  N1373   1.439   .     S
C1325  C1335   1.383   .     A
C1326  C1339   1.406   .     A
C1326  N1376   1.439   .     S
C1326  C1336   1.383   .     A
C1327  N1379   1.429   .     S
C1327  C1333   1.383   .     A
C1327  C1339   1.408   .     A
C1328  C1334   1.383   .     A
C1328  C1340   1.408   .     A
C1328  N1382   1.429   .     S
C1329  N1385   1.429   .     S
C1329  C1342   1.408   .     A
C1330  N1388   1.429   .     S
C1330  C1341   1.408   .     A
C1331  C1341   1.406   .     A
C1331  N1391   1.439   .     S
C1332  N1394   1.439   .     S
C1332  C1342   1.406   .     A
C1333  C1344   1.406   .     A
C1333  N1397   1.439   .     S
C1334  N1400   1.439   .     S
C1334  C1343   1.406   .     A
C1335  C1343   1.408   .     A
C1335  N1403   1.429   .     S
C1336  C1344   1.408   .     A
C1336  N1406   1.429   .     S
O1345  H1474   0.976   .     S
H1346  O1473   0.976   1_455 S
O1347  H1476   0.976   1_455 S
H1348  O1475   0.976   .     S
O1349  H1350   0.980   .     S
O1351  H1480   0.980   .     S
H1352  O1479   0.980   1_455 S
O1353  H1354   0.976   .     S
O1355  H1356   0.976   .     S
O1357  H1358   0.980   .     S
O1359  H1360   0.980   .     S
N1361  O1363   1.301   .     A
N1361  O1362   1.301   .     A
N1364  O1366   1.301   .     A
N1364  O1365   1.301   .     A
N1367  O1368   1.301   .     A
N1367  O1369   1.302   .     A
N1370  O1372   1.302   .     A
N1370  O1371   1.301   .     A
N1373  O1374   1.301   .     A
N1373  O1375   1.301   .     A
N1376  O1378   1.301   .     A
N1376  O1377   1.301   .     A
N1379  O1380   1.301   .     A
N1379  O1381   1.301   .     A
N1382  O1384   1.301   .     A
N1382  O1383   1.301   .     A
N1385  O1387   1.301   .     A
N1385  O1386   1.301   .     A
N1388  O1389   1.301   .     A
N1388  O1390   1.300   .     A
N1391  O1392   1.301   .     A
N1391  O1393   1.301   .     A
N1394  O1395   1.301   .     A
N1394  O1396   1.301   .     A
N1397  O1399   1.301   .     A
N1397  O1398   1.301   .     A
N1400  O1402   1.302   .     A
N1400  O1401   1.301   .     A
N1403  O1404   1.301   .     A
N1403  O1405   1.300   .     A
N1406  O1408   1.301   .     A
N1406  O1407   1.301   .     A
O1409  C1425   1.297   .     A
O1409  Zn1437  1.999   .     S
O1410  C1426   1.297   .     A
O1410  Zn1310  1.999   1_655 S
O1411  C1426   1.292   .     A
O1411  Zn1309  2.030   1_655 S
O1412  C1425   1.292   .     A
O1412  Zn1438  2.030   .     S
O1413  Zn1310  2.030   1_655 S
O1413  C1427   1.292   .     A
O1414  C1428   1.292   .     A
O1414  Zn1437  2.030   .     S
O1415  C1428   1.297   .     A
O1415  Zn1438  1.999   .     S
O1416  Zn1309  1.999   1_655 S
O1416  C1427   1.297   .     A
O1417  C1429   1.297   .     A
O1417  Zn1183  1.999   1_565 S
O1418  C1430   1.297   .     A
O1418  Zn1440  1.999   .     S
O1419  Zn1439  2.030   .     S
O1419  C1430   1.292   .     A
O1420  C1429   1.292   .     A
O1420  Zn1184  2.030   1_565 S
O1421  C1431   1.292   .     A
O1421  Zn1184  2.030   1_565 S
O1422  Zn1439  2.030   .     S
O1422  C1432   1.292   .     A
O1423  C1432   1.297   .     A
O1423  Zn1440  1.999   .     S
O1424  C1431   1.297   .     A
O1424  Zn1183  1.999   1_565 S
C1425  C1468   1.437   .     S
C1426  C1467   1.437   .     S
C1427  C1466   1.437   .     S
C1428  C1465   1.437   .     S
C1429  C1472   1.437   .     S
C1430  C1471   1.437   .     S
C1431  C1470   1.437   .     S
C1432  C1469   1.437   .     S
N1433  C1442   1.381   .     A
N1433  Zn1437  2.031   .     S
N1434  Zn1438  2.031   .     S
N1434  C1443   1.372   .     S
N1435  Zn1439  2.031   .     S
N1435  C1448   1.372   .     A
N1436  Zn1440  2.031   .     S
N1436  C1445   1.381   .     A
C1441  O1473   1.376   .     S
C1441  N1306   1.381   1_655 A
C1442  O1475   1.376   .     S
C1442  C419    1.412   1_556 S
C1443  O1477   1.370   .     S
C1444  O1479   1.370   .     S
C1444  C417    1.412   1_556 S
C1444  N1305   1.372   1_655 S
C1445  O1481   1.376   .     S
C1446  O1483   1.376   .     S
C1446  N1179   1.381   1_565 S
C1446  C423    1.412   1_556 S
C1447  O1485   1.370   .     S
C1447  N1180   1.372   1_565 S
C1448  O1487   1.370   .     S
C1448  C421    1.412   1_556 S
C1449  C1466   1.408   .     A
C1449  N1489   1.429   .     S
C1449  C1459   1.383   .     A
C1450  C1465   1.408   .     A
C1450  N1492   1.429   .     S
C1450  C1460   1.383   .     A
C1451  C1457   1.383   .     A
C1451  N1495   1.439   .     S
C1451  C1465   1.406   .     A
C1452  C1466   1.406   .     A
C1452  N1498   1.439   .     S
C1452  C1458   1.383   .     A
C1453  C1468   1.406   .     A
C1453  N1501   1.439   .     S
C1453  C1463   1.383   .     A
C1454  C1467   1.406   .     A
C1454  N1504   1.439   .     S
C1454  C1464   1.383   .     A
C1455  N1507   1.429   .     S
C1455  C1461   1.383   .     A
C1455  C1467   1.408   .     A
C1456  C1462   1.383   .     A
C1456  C1468   1.408   .     A
C1456  N1510   1.429   .     S
C1457  N1513   1.429   .     S
C1457  C1470   1.408   .     A
C1458  N1516   1.429   .     S
C1458  C1469   1.408   .     A
C1459  C1469   1.406   .     A
C1459  N1519   1.439   .     S
C1460  N1522   1.439   .     S
C1460  C1470   1.406   .     A
C1461  C1472   1.406   .     A
C1461  N1525   1.439   .     S
C1462  N1528   1.439   .     S
C1462  C1471   1.406   .     A
C1463  C1471   1.408   .     A
C1463  N1531   1.429   .     S
C1464  C1472   1.408   .     A
C1464  N1534   1.429   .     S
O1473  H1346   0.976   1_655 S
H1476  O1347   0.976   1_655 S
O1477  H1478   0.980   .     S
O1479  H1352   0.980   1_655 S
O1481  H1482   0.976   .     S
O1483  H1484   0.976   .     S
O1485  H1486   0.980   .     S
O1487  H1488   0.980   .     S
N1489  O1491   1.301   .     A
N1489  O1490   1.301   .     A
N1492  O1494   1.301   .     A
N1492  O1493   1.301   .     A
N1495  O1496   1.301   .     A
N1495  O1497   1.302   .     A
N1498  O1500   1.302   .     A
N1498  O1499   1.301   .     A
N1501  O1502   1.301   .     A
N1501  O1503   1.301   .     A
N1504  O1506   1.301   .     A
N1504  O1505   1.301   .     A
N1507  O1508   1.301   .     A
N1507  O1509   1.301   .     A
N1510  O1512   1.301   .     A
N1510  O1511   1.301   .     A
N1513  O1515   1.301   .     A
N1513  O1514   1.301   .     A
N1516  O1517   1.301   .     A
N1516  O1518   1.300   .     A
N1519  O1520   1.301   .     A
N1519  O1521   1.301   .     A
N1522  O1523   1.301   .     A
N1522  O1524   1.301   .     A
N1525  O1527   1.301   .     A
N1525  O1526   1.301   .     A
N1528  O1530   1.302   .     A
N1528  O1529   1.301   .     A
N1531  O1532   1.301   .     A
N1531  O1533   1.300   .     A
N1534  O1536   1.301   .     A
N1534  O1535   1.301   .     A
