data_str_m2_o1_o10_pcu_sym.59
_audit_creation_date              2020-01-03
_audit_creation_method            'Materials Studio'
_symmetry_space_group_name_H-M    'P1'
_symmetry_Int_Tables_number       1
_symmetry_cell_setting            triclinic
loop_
_symmetry_equiv_pos_as_xyz
  x,y,z
_cell_length_a                    26.1579
_cell_length_b                    32.4637
_cell_length_c                    28.5264
_cell_angle_alpha                 90.1354
_cell_angle_beta                  97.9644
_cell_angle_gamma                 90.4898
loop_
_atom_site_label
_atom_site_type_symbol
_atom_site_fract_x
_atom_site_fract_y
_atom_site_fract_z
_atom_site_U_iso_or_equiv
_atom_site_adp_type
_atom_site_occupancy
C1     C     0.16803   0.08742   0.16685   0.00000  Uiso   1.00
C2     C     0.18993   0.02071   0.20789   0.00000  Uiso   1.00
C3     C     0.16412   0.29055   0.16624   0.00000  Uiso   1.00
C4     C     0.16921   0.04278   0.16710   0.00000  Uiso   1.00
C5     C     0.13212   0.14297   0.02035   0.00000  Uiso   1.00
C6     C     0.20121   0.19036   0.31298   0.00000  Uiso   1.00
C7     C     0.13213   0.14298   0.30406   0.00000  Uiso   1.00
C8     C     0.20120   0.19036   0.02927   0.00000  Uiso   1.00
C9     C     0.11674   0.29227   0.08212   0.00000  Uiso   1.00
C10    C     0.13794   0.29449   0.03957   0.00000  Uiso   1.00
C11    C     0.11399   0.27393   0.33248   0.00000  Uiso   1.00
C12    C     0.16530   0.24591   0.16648   0.00000  Uiso   1.00
C13    C     0.06875   0.25109   0.00093   0.00000  Uiso   1.00
C14    C     0.04720   0.24899   0.04307   0.00000  Uiso   1.00
C15    C     0.07098   0.26957   0.08355   0.00000  Uiso   1.00
C16    C     0.21659   0.04107   0.25122   0.00000  Uiso   1.00
C17    C     0.26235   0.06376   0.24978   0.00000  Uiso   1.00
C18    C     0.28613   0.08434   0.29026   0.00000  Uiso   1.00
C19    C     0.26458   0.08224   0.33240   0.00000  Uiso   1.00
C20    C     0.21934   0.05941   0.00085   0.00000  Uiso   1.00
C21    C     0.19540   0.03884   0.29377   0.00000  Uiso   1.00
C22    C     0.06789   0.16668   0.15455   0.00000  Uiso   1.00
C23    C     0.26544   0.16665   0.17878   0.00000  Uiso   1.00
C24    C     0.01261   0.16679   0.14787   0.00000  Uiso   1.00
C25    C     0.32073   0.16654   0.18547   0.00000  Uiso   1.00
C26    C     0.14678   0.02196   0.12625   0.00000  Uiso   1.00
C27    C     0.18656   0.31137   0.20709   0.00000  Uiso   1.00
C28    C     0.14340   0.31262   0.12544   0.00000  Uiso   1.00
Cu29   Cu    0.16667   0.16667   0.21355   0.00000  Uiso   1.00
Cu30   Cu    0.16667   0.16666   0.11978   0.00000  Uiso   1.00
H31    H     0.32592   0.16710   0.11182   0.00000  Uiso   1.00
H32    H     0.13077   0.27537   0.29989   0.00000  Uiso   1.00
H33    H     0.05049   0.23495   0.30304   0.00000  Uiso   1.00
H34    H     0.01222   0.23124   0.04444   0.00000  Uiso   1.00
H35    H     0.05418   0.26744   0.11611   0.00000  Uiso   1.00
H36    H     0.27915   0.06589   0.21722   0.00000  Uiso   1.00
H37    H     0.32112   0.10209   0.28889   0.00000  Uiso   1.00
H38    H     0.28285   0.09839   0.03029   0.00000  Uiso   1.00
H39    H     0.20257   0.05797   0.03344   0.00000  Uiso   1.00
H40    H     0.15984   0.02190   0.29528   0.00000  Uiso   1.00
H41    H     0.00741   0.16623   0.22152   0.00000  Uiso   1.00
H42    H     0.13016   0.03903   0.09526   0.00000  Uiso   1.00
H43    H     0.20317   0.29430   0.23807   0.00000  Uiso   1.00
H44    H     0.10457   0.12389   0.03551   0.00000  Uiso   1.00
H45    H     0.22877   0.20944   0.29783   0.00000  Uiso   1.00
H46    H     0.10460   0.12389   0.28179   0.00000  Uiso   1.00
H47    H     0.22874   0.20944   0.05154   0.00000  Uiso   1.00
H48    H     0.17349   0.31144   0.03805   0.00000  Uiso   1.00
N49    N     0.16668   0.16668   0.28403   0.00000  Uiso   1.00
N50    N     0.16665   0.16666   0.04931   0.00000  Uiso   1.00
O51    O     0.16666   0.10655   0.20625   0.00000  Uiso   1.00
O52    O     0.16667   0.22678   0.12709   0.00000  Uiso   1.00
O53    O     0.16666   0.10654   0.12706   0.00000  Uiso   1.00
O54    O     0.16667   0.22679   0.20628   0.00000  Uiso   1.00
O55    O     0.09161   0.16667   0.19712   0.00000  Uiso   1.00
O56    O     0.24172   0.16666   0.13621   0.00000  Uiso   1.00
O57    O     0.09161   0.16666   0.11793   0.00000  Uiso   1.00
O58    O     0.24172   0.16667   0.21540   0.00000  Uiso   1.00
C59    C     0.50136   0.08742   0.16685   0.00000  Uiso   1.00
C60    C     0.52327   0.02071   0.20789   0.00000  Uiso   1.00
C61    C     0.49745   0.29055   0.16624   0.00000  Uiso   1.00
C62    C     0.50255   0.04278   0.16710   0.00000  Uiso   1.00
C63    C     0.46545   0.14297   0.02035   0.00000  Uiso   1.00
C64    C     0.53455   0.19036   0.31298   0.00000  Uiso   1.00
C65    C     0.46547   0.14298   0.30406   0.00000  Uiso   1.00
C66    C     0.53453   0.19036   0.02927   0.00000  Uiso   1.00
C67    C     0.45007   0.29227   0.08212   0.00000  Uiso   1.00
C68    C     0.47127   0.29449   0.03957   0.00000  Uiso   1.00
C69    C     0.44733   0.27393   0.33248   0.00000  Uiso   1.00
C70    C     0.49864   0.24591   0.16648   0.00000  Uiso   1.00
C71    C     0.40209   0.25109   0.00093   0.00000  Uiso   1.00
C72    C     0.38054   0.24899   0.04307   0.00000  Uiso   1.00
C73    C     0.40431   0.26957   0.08355   0.00000  Uiso   1.00
C74    C     0.54993   0.04107   0.25122   0.00000  Uiso   1.00
C75    C     0.59569   0.06376   0.24978   0.00000  Uiso   1.00
C76    C     0.61947   0.08434   0.29026   0.00000  Uiso   1.00
C77    C     0.59791   0.08224   0.33240   0.00000  Uiso   1.00
C78    C     0.55268   0.05941   0.00085   0.00000  Uiso   1.00
C79    C     0.52873   0.03884   0.29377   0.00000  Uiso   1.00
C80    C     0.40122   0.16668   0.15455   0.00000  Uiso   1.00
C81    C     0.59877   0.16665   0.17878   0.00000  Uiso   1.00
C82    C     0.34594   0.16679   0.14787   0.00000  Uiso   1.00
C83    C     0.65406   0.16654   0.18547   0.00000  Uiso   1.00
C84    C     0.48011   0.02196   0.12625   0.00000  Uiso   1.00
C85    C     0.51989   0.31137   0.20709   0.00000  Uiso   1.00
C86    C     0.47673   0.31262   0.12544   0.00000  Uiso   1.00
Cu87   Cu    0.50000   0.16667   0.21355   0.00000  Uiso   1.00
Cu88   Cu    0.50000   0.16666   0.11978   0.00000  Uiso   1.00
H89    H     0.65926   0.16710   0.11182   0.00000  Uiso   1.00
H90    H     0.46410   0.27537   0.29989   0.00000  Uiso   1.00
H91    H     0.38382   0.23495   0.30304   0.00000  Uiso   1.00
H92    H     0.34555   0.23124   0.04444   0.00000  Uiso   1.00
H93    H     0.38751   0.26744   0.11611   0.00000  Uiso   1.00
H94    H     0.61249   0.06589   0.21722   0.00000  Uiso   1.00
H95    H     0.65445   0.10209   0.28889   0.00000  Uiso   1.00
H96    H     0.61618   0.09839   0.03029   0.00000  Uiso   1.00
H97    H     0.53590   0.05797   0.03344   0.00000  Uiso   1.00
H98    H     0.49318   0.02190   0.29528   0.00000  Uiso   1.00
H99    H     0.34074   0.16623   0.22152   0.00000  Uiso   1.00
H100   H     0.46349   0.03903   0.09526   0.00000  Uiso   1.00
H101   H     0.53651   0.29430   0.23807   0.00000  Uiso   1.00
H102   H     0.43790   0.12389   0.03551   0.00000  Uiso   1.00
H103   H     0.56210   0.20944   0.29783   0.00000  Uiso   1.00
H104   H     0.43793   0.12389   0.28179   0.00000  Uiso   1.00
H105   H     0.56207   0.20944   0.05154   0.00000  Uiso   1.00
H106   H     0.50682   0.31144   0.03805   0.00000  Uiso   1.00
N107   N     0.50001   0.16668   0.28403   0.00000  Uiso   1.00
N108   N     0.49999   0.16666   0.04931   0.00000  Uiso   1.00
O109   O     0.50000   0.10655   0.20625   0.00000  Uiso   1.00
O110   O     0.50000   0.22678   0.12709   0.00000  Uiso   1.00
O111   O     0.50000   0.10654   0.12706   0.00000  Uiso   1.00
O112   O     0.50000   0.22679   0.20628   0.00000  Uiso   1.00
O113   O     0.42495   0.16667   0.19712   0.00000  Uiso   1.00
O114   O     0.57505   0.16666   0.13621   0.00000  Uiso   1.00
O115   O     0.42494   0.16666   0.11793   0.00000  Uiso   1.00
O116   O     0.57506   0.16667   0.21540   0.00000  Uiso   1.00
C117   C     0.83470   0.08742   0.16685   0.00000  Uiso   1.00
C118   C     0.85660   0.02071   0.20789   0.00000  Uiso   1.00
C119   C     0.83079   0.29055   0.16624   0.00000  Uiso   1.00
C120   C     0.83588   0.04278   0.16710   0.00000  Uiso   1.00
C121   C     0.79879   0.14297   0.02035   0.00000  Uiso   1.00
C122   C     0.86788   0.19036   0.31298   0.00000  Uiso   1.00
C123   C     0.79880   0.14298   0.30406   0.00000  Uiso   1.00
C124   C     0.86787   0.19036   0.02927   0.00000  Uiso   1.00
C125   C     0.78341   0.29227   0.08212   0.00000  Uiso   1.00
C126   C     0.80460   0.29449   0.03957   0.00000  Uiso   1.00
C127   C     0.78066   0.27393   0.33248   0.00000  Uiso   1.00
C128   C     0.83197   0.24591   0.16648   0.00000  Uiso   1.00
C129   C     0.73542   0.25109   0.00093   0.00000  Uiso   1.00
C130   C     0.71387   0.24899   0.04307   0.00000  Uiso   1.00
C131   C     0.73765   0.26957   0.08355   0.00000  Uiso   1.00
C132   C     0.88326   0.04107   0.25122   0.00000  Uiso   1.00
C133   C     0.92902   0.06376   0.24978   0.00000  Uiso   1.00
C134   C     0.95280   0.08434   0.29026   0.00000  Uiso   1.00
C135   C     0.93125   0.08224   0.33240   0.00000  Uiso   1.00
C136   C     0.88601   0.05941   0.00085   0.00000  Uiso   1.00
C137   C     0.86207   0.03884   0.29377   0.00000  Uiso   1.00
C138   C     0.73456   0.16668   0.15455   0.00000  Uiso   1.00
C139   C     0.93211   0.16665   0.17878   0.00000  Uiso   1.00
C140   C     0.67927   0.16679   0.14787   0.00000  Uiso   1.00
C141   C     0.98739   0.16654   0.18547   0.00000  Uiso   1.00
C142   C     0.81344   0.02196   0.12625   0.00000  Uiso   1.00
C143   C     0.85322   0.31137   0.20709   0.00000  Uiso   1.00
C144   C     0.81007   0.31262   0.12544   0.00000  Uiso   1.00
Cu145  Cu    0.83333   0.16667   0.21355   0.00000  Uiso   1.00
Cu146  Cu    0.83333   0.16666   0.11978   0.00000  Uiso   1.00
H147   H     0.99259   0.16710   0.11182   0.00000  Uiso   1.00
H148   H     0.79743   0.27537   0.29989   0.00000  Uiso   1.00
H149   H     0.71715   0.23495   0.30304   0.00000  Uiso   1.00
H150   H     0.67888   0.23124   0.04444   0.00000  Uiso   1.00
H151   H     0.72085   0.26744   0.11611   0.00000  Uiso   1.00
H152   H     0.94582   0.06589   0.21722   0.00000  Uiso   1.00
H153   H     0.98779   0.10209   0.28889   0.00000  Uiso   1.00
H154   H     0.94951   0.09839   0.03029   0.00000  Uiso   1.00
H155   H     0.86923   0.05797   0.03344   0.00000  Uiso   1.00
H156   H     0.82651   0.02190   0.29528   0.00000  Uiso   1.00
H157   H     0.67408   0.16623   0.22152   0.00000  Uiso   1.00
H158   H     0.79683   0.03903   0.09526   0.00000  Uiso   1.00
H159   H     0.86984   0.29430   0.23807   0.00000  Uiso   1.00
H160   H     0.77123   0.12389   0.03551   0.00000  Uiso   1.00
H161   H     0.89543   0.20944   0.29783   0.00000  Uiso   1.00
H162   H     0.77126   0.12389   0.28179   0.00000  Uiso   1.00
H163   H     0.89540   0.20944   0.05154   0.00000  Uiso   1.00
H164   H     0.84016   0.31144   0.03805   0.00000  Uiso   1.00
N165   N     0.83335   0.16668   0.28403   0.00000  Uiso   1.00
N166   N     0.83332   0.16666   0.04931   0.00000  Uiso   1.00
O167   O     0.83333   0.10655   0.20625   0.00000  Uiso   1.00
O168   O     0.83334   0.22678   0.12709   0.00000  Uiso   1.00
O169   O     0.83333   0.10654   0.12706   0.00000  Uiso   1.00
O170   O     0.83334   0.22679   0.20628   0.00000  Uiso   1.00
O171   O     0.75828   0.16667   0.19712   0.00000  Uiso   1.00
O172   O     0.90839   0.16666   0.13621   0.00000  Uiso   1.00
O173   O     0.75828   0.16666   0.11793   0.00000  Uiso   1.00
O174   O     0.90839   0.16667   0.21540   0.00000  Uiso   1.00
C175   C     0.16803   0.42075   0.16685   0.00000  Uiso   1.00
C176   C     0.18993   0.35404   0.20789   0.00000  Uiso   1.00
C177   C     0.16412   0.62388   0.16624   0.00000  Uiso   1.00
C178   C     0.16921   0.37612   0.16710   0.00000  Uiso   1.00
C179   C     0.13212   0.47630   0.02035   0.00000  Uiso   1.00
C180   C     0.20121   0.52370   0.31298   0.00000  Uiso   1.00
C181   C     0.13213   0.47631   0.30406   0.00000  Uiso   1.00
C182   C     0.20120   0.52369   0.02927   0.00000  Uiso   1.00
C183   C     0.11674   0.62560   0.08212   0.00000  Uiso   1.00
C184   C     0.13794   0.62783   0.03957   0.00000  Uiso   1.00
C185   C     0.11399   0.60726   0.33248   0.00000  Uiso   1.00
C186   C     0.16530   0.57924   0.16648   0.00000  Uiso   1.00
C187   C     0.06875   0.58443   0.00093   0.00000  Uiso   1.00
C188   C     0.04720   0.58232   0.04307   0.00000  Uiso   1.00
C189   C     0.07098   0.60290   0.08355   0.00000  Uiso   1.00
C190   C     0.21659   0.37440   0.25122   0.00000  Uiso   1.00
C191   C     0.26235   0.39709   0.24978   0.00000  Uiso   1.00
C192   C     0.28613   0.41768   0.29026   0.00000  Uiso   1.00
C193   C     0.26458   0.41558   0.33240   0.00000  Uiso   1.00
C194   C     0.21934   0.39274   0.00085   0.00000  Uiso   1.00
C195   C     0.19540   0.37217   0.29377   0.00000  Uiso   1.00
C196   C     0.06789   0.50002   0.15455   0.00000  Uiso   1.00
C197   C     0.26544   0.49998   0.17878   0.00000  Uiso   1.00
C198   C     0.01261   0.50013   0.14787   0.00000  Uiso   1.00
C199   C     0.32073   0.49987   0.18547   0.00000  Uiso   1.00
C200   C     0.14678   0.35530   0.12625   0.00000  Uiso   1.00
C201   C     0.18656   0.64470   0.20709   0.00000  Uiso   1.00
C202   C     0.14340   0.64596   0.12544   0.00000  Uiso   1.00
Cu203  Cu    0.16667   0.50001   0.21355   0.00000  Uiso   1.00
Cu204  Cu    0.16667   0.49999   0.11978   0.00000  Uiso   1.00
H205   H     0.32592   0.50044   0.11182   0.00000  Uiso   1.00
H206   H     0.13077   0.60870   0.29989   0.00000  Uiso   1.00
H207   H     0.05049   0.56828   0.30304   0.00000  Uiso   1.00
H208   H     0.01222   0.56457   0.04444   0.00000  Uiso   1.00
H209   H     0.05418   0.60077   0.11611   0.00000  Uiso   1.00
H210   H     0.27915   0.39922   0.21722   0.00000  Uiso   1.00
H211   H     0.32112   0.43543   0.28889   0.00000  Uiso   1.00
H212   H     0.28285   0.43172   0.03029   0.00000  Uiso   1.00
H213   H     0.20257   0.39130   0.03344   0.00000  Uiso   1.00
H214   H     0.15984   0.35523   0.29528   0.00000  Uiso   1.00
H215   H     0.00741   0.49956   0.22152   0.00000  Uiso   1.00
H216   H     0.13016   0.37237   0.09526   0.00000  Uiso   1.00
H217   H     0.20317   0.62763   0.23807   0.00000  Uiso   1.00
H218   H     0.10457   0.45722   0.03551   0.00000  Uiso   1.00
H219   H     0.22877   0.54278   0.29783   0.00000  Uiso   1.00
H220   H     0.10460   0.45722   0.28179   0.00000  Uiso   1.00
H221   H     0.22874   0.54278   0.05154   0.00000  Uiso   1.00
H222   H     0.17349   0.64477   0.03805   0.00000  Uiso   1.00
N223   N     0.16668   0.50001   0.28403   0.00000  Uiso   1.00
N224   N     0.16665   0.49999   0.04931   0.00000  Uiso   1.00
O225   O     0.16666   0.43989   0.20625   0.00000  Uiso   1.00
O226   O     0.16667   0.56011   0.12709   0.00000  Uiso   1.00
O227   O     0.16666   0.43988   0.12706   0.00000  Uiso   1.00
O228   O     0.16667   0.56012   0.20628   0.00000  Uiso   1.00
O229   O     0.09161   0.50000   0.19712   0.00000  Uiso   1.00
O230   O     0.24172   0.50000   0.13621   0.00000  Uiso   1.00
O231   O     0.09161   0.49999   0.11793   0.00000  Uiso   1.00
O232   O     0.24172   0.50001   0.21540   0.00000  Uiso   1.00
C233   C     0.50136   0.42075   0.16685   0.00000  Uiso   1.00
C234   C     0.52327   0.35404   0.20789   0.00000  Uiso   1.00
C235   C     0.49745   0.62388   0.16624   0.00000  Uiso   1.00
C236   C     0.50255   0.37612   0.16710   0.00000  Uiso   1.00
C237   C     0.46545   0.47630   0.02035   0.00000  Uiso   1.00
C238   C     0.53455   0.52370   0.31298   0.00000  Uiso   1.00
C239   C     0.46547   0.47631   0.30406   0.00000  Uiso   1.00
C240   C     0.53453   0.52369   0.02927   0.00000  Uiso   1.00
C241   C     0.45007   0.62560   0.08212   0.00000  Uiso   1.00
C242   C     0.47127   0.62783   0.03957   0.00000  Uiso   1.00
C243   C     0.44733   0.60726   0.33248   0.00000  Uiso   1.00
C244   C     0.49864   0.57924   0.16648   0.00000  Uiso   1.00
C245   C     0.40209   0.58443   0.00093   0.00000  Uiso   1.00
C246   C     0.38054   0.58232   0.04307   0.00000  Uiso   1.00
C247   C     0.40431   0.60290   0.08355   0.00000  Uiso   1.00
C248   C     0.54993   0.37440   0.25122   0.00000  Uiso   1.00
C249   C     0.59569   0.39709   0.24978   0.00000  Uiso   1.00
C250   C     0.61947   0.41768   0.29026   0.00000  Uiso   1.00
C251   C     0.59791   0.41558   0.33240   0.00000  Uiso   1.00
C252   C     0.55268   0.39274   0.00085   0.00000  Uiso   1.00
C253   C     0.52873   0.37217   0.29377   0.00000  Uiso   1.00
C254   C     0.40122   0.50002   0.15455   0.00000  Uiso   1.00
C255   C     0.59877   0.49998   0.17878   0.00000  Uiso   1.00
C256   C     0.34594   0.50013   0.14787   0.00000  Uiso   1.00
C257   C     0.65406   0.49987   0.18547   0.00000  Uiso   1.00
C258   C     0.48011   0.35530   0.12625   0.00000  Uiso   1.00
C259   C     0.51989   0.64470   0.20709   0.00000  Uiso   1.00
C260   C     0.47673   0.64596   0.12544   0.00000  Uiso   1.00
Cu261  Cu    0.50000   0.50001   0.21355   0.00000  Uiso   1.00
Cu262  Cu    0.50000   0.49999   0.11978   0.00000  Uiso   1.00
H263   H     0.65926   0.50044   0.11182   0.00000  Uiso   1.00
H264   H     0.46410   0.60870   0.29989   0.00000  Uiso   1.00
H265   H     0.38382   0.56828   0.30304   0.00000  Uiso   1.00
H266   H     0.34555   0.56457   0.04444   0.00000  Uiso   1.00
H267   H     0.38751   0.60077   0.11611   0.00000  Uiso   1.00
H268   H     0.61249   0.39922   0.21722   0.00000  Uiso   1.00
H269   H     0.65445   0.43543   0.28889   0.00000  Uiso   1.00
H270   H     0.61618   0.43172   0.03029   0.00000  Uiso   1.00
H271   H     0.53590   0.39130   0.03344   0.00000  Uiso   1.00
H272   H     0.49318   0.35523   0.29528   0.00000  Uiso   1.00
H273   H     0.34074   0.49956   0.22152   0.00000  Uiso   1.00
H274   H     0.46349   0.37237   0.09526   0.00000  Uiso   1.00
H275   H     0.53651   0.62763   0.23807   0.00000  Uiso   1.00
H276   H     0.43790   0.45722   0.03551   0.00000  Uiso   1.00
H277   H     0.56210   0.54278   0.29783   0.00000  Uiso   1.00
H278   H     0.43793   0.45722   0.28179   0.00000  Uiso   1.00
H279   H     0.56207   0.54278   0.05154   0.00000  Uiso   1.00
H280   H     0.50682   0.64477   0.03805   0.00000  Uiso   1.00
N281   N     0.50001   0.50001   0.28403   0.00000  Uiso   1.00
N282   N     0.49999   0.49999   0.04931   0.00000  Uiso   1.00
O283   O     0.50000   0.43989   0.20625   0.00000  Uiso   1.00
O284   O     0.50000   0.56011   0.12709   0.00000  Uiso   1.00
O285   O     0.50000   0.43988   0.12706   0.00000  Uiso   1.00
O286   O     0.50000   0.56012   0.20628   0.00000  Uiso   1.00
O287   O     0.42495   0.50000   0.19712   0.00000  Uiso   1.00
O288   O     0.57505   0.50000   0.13621   0.00000  Uiso   1.00
O289   O     0.42494   0.49999   0.11793   0.00000  Uiso   1.00
O290   O     0.57506   0.50001   0.21540   0.00000  Uiso   1.00
C291   C     0.83470   0.42075   0.16685   0.00000  Uiso   1.00
C292   C     0.85660   0.35404   0.20789   0.00000  Uiso   1.00
C293   C     0.83079   0.62388   0.16624   0.00000  Uiso   1.00
C294   C     0.83588   0.37612   0.16710   0.00000  Uiso   1.00
C295   C     0.79879   0.47630   0.02035   0.00000  Uiso   1.00
C296   C     0.86788   0.52370   0.31298   0.00000  Uiso   1.00
C297   C     0.79880   0.47631   0.30406   0.00000  Uiso   1.00
C298   C     0.86787   0.52369   0.02927   0.00000  Uiso   1.00
C299   C     0.78341   0.62560   0.08212   0.00000  Uiso   1.00
C300   C     0.80460   0.62783   0.03957   0.00000  Uiso   1.00
C301   C     0.78066   0.60726   0.33248   0.00000  Uiso   1.00
C302   C     0.83197   0.57924   0.16648   0.00000  Uiso   1.00
C303   C     0.73542   0.58443   0.00093   0.00000  Uiso   1.00
C304   C     0.71387   0.58232   0.04307   0.00000  Uiso   1.00
C305   C     0.73765   0.60290   0.08355   0.00000  Uiso   1.00
C306   C     0.88326   0.37440   0.25122   0.00000  Uiso   1.00
C307   C     0.92902   0.39709   0.24978   0.00000  Uiso   1.00
C308   C     0.95280   0.41768   0.29026   0.00000  Uiso   1.00
C309   C     0.93125   0.41558   0.33240   0.00000  Uiso   1.00
C310   C     0.88601   0.39274   0.00085   0.00000  Uiso   1.00
C311   C     0.86207   0.37217   0.29377   0.00000  Uiso   1.00
C312   C     0.73456   0.50002   0.15455   0.00000  Uiso   1.00
C313   C     0.93211   0.49998   0.17878   0.00000  Uiso   1.00
C314   C     0.67927   0.50013   0.14787   0.00000  Uiso   1.00
C315   C     0.98739   0.49987   0.18547   0.00000  Uiso   1.00
C316   C     0.81344   0.35530   0.12625   0.00000  Uiso   1.00
C317   C     0.85322   0.64470   0.20709   0.00000  Uiso   1.00
C318   C     0.81007   0.64596   0.12544   0.00000  Uiso   1.00
Cu319  Cu    0.83333   0.50001   0.21355   0.00000  Uiso   1.00
Cu320  Cu    0.83333   0.49999   0.11978   0.00000  Uiso   1.00
H321   H     0.99259   0.50044   0.11182   0.00000  Uiso   1.00
H322   H     0.79743   0.60870   0.29989   0.00000  Uiso   1.00
H323   H     0.71715   0.56828   0.30304   0.00000  Uiso   1.00
H324   H     0.67888   0.56457   0.04444   0.00000  Uiso   1.00
H325   H     0.72085   0.60077   0.11611   0.00000  Uiso   1.00
H326   H     0.94582   0.39922   0.21722   0.00000  Uiso   1.00
H327   H     0.98779   0.43543   0.28889   0.00000  Uiso   1.00
H328   H     0.94951   0.43172   0.03029   0.00000  Uiso   1.00
H329   H     0.86923   0.39130   0.03344   0.00000  Uiso   1.00
H330   H     0.82651   0.35523   0.29528   0.00000  Uiso   1.00
H331   H     0.67408   0.49956   0.22152   0.00000  Uiso   1.00
H332   H     0.79683   0.37237   0.09526   0.00000  Uiso   1.00
H333   H     0.86984   0.62763   0.23807   0.00000  Uiso   1.00
H334   H     0.77123   0.45722   0.03551   0.00000  Uiso   1.00
H335   H     0.89543   0.54278   0.29783   0.00000  Uiso   1.00
H336   H     0.77126   0.45722   0.28179   0.00000  Uiso   1.00
H337   H     0.89540   0.54278   0.05154   0.00000  Uiso   1.00
H338   H     0.84016   0.64477   0.03805   0.00000  Uiso   1.00
N339   N     0.83335   0.50001   0.28403   0.00000  Uiso   1.00
N340   N     0.83332   0.49999   0.04931   0.00000  Uiso   1.00
O341   O     0.83333   0.43989   0.20625   0.00000  Uiso   1.00
O342   O     0.83334   0.56011   0.12709   0.00000  Uiso   1.00
O343   O     0.83333   0.43988   0.12706   0.00000  Uiso   1.00
O344   O     0.83334   0.56012   0.20628   0.00000  Uiso   1.00
O345   O     0.75828   0.50000   0.19712   0.00000  Uiso   1.00
O346   O     0.90839   0.50000   0.13621   0.00000  Uiso   1.00
O347   O     0.75828   0.49999   0.11793   0.00000  Uiso   1.00
O348   O     0.90839   0.50001   0.21540   0.00000  Uiso   1.00
C349   C     0.16803   0.75409   0.16685   0.00000  Uiso   1.00
C350   C     0.18993   0.68738   0.20789   0.00000  Uiso   1.00
C351   C     0.16412   0.95722   0.16624   0.00000  Uiso   1.00
C352   C     0.16921   0.70945   0.16710   0.00000  Uiso   1.00
C353   C     0.13212   0.80963   0.02035   0.00000  Uiso   1.00
C354   C     0.20121   0.85703   0.31298   0.00000  Uiso   1.00
C355   C     0.13213   0.80964   0.30406   0.00000  Uiso   1.00
C356   C     0.20120   0.85702   0.02927   0.00000  Uiso   1.00
C357   C     0.11674   0.95893   0.08212   0.00000  Uiso   1.00
C358   C     0.13794   0.96116   0.03957   0.00000  Uiso   1.00
C359   C     0.11399   0.94059   0.33248   0.00000  Uiso   1.00
C360   C     0.16530   0.91258   0.16648   0.00000  Uiso   1.00
C361   C     0.06875   0.91776   0.00093   0.00000  Uiso   1.00
C362   C     0.04720   0.91566   0.04307   0.00000  Uiso   1.00
C363   C     0.07098   0.93624   0.08355   0.00000  Uiso   1.00
C364   C     0.21659   0.70773   0.25122   0.00000  Uiso   1.00
C365   C     0.26235   0.73043   0.24978   0.00000  Uiso   1.00
C366   C     0.28613   0.75101   0.29026   0.00000  Uiso   1.00
C367   C     0.26458   0.74891   0.33240   0.00000  Uiso   1.00
C368   C     0.21934   0.72608   0.00085   0.00000  Uiso   1.00
C369   C     0.19540   0.70551   0.29377   0.00000  Uiso   1.00
C370   C     0.06789   0.83335   0.15455   0.00000  Uiso   1.00
C371   C     0.26544   0.83332   0.17878   0.00000  Uiso   1.00
C372   C     0.01261   0.83346   0.14787   0.00000  Uiso   1.00
C373   C     0.32073   0.83321   0.18547   0.00000  Uiso   1.00
C374   C     0.14678   0.68863   0.12625   0.00000  Uiso   1.00
C375   C     0.18656   0.97804   0.20709   0.00000  Uiso   1.00
C376   C     0.14340   0.97929   0.12544   0.00000  Uiso   1.00
Cu377  Cu    0.16667   0.83334   0.21355   0.00000  Uiso   1.00
Cu378  Cu    0.16667   0.83333   0.11978   0.00000  Uiso   1.00
H379   H     0.32592   0.83377   0.11182   0.00000  Uiso   1.00
H380   H     0.13077   0.94203   0.29989   0.00000  Uiso   1.00
H381   H     0.05049   0.90161   0.30304   0.00000  Uiso   1.00
H382   H     0.01222   0.89791   0.04444   0.00000  Uiso   1.00
H383   H     0.05418   0.93411   0.11611   0.00000  Uiso   1.00
H384   H     0.27915   0.73256   0.21722   0.00000  Uiso   1.00
H385   H     0.32112   0.76876   0.28889   0.00000  Uiso   1.00
H386   H     0.28285   0.76506   0.03029   0.00000  Uiso   1.00
H387   H     0.20257   0.72464   0.03344   0.00000  Uiso   1.00
H388   H     0.15984   0.68857   0.29528   0.00000  Uiso   1.00
H389   H     0.00741   0.83290   0.22152   0.00000  Uiso   1.00
H390   H     0.13016   0.70570   0.09526   0.00000  Uiso   1.00
H391   H     0.20317   0.96096   0.23807   0.00000  Uiso   1.00
H392   H     0.10457   0.79055   0.03551   0.00000  Uiso   1.00
H393   H     0.22877   0.87611   0.29783   0.00000  Uiso   1.00
H394   H     0.10460   0.79055   0.28179   0.00000  Uiso   1.00
H395   H     0.22874   0.87611   0.05154   0.00000  Uiso   1.00
H396   H     0.17349   0.97810   0.03805   0.00000  Uiso   1.00
N397   N     0.16668   0.83334   0.28403   0.00000  Uiso   1.00
N398   N     0.16665   0.83332   0.04931   0.00000  Uiso   1.00
O399   O     0.16666   0.77322   0.20625   0.00000  Uiso   1.00
O400   O     0.16667   0.89345   0.12709   0.00000  Uiso   1.00
O401   O     0.16666   0.77321   0.12706   0.00000  Uiso   1.00
O402   O     0.16667   0.89346   0.20628   0.00000  Uiso   1.00
O403   O     0.09161   0.83334   0.19712   0.00000  Uiso   1.00
O404   O     0.24172   0.83333   0.13621   0.00000  Uiso   1.00
O405   O     0.09161   0.83333   0.11793   0.00000  Uiso   1.00
O406   O     0.24172   0.83334   0.21540   0.00000  Uiso   1.00
C407   C     0.50136   0.75409   0.16685   0.00000  Uiso   1.00
C408   C     0.52327   0.68738   0.20789   0.00000  Uiso   1.00
C409   C     0.49745   0.95722   0.16624   0.00000  Uiso   1.00
C410   C     0.50255   0.70945   0.16710   0.00000  Uiso   1.00
C411   C     0.46545   0.80963   0.02035   0.00000  Uiso   1.00
C412   C     0.53455   0.85703   0.31298   0.00000  Uiso   1.00
C413   C     0.46547   0.80964   0.30406   0.00000  Uiso   1.00
C414   C     0.53453   0.85702   0.02927   0.00000  Uiso   1.00
C415   C     0.45007   0.95893   0.08212   0.00000  Uiso   1.00
C416   C     0.47127   0.96116   0.03957   0.00000  Uiso   1.00
C417   C     0.44733   0.94059   0.33248   0.00000  Uiso   1.00
C418   C     0.49864   0.91258   0.16648   0.00000  Uiso   1.00
C419   C     0.40209   0.91776   0.00093   0.00000  Uiso   1.00
C420   C     0.38054   0.91566   0.04307   0.00000  Uiso   1.00
C421   C     0.40431   0.93624   0.08355   0.00000  Uiso   1.00
C422   C     0.54993   0.70773   0.25122   0.00000  Uiso   1.00
C423   C     0.59569   0.73043   0.24978   0.00000  Uiso   1.00
C424   C     0.61947   0.75101   0.29026   0.00000  Uiso   1.00
C425   C     0.59791   0.74891   0.33240   0.00000  Uiso   1.00
C426   C     0.55268   0.72608   0.00085   0.00000  Uiso   1.00
C427   C     0.52873   0.70551   0.29377   0.00000  Uiso   1.00
C428   C     0.40122   0.83335   0.15455   0.00000  Uiso   1.00
C429   C     0.59877   0.83332   0.17878   0.00000  Uiso   1.00
C430   C     0.34594   0.83346   0.14787   0.00000  Uiso   1.00
C431   C     0.65406   0.83321   0.18547   0.00000  Uiso   1.00
C432   C     0.48011   0.68863   0.12625   0.00000  Uiso   1.00
C433   C     0.51989   0.97804   0.20709   0.00000  Uiso   1.00
C434   C     0.47673   0.97929   0.12544   0.00000  Uiso   1.00
Cu435  Cu    0.50000   0.83334   0.21355   0.00000  Uiso   1.00
Cu436  Cu    0.50000   0.83333   0.11978   0.00000  Uiso   1.00
H437   H     0.65926   0.83377   0.11182   0.00000  Uiso   1.00
H438   H     0.46410   0.94203   0.29989   0.00000  Uiso   1.00
H439   H     0.38382   0.90161   0.30304   0.00000  Uiso   1.00
H440   H     0.34555   0.89791   0.04444   0.00000  Uiso   1.00
H441   H     0.38751   0.93411   0.11611   0.00000  Uiso   1.00
H442   H     0.61249   0.73256   0.21722   0.00000  Uiso   1.00
H443   H     0.65445   0.76876   0.28889   0.00000  Uiso   1.00
H444   H     0.61618   0.76506   0.03029   0.00000  Uiso   1.00
H445   H     0.53590   0.72464   0.03344   0.00000  Uiso   1.00
H446   H     0.49318   0.68857   0.29528   0.00000  Uiso   1.00
H447   H     0.34074   0.83290   0.22152   0.00000  Uiso   1.00
H448   H     0.46349   0.70570   0.09526   0.00000  Uiso   1.00
H449   H     0.53651   0.96096   0.23807   0.00000  Uiso   1.00
H450   H     0.43790   0.79055   0.03551   0.00000  Uiso   1.00
H451   H     0.56210   0.87611   0.29783   0.00000  Uiso   1.00
H452   H     0.43793   0.79055   0.28179   0.00000  Uiso   1.00
H453   H     0.56207   0.87611   0.05154   0.00000  Uiso   1.00
H454   H     0.50682   0.97810   0.03805   0.00000  Uiso   1.00
N455   N     0.50001   0.83334   0.28403   0.00000  Uiso   1.00
N456   N     0.49999   0.83332   0.04931   0.00000  Uiso   1.00
O457   O     0.50000   0.77322   0.20625   0.00000  Uiso   1.00
O458   O     0.50000   0.89345   0.12709   0.00000  Uiso   1.00
O459   O     0.50000   0.77321   0.12706   0.00000  Uiso   1.00
O460   O     0.50000   0.89346   0.20628   0.00000  Uiso   1.00
O461   O     0.42495   0.83334   0.19712   0.00000  Uiso   1.00
O462   O     0.57505   0.83333   0.13621   0.00000  Uiso   1.00
O463   O     0.42494   0.83333   0.11793   0.00000  Uiso   1.00
O464   O     0.57506   0.83334   0.21540   0.00000  Uiso   1.00
C465   C     0.83470   0.75409   0.16685   0.00000  Uiso   1.00
C466   C     0.85660   0.68738   0.20789   0.00000  Uiso   1.00
C467   C     0.83079   0.95722   0.16624   0.00000  Uiso   1.00
C468   C     0.83588   0.70945   0.16710   0.00000  Uiso   1.00
C469   C     0.79879   0.80963   0.02035   0.00000  Uiso   1.00
C470   C     0.86788   0.85703   0.31298   0.00000  Uiso   1.00
C471   C     0.79880   0.80964   0.30406   0.00000  Uiso   1.00
C472   C     0.86787   0.85702   0.02927   0.00000  Uiso   1.00
C473   C     0.78341   0.95893   0.08212   0.00000  Uiso   1.00
C474   C     0.80460   0.96116   0.03957   0.00000  Uiso   1.00
C475   C     0.78066   0.94059   0.33248   0.00000  Uiso   1.00
C476   C     0.83197   0.91258   0.16648   0.00000  Uiso   1.00
C477   C     0.73542   0.91776   0.00093   0.00000  Uiso   1.00
C478   C     0.71387   0.91566   0.04307   0.00000  Uiso   1.00
C479   C     0.73765   0.93624   0.08355   0.00000  Uiso   1.00
C480   C     0.88326   0.70773   0.25122   0.00000  Uiso   1.00
C481   C     0.92902   0.73043   0.24978   0.00000  Uiso   1.00
C482   C     0.95280   0.75101   0.29026   0.00000  Uiso   1.00
C483   C     0.93125   0.74891   0.33240   0.00000  Uiso   1.00
C484   C     0.88601   0.72608   0.00085   0.00000  Uiso   1.00
C485   C     0.86207   0.70551   0.29377   0.00000  Uiso   1.00
C486   C     0.73456   0.83335   0.15455   0.00000  Uiso   1.00
C487   C     0.93211   0.83332   0.17878   0.00000  Uiso   1.00
C488   C     0.67927   0.83346   0.14787   0.00000  Uiso   1.00
C489   C     0.98739   0.83321   0.18547   0.00000  Uiso   1.00
C490   C     0.81344   0.68863   0.12625   0.00000  Uiso   1.00
C491   C     0.85322   0.97804   0.20709   0.00000  Uiso   1.00
C492   C     0.81007   0.97929   0.12544   0.00000  Uiso   1.00
Cu493  Cu    0.83333   0.83334   0.21355   0.00000  Uiso   1.00
Cu494  Cu    0.83333   0.83333   0.11978   0.00000  Uiso   1.00
H495   H     0.99259   0.83377   0.11182   0.00000  Uiso   1.00
H496   H     0.79743   0.94203   0.29989   0.00000  Uiso   1.00
H497   H     0.71715   0.90161   0.30304   0.00000  Uiso   1.00
H498   H     0.67888   0.89791   0.04444   0.00000  Uiso   1.00
H499   H     0.72085   0.93411   0.11611   0.00000  Uiso   1.00
H500   H     0.94582   0.73256   0.21722   0.00000  Uiso   1.00
H501   H     0.98779   0.76876   0.28889   0.00000  Uiso   1.00
H502   H     0.94951   0.76506   0.03029   0.00000  Uiso   1.00
H503   H     0.86923   0.72464   0.03344   0.00000  Uiso   1.00
H504   H     0.82651   0.68857   0.29528   0.00000  Uiso   1.00
H505   H     0.67408   0.83290   0.22152   0.00000  Uiso   1.00
H506   H     0.79683   0.70570   0.09526   0.00000  Uiso   1.00
H507   H     0.86984   0.96096   0.23807   0.00000  Uiso   1.00
H508   H     0.77123   0.79055   0.03551   0.00000  Uiso   1.00
H509   H     0.89543   0.87611   0.29783   0.00000  Uiso   1.00
H510   H     0.77126   0.79055   0.28179   0.00000  Uiso   1.00
H511   H     0.89540   0.87611   0.05154   0.00000  Uiso   1.00
H512   H     0.84016   0.97810   0.03805   0.00000  Uiso   1.00
N513   N     0.83335   0.83334   0.28403   0.00000  Uiso   1.00
N514   N     0.83332   0.83332   0.04931   0.00000  Uiso   1.00
O515   O     0.83333   0.77322   0.20625   0.00000  Uiso   1.00
O516   O     0.83334   0.89345   0.12709   0.00000  Uiso   1.00
O517   O     0.83333   0.77321   0.12706   0.00000  Uiso   1.00
O518   O     0.83334   0.89346   0.20628   0.00000  Uiso   1.00
O519   O     0.75828   0.83334   0.19712   0.00000  Uiso   1.00
O520   O     0.90839   0.83333   0.13621   0.00000  Uiso   1.00
O521   O     0.75828   0.83333   0.11793   0.00000  Uiso   1.00
O522   O     0.90839   0.83334   0.21540   0.00000  Uiso   1.00
C523   C     0.16803   0.08742   0.50018   0.00000  Uiso   1.00
C524   C     0.18993   0.02071   0.54123   0.00000  Uiso   1.00
C525   C     0.16412   0.29055   0.49957   0.00000  Uiso   1.00
C526   C     0.16921   0.04278   0.50043   0.00000  Uiso   1.00
C527   C     0.13212   0.14297   0.35369   0.00000  Uiso   1.00
C528   C     0.20121   0.19036   0.64631   0.00000  Uiso   1.00
C529   C     0.13213   0.14298   0.63739   0.00000  Uiso   1.00
C530   C     0.20120   0.19036   0.36261   0.00000  Uiso   1.00
C531   C     0.11674   0.29227   0.41545   0.00000  Uiso   1.00
C532   C     0.13794   0.29449   0.37290   0.00000  Uiso   1.00
C533   C     0.11399   0.27393   0.66581   0.00000  Uiso   1.00
C534   C     0.16530   0.24591   0.49982   0.00000  Uiso   1.00
C535   C     0.06875   0.25109   0.33427   0.00000  Uiso   1.00
C536   C     0.04720   0.24899   0.37640   0.00000  Uiso   1.00
C537   C     0.07098   0.26957   0.41688   0.00000  Uiso   1.00
C538   C     0.21659   0.04107   0.58455   0.00000  Uiso   1.00
C539   C     0.26235   0.06376   0.58312   0.00000  Uiso   1.00
C540   C     0.28613   0.08434   0.62359   0.00000  Uiso   1.00
C541   C     0.26458   0.08224   0.66573   0.00000  Uiso   1.00
C542   C     0.21934   0.05941   0.33419   0.00000  Uiso   1.00
C543   C     0.19540   0.03884   0.62710   0.00000  Uiso   1.00
C544   C     0.06789   0.16668   0.48789   0.00000  Uiso   1.00
C545   C     0.26544   0.16665   0.51211   0.00000  Uiso   1.00
C546   C     0.01261   0.16679   0.48120   0.00000  Uiso   1.00
C547   C     0.32073   0.16654   0.51880   0.00000  Uiso   1.00
C548   C     0.14678   0.02196   0.45958   0.00000  Uiso   1.00
C549   C     0.18656   0.31137   0.54042   0.00000  Uiso   1.00
C550   C     0.14340   0.31262   0.45877   0.00000  Uiso   1.00
Cu551  Cu    0.16667   0.16667   0.54689   0.00000  Uiso   1.00
Cu552  Cu    0.16667   0.16666   0.45311   0.00000  Uiso   1.00
H553   H     0.32592   0.16710   0.44515   0.00000  Uiso   1.00
H554   H     0.13077   0.27537   0.63322   0.00000  Uiso   1.00
H555   H     0.05049   0.23495   0.63637   0.00000  Uiso   1.00
H556   H     0.01222   0.23124   0.37777   0.00000  Uiso   1.00
H557   H     0.05418   0.26744   0.44944   0.00000  Uiso   1.00
H558   H     0.27915   0.06589   0.55056   0.00000  Uiso   1.00
H559   H     0.32112   0.10209   0.62222   0.00000  Uiso   1.00
H560   H     0.28285   0.09839   0.36362   0.00000  Uiso   1.00
H561   H     0.20257   0.05797   0.36678   0.00000  Uiso   1.00
H562   H     0.15984   0.02190   0.62862   0.00000  Uiso   1.00
H563   H     0.00741   0.16623   0.55485   0.00000  Uiso   1.00
H564   H     0.13016   0.03903   0.42859   0.00000  Uiso   1.00
H565   H     0.20317   0.29430   0.57141   0.00000  Uiso   1.00
H566   H     0.10457   0.12389   0.36884   0.00000  Uiso   1.00
H567   H     0.22877   0.20944   0.63116   0.00000  Uiso   1.00
H568   H     0.10460   0.12389   0.61513   0.00000  Uiso   1.00
H569   H     0.22874   0.20944   0.38487   0.00000  Uiso   1.00
H570   H     0.17349   0.31144   0.37138   0.00000  Uiso   1.00
N571   N     0.16668   0.16668   0.61736   0.00000  Uiso   1.00
N572   N     0.16665   0.16666   0.38264   0.00000  Uiso   1.00
O573   O     0.16666   0.10655   0.53958   0.00000  Uiso   1.00
O574   O     0.16667   0.22678   0.46042   0.00000  Uiso   1.00
O575   O     0.16666   0.10654   0.46039   0.00000  Uiso   1.00
O576   O     0.16667   0.22679   0.53961   0.00000  Uiso   1.00
O577   O     0.09161   0.16667   0.53046   0.00000  Uiso   1.00
O578   O     0.24172   0.16666   0.46954   0.00000  Uiso   1.00
O579   O     0.09161   0.16666   0.45127   0.00000  Uiso   1.00
O580   O     0.24172   0.16667   0.54873   0.00000  Uiso   1.00
C581   C     0.50136   0.08742   0.50018   0.00000  Uiso   1.00
C582   C     0.52327   0.02071   0.54123   0.00000  Uiso   1.00
C583   C     0.49745   0.29055   0.49957   0.00000  Uiso   1.00
C584   C     0.50255   0.04278   0.50043   0.00000  Uiso   1.00
C585   C     0.46545   0.14297   0.35369   0.00000  Uiso   1.00
C586   C     0.53455   0.19036   0.64631   0.00000  Uiso   1.00
C587   C     0.46547   0.14298   0.63739   0.00000  Uiso   1.00
C588   C     0.53453   0.19036   0.36261   0.00000  Uiso   1.00
C589   C     0.45007   0.29227   0.41545   0.00000  Uiso   1.00
C590   C     0.47127   0.29449   0.37290   0.00000  Uiso   1.00
C591   C     0.44733   0.27393   0.66581   0.00000  Uiso   1.00
C592   C     0.49864   0.24591   0.49982   0.00000  Uiso   1.00
C593   C     0.40209   0.25109   0.33427   0.00000  Uiso   1.00
C594   C     0.38054   0.24899   0.37640   0.00000  Uiso   1.00
C595   C     0.40431   0.26957   0.41688   0.00000  Uiso   1.00
C596   C     0.54993   0.04107   0.58455   0.00000  Uiso   1.00
C597   C     0.59569   0.06376   0.58312   0.00000  Uiso   1.00
C598   C     0.61947   0.08434   0.62359   0.00000  Uiso   1.00
C599   C     0.59791   0.08224   0.66573   0.00000  Uiso   1.00
C600   C     0.55268   0.05941   0.33419   0.00000  Uiso   1.00
C601   C     0.52873   0.03884   0.62710   0.00000  Uiso   1.00
C602   C     0.40122   0.16668   0.48789   0.00000  Uiso   1.00
C603   C     0.59877   0.16665   0.51211   0.00000  Uiso   1.00
C604   C     0.34594   0.16679   0.48120   0.00000  Uiso   1.00
C605   C     0.65406   0.16654   0.51880   0.00000  Uiso   1.00
C606   C     0.48011   0.02196   0.45958   0.00000  Uiso   1.00
C607   C     0.51989   0.31137   0.54042   0.00000  Uiso   1.00
C608   C     0.47673   0.31262   0.45877   0.00000  Uiso   1.00
Cu609  Cu    0.50000   0.16667   0.54689   0.00000  Uiso   1.00
Cu610  Cu    0.50000   0.16666   0.45311   0.00000  Uiso   1.00
H611   H     0.65926   0.16710   0.44515   0.00000  Uiso   1.00
H612   H     0.46410   0.27537   0.63322   0.00000  Uiso   1.00
H613   H     0.38382   0.23495   0.63637   0.00000  Uiso   1.00
H614   H     0.34555   0.23124   0.37777   0.00000  Uiso   1.00
H615   H     0.38751   0.26744   0.44944   0.00000  Uiso   1.00
H616   H     0.61249   0.06589   0.55056   0.00000  Uiso   1.00
H617   H     0.65445   0.10209   0.62222   0.00000  Uiso   1.00
H618   H     0.61618   0.09839   0.36362   0.00000  Uiso   1.00
H619   H     0.53590   0.05797   0.36678   0.00000  Uiso   1.00
H620   H     0.49318   0.02190   0.62862   0.00000  Uiso   1.00
H621   H     0.34074   0.16623   0.55485   0.00000  Uiso   1.00
H622   H     0.46349   0.03903   0.42859   0.00000  Uiso   1.00
H623   H     0.53651   0.29430   0.57141   0.00000  Uiso   1.00
H624   H     0.43790   0.12389   0.36884   0.00000  Uiso   1.00
H625   H     0.56210   0.20944   0.63116   0.00000  Uiso   1.00
H626   H     0.43793   0.12389   0.61513   0.00000  Uiso   1.00
H627   H     0.56207   0.20944   0.38487   0.00000  Uiso   1.00
H628   H     0.50682   0.31144   0.37138   0.00000  Uiso   1.00
N629   N     0.50001   0.16668   0.61736   0.00000  Uiso   1.00
N630   N     0.49999   0.16666   0.38264   0.00000  Uiso   1.00
O631   O     0.50000   0.10655   0.53958   0.00000  Uiso   1.00
O632   O     0.50000   0.22678   0.46042   0.00000  Uiso   1.00
O633   O     0.50000   0.10654   0.46039   0.00000  Uiso   1.00
O634   O     0.50000   0.22679   0.53961   0.00000  Uiso   1.00
O635   O     0.42495   0.16667   0.53046   0.00000  Uiso   1.00
O636   O     0.57505   0.16666   0.46954   0.00000  Uiso   1.00
O637   O     0.42494   0.16666   0.45127   0.00000  Uiso   1.00
O638   O     0.57506   0.16667   0.54873   0.00000  Uiso   1.00
C639   C     0.83470   0.08742   0.50018   0.00000  Uiso   1.00
C640   C     0.85660   0.02071   0.54123   0.00000  Uiso   1.00
C641   C     0.83079   0.29055   0.49957   0.00000  Uiso   1.00
C642   C     0.83588   0.04278   0.50043   0.00000  Uiso   1.00
C643   C     0.79879   0.14297   0.35369   0.00000  Uiso   1.00
C644   C     0.86788   0.19036   0.64631   0.00000  Uiso   1.00
C645   C     0.79880   0.14298   0.63739   0.00000  Uiso   1.00
C646   C     0.86787   0.19036   0.36261   0.00000  Uiso   1.00
C647   C     0.78341   0.29227   0.41545   0.00000  Uiso   1.00
C648   C     0.80460   0.29449   0.37290   0.00000  Uiso   1.00
C649   C     0.78066   0.27393   0.66581   0.00000  Uiso   1.00
C650   C     0.83197   0.24591   0.49982   0.00000  Uiso   1.00
C651   C     0.73542   0.25109   0.33427   0.00000  Uiso   1.00
C652   C     0.71387   0.24899   0.37640   0.00000  Uiso   1.00
C653   C     0.73765   0.26957   0.41688   0.00000  Uiso   1.00
C654   C     0.88326   0.04107   0.58455   0.00000  Uiso   1.00
C655   C     0.92902   0.06376   0.58312   0.00000  Uiso   1.00
C656   C     0.95280   0.08434   0.62359   0.00000  Uiso   1.00
C657   C     0.93125   0.08224   0.66573   0.00000  Uiso   1.00
C658   C     0.88601   0.05941   0.33419   0.00000  Uiso   1.00
C659   C     0.86207   0.03884   0.62710   0.00000  Uiso   1.00
C660   C     0.73456   0.16668   0.48789   0.00000  Uiso   1.00
C661   C     0.93211   0.16665   0.51211   0.00000  Uiso   1.00
C662   C     0.67927   0.16679   0.48120   0.00000  Uiso   1.00
C663   C     0.98739   0.16654   0.51880   0.00000  Uiso   1.00
C664   C     0.81344   0.02196   0.45958   0.00000  Uiso   1.00
C665   C     0.85322   0.31137   0.54042   0.00000  Uiso   1.00
C666   C     0.81007   0.31262   0.45877   0.00000  Uiso   1.00
Cu667  Cu    0.83333   0.16667   0.54689   0.00000  Uiso   1.00
Cu668  Cu    0.83333   0.16666   0.45311   0.00000  Uiso   1.00
H669   H     0.99259   0.16710   0.44515   0.00000  Uiso   1.00
H670   H     0.79743   0.27537   0.63322   0.00000  Uiso   1.00
H671   H     0.71715   0.23495   0.63637   0.00000  Uiso   1.00
H672   H     0.67888   0.23124   0.37777   0.00000  Uiso   1.00
H673   H     0.72085   0.26744   0.44944   0.00000  Uiso   1.00
H674   H     0.94582   0.06589   0.55056   0.00000  Uiso   1.00
H675   H     0.98779   0.10209   0.62222   0.00000  Uiso   1.00
H676   H     0.94951   0.09839   0.36362   0.00000  Uiso   1.00
H677   H     0.86923   0.05797   0.36678   0.00000  Uiso   1.00
H678   H     0.82651   0.02190   0.62862   0.00000  Uiso   1.00
H679   H     0.67408   0.16623   0.55485   0.00000  Uiso   1.00
H680   H     0.79683   0.03903   0.42859   0.00000  Uiso   1.00
H681   H     0.86984   0.29430   0.57141   0.00000  Uiso   1.00
H682   H     0.77123   0.12389   0.36884   0.00000  Uiso   1.00
H683   H     0.89543   0.20944   0.63116   0.00000  Uiso   1.00
H684   H     0.77126   0.12389   0.61513   0.00000  Uiso   1.00
H685   H     0.89540   0.20944   0.38487   0.00000  Uiso   1.00
H686   H     0.84016   0.31144   0.37138   0.00000  Uiso   1.00
N687   N     0.83335   0.16668   0.61736   0.00000  Uiso   1.00
N688   N     0.83332   0.16666   0.38264   0.00000  Uiso   1.00
O689   O     0.83333   0.10655   0.53958   0.00000  Uiso   1.00
O690   O     0.83334   0.22678   0.46042   0.00000  Uiso   1.00
O691   O     0.83333   0.10654   0.46039   0.00000  Uiso   1.00
O692   O     0.83334   0.22679   0.53961   0.00000  Uiso   1.00
O693   O     0.75828   0.16667   0.53046   0.00000  Uiso   1.00
O694   O     0.90839   0.16666   0.46954   0.00000  Uiso   1.00
O695   O     0.75828   0.16666   0.45127   0.00000  Uiso   1.00
O696   O     0.90839   0.16667   0.54873   0.00000  Uiso   1.00
C697   C     0.16803   0.42075   0.50018   0.00000  Uiso   1.00
C698   C     0.18993   0.35404   0.54123   0.00000  Uiso   1.00
C699   C     0.16412   0.62388   0.49957   0.00000  Uiso   1.00
C700   C     0.16921   0.37612   0.50043   0.00000  Uiso   1.00
C701   C     0.13212   0.47630   0.35369   0.00000  Uiso   1.00
C702   C     0.20121   0.52370   0.64631   0.00000  Uiso   1.00
C703   C     0.13213   0.47631   0.63739   0.00000  Uiso   1.00
C704   C     0.20120   0.52369   0.36261   0.00000  Uiso   1.00
C705   C     0.11674   0.62560   0.41545   0.00000  Uiso   1.00
C706   C     0.13794   0.62783   0.37290   0.00000  Uiso   1.00
C707   C     0.11399   0.60726   0.66581   0.00000  Uiso   1.00
C708   C     0.16530   0.57924   0.49982   0.00000  Uiso   1.00
C709   C     0.06875   0.58443   0.33427   0.00000  Uiso   1.00
C710   C     0.04720   0.58232   0.37640   0.00000  Uiso   1.00
C711   C     0.07098   0.60290   0.41688   0.00000  Uiso   1.00
C712   C     0.21659   0.37440   0.58455   0.00000  Uiso   1.00
C713   C     0.26235   0.39709   0.58312   0.00000  Uiso   1.00
C714   C     0.28613   0.41768   0.62359   0.00000  Uiso   1.00
C715   C     0.26458   0.41558   0.66573   0.00000  Uiso   1.00
C716   C     0.21934   0.39274   0.33419   0.00000  Uiso   1.00
C717   C     0.19540   0.37217   0.62710   0.00000  Uiso   1.00
C718   C     0.06789   0.50002   0.48789   0.00000  Uiso   1.00
C719   C     0.26544   0.49998   0.51211   0.00000  Uiso   1.00
C720   C     0.01261   0.50013   0.48120   0.00000  Uiso   1.00
C721   C     0.32073   0.49987   0.51880   0.00000  Uiso   1.00
C722   C     0.14678   0.35530   0.45958   0.00000  Uiso   1.00
C723   C     0.18656   0.64470   0.54042   0.00000  Uiso   1.00
C724   C     0.14340   0.64596   0.45877   0.00000  Uiso   1.00
Cu725  Cu    0.16667   0.50001   0.54689   0.00000  Uiso   1.00
Cu726  Cu    0.16667   0.49999   0.45311   0.00000  Uiso   1.00
H727   H     0.32592   0.50044   0.44515   0.00000  Uiso   1.00
H728   H     0.13077   0.60870   0.63322   0.00000  Uiso   1.00
H729   H     0.05049   0.56828   0.63637   0.00000  Uiso   1.00
H730   H     0.01222   0.56457   0.37777   0.00000  Uiso   1.00
H731   H     0.05418   0.60077   0.44944   0.00000  Uiso   1.00
H732   H     0.27915   0.39922   0.55056   0.00000  Uiso   1.00
H733   H     0.32112   0.43543   0.62222   0.00000  Uiso   1.00
H734   H     0.28285   0.43172   0.36362   0.00000  Uiso   1.00
H735   H     0.20257   0.39130   0.36678   0.00000  Uiso   1.00
H736   H     0.15984   0.35523   0.62862   0.00000  Uiso   1.00
H737   H     0.00741   0.49956   0.55485   0.00000  Uiso   1.00
H738   H     0.13016   0.37237   0.42859   0.00000  Uiso   1.00
H739   H     0.20317   0.62763   0.57141   0.00000  Uiso   1.00
H740   H     0.10457   0.45722   0.36884   0.00000  Uiso   1.00
H741   H     0.22877   0.54278   0.63116   0.00000  Uiso   1.00
H742   H     0.10460   0.45722   0.61513   0.00000  Uiso   1.00
H743   H     0.22874   0.54278   0.38487   0.00000  Uiso   1.00
H744   H     0.17349   0.64477   0.37138   0.00000  Uiso   1.00
N745   N     0.16668   0.50001   0.61736   0.00000  Uiso   1.00
N746   N     0.16665   0.49999   0.38264   0.00000  Uiso   1.00
O747   O     0.16666   0.43989   0.53958   0.00000  Uiso   1.00
O748   O     0.16667   0.56011   0.46042   0.00000  Uiso   1.00
O749   O     0.16666   0.43988   0.46039   0.00000  Uiso   1.00
O750   O     0.16667   0.56012   0.53961   0.00000  Uiso   1.00
O751   O     0.09161   0.50000   0.53046   0.00000  Uiso   1.00
O752   O     0.24172   0.50000   0.46954   0.00000  Uiso   1.00
O753   O     0.09161   0.49999   0.45127   0.00000  Uiso   1.00
O754   O     0.24172   0.50001   0.54873   0.00000  Uiso   1.00
C755   C     0.50136   0.42075   0.50018   0.00000  Uiso   1.00
C756   C     0.52327   0.35404   0.54123   0.00000  Uiso   1.00
C757   C     0.49745   0.62388   0.49957   0.00000  Uiso   1.00
C758   C     0.50255   0.37612   0.50043   0.00000  Uiso   1.00
C759   C     0.46545   0.47630   0.35369   0.00000  Uiso   1.00
C760   C     0.53455   0.52370   0.64631   0.00000  Uiso   1.00
C761   C     0.46547   0.47631   0.63739   0.00000  Uiso   1.00
C762   C     0.53453   0.52369   0.36261   0.00000  Uiso   1.00
C763   C     0.45007   0.62560   0.41545   0.00000  Uiso   1.00
C764   C     0.47127   0.62783   0.37290   0.00000  Uiso   1.00
C765   C     0.44733   0.60726   0.66581   0.00000  Uiso   1.00
C766   C     0.49864   0.57924   0.49982   0.00000  Uiso   1.00
C767   C     0.40209   0.58443   0.33427   0.00000  Uiso   1.00
C768   C     0.38054   0.58232   0.37640   0.00000  Uiso   1.00
C769   C     0.40431   0.60290   0.41688   0.00000  Uiso   1.00
C770   C     0.54993   0.37440   0.58455   0.00000  Uiso   1.00
C771   C     0.59569   0.39709   0.58312   0.00000  Uiso   1.00
C772   C     0.61947   0.41768   0.62359   0.00000  Uiso   1.00
C773   C     0.59791   0.41558   0.66573   0.00000  Uiso   1.00
C774   C     0.55268   0.39274   0.33419   0.00000  Uiso   1.00
C775   C     0.52873   0.37217   0.62710   0.00000  Uiso   1.00
C776   C     0.40122   0.50002   0.48789   0.00000  Uiso   1.00
C777   C     0.59877   0.49998   0.51211   0.00000  Uiso   1.00
C778   C     0.34594   0.50013   0.48120   0.00000  Uiso   1.00
C779   C     0.65406   0.49987   0.51880   0.00000  Uiso   1.00
C780   C     0.48011   0.35530   0.45958   0.00000  Uiso   1.00
C781   C     0.51989   0.64470   0.54042   0.00000  Uiso   1.00
C782   C     0.47673   0.64596   0.45877   0.00000  Uiso   1.00
Cu783  Cu    0.50000   0.50001   0.54689   0.00000  Uiso   1.00
Cu784  Cu    0.50000   0.49999   0.45311   0.00000  Uiso   1.00
H785   H     0.65926   0.50044   0.44515   0.00000  Uiso   1.00
H786   H     0.46410   0.60870   0.63322   0.00000  Uiso   1.00
H787   H     0.38382   0.56828   0.63637   0.00000  Uiso   1.00
H788   H     0.34555   0.56457   0.37777   0.00000  Uiso   1.00
H789   H     0.38751   0.60077   0.44944   0.00000  Uiso   1.00
H790   H     0.61249   0.39922   0.55056   0.00000  Uiso   1.00
H791   H     0.65445   0.43543   0.62222   0.00000  Uiso   1.00
H792   H     0.61618   0.43172   0.36362   0.00000  Uiso   1.00
H793   H     0.53590   0.39130   0.36678   0.00000  Uiso   1.00
H794   H     0.49318   0.35523   0.62862   0.00000  Uiso   1.00
H795   H     0.34074   0.49956   0.55485   0.00000  Uiso   1.00
H796   H     0.46349   0.37237   0.42859   0.00000  Uiso   1.00
H797   H     0.53651   0.62763   0.57141   0.00000  Uiso   1.00
H798   H     0.43790   0.45722   0.36884   0.00000  Uiso   1.00
H799   H     0.56210   0.54278   0.63116   0.00000  Uiso   1.00
H800   H     0.43793   0.45722   0.61513   0.00000  Uiso   1.00
H801   H     0.56207   0.54278   0.38487   0.00000  Uiso   1.00
H802   H     0.50682   0.64477   0.37138   0.00000  Uiso   1.00
N803   N     0.50001   0.50001   0.61736   0.00000  Uiso   1.00
N804   N     0.49999   0.49999   0.38264   0.00000  Uiso   1.00
O805   O     0.50000   0.43989   0.53958   0.00000  Uiso   1.00
O806   O     0.50000   0.56011   0.46042   0.00000  Uiso   1.00
O807   O     0.50000   0.43988   0.46039   0.00000  Uiso   1.00
O808   O     0.50000   0.56012   0.53961   0.00000  Uiso   1.00
O809   O     0.42495   0.50000   0.53046   0.00000  Uiso   1.00
O810   O     0.57505   0.50000   0.46954   0.00000  Uiso   1.00
O811   O     0.42494   0.49999   0.45127   0.00000  Uiso   1.00
O812   O     0.57506   0.50001   0.54873   0.00000  Uiso   1.00
C813   C     0.83470   0.42075   0.50018   0.00000  Uiso   1.00
C814   C     0.85660   0.35404   0.54123   0.00000  Uiso   1.00
C815   C     0.83079   0.62388   0.49957   0.00000  Uiso   1.00
C816   C     0.83588   0.37612   0.50043   0.00000  Uiso   1.00
C817   C     0.79879   0.47630   0.35369   0.00000  Uiso   1.00
C818   C     0.86788   0.52370   0.64631   0.00000  Uiso   1.00
C819   C     0.79880   0.47631   0.63739   0.00000  Uiso   1.00
C820   C     0.86787   0.52369   0.36261   0.00000  Uiso   1.00
C821   C     0.78341   0.62560   0.41545   0.00000  Uiso   1.00
C822   C     0.80460   0.62783   0.37290   0.00000  Uiso   1.00
C823   C     0.78066   0.60726   0.66581   0.00000  Uiso   1.00
C824   C     0.83197   0.57924   0.49982   0.00000  Uiso   1.00
C825   C     0.73542   0.58443   0.33427   0.00000  Uiso   1.00
C826   C     0.71387   0.58232   0.37640   0.00000  Uiso   1.00
C827   C     0.73765   0.60290   0.41688   0.00000  Uiso   1.00
C828   C     0.88326   0.37440   0.58455   0.00000  Uiso   1.00
C829   C     0.92902   0.39709   0.58312   0.00000  Uiso   1.00
C830   C     0.95280   0.41768   0.62359   0.00000  Uiso   1.00
C831   C     0.93125   0.41558   0.66573   0.00000  Uiso   1.00
C832   C     0.88601   0.39274   0.33419   0.00000  Uiso   1.00
C833   C     0.86207   0.37217   0.62710   0.00000  Uiso   1.00
C834   C     0.73456   0.50002   0.48789   0.00000  Uiso   1.00
C835   C     0.93211   0.49998   0.51211   0.00000  Uiso   1.00
C836   C     0.67927   0.50013   0.48120   0.00000  Uiso   1.00
C837   C     0.98739   0.49987   0.51880   0.00000  Uiso   1.00
C838   C     0.81344   0.35530   0.45958   0.00000  Uiso   1.00
C839   C     0.85322   0.64470   0.54042   0.00000  Uiso   1.00
C840   C     0.81007   0.64596   0.45877   0.00000  Uiso   1.00
Cu841  Cu    0.83333   0.50001   0.54689   0.00000  Uiso   1.00
Cu842  Cu    0.83333   0.49999   0.45311   0.00000  Uiso   1.00
H843   H     0.99259   0.50044   0.44515   0.00000  Uiso   1.00
H844   H     0.79743   0.60870   0.63322   0.00000  Uiso   1.00
H845   H     0.71715   0.56828   0.63637   0.00000  Uiso   1.00
H846   H     0.67888   0.56457   0.37777   0.00000  Uiso   1.00
H847   H     0.72085   0.60077   0.44944   0.00000  Uiso   1.00
H848   H     0.94582   0.39922   0.55056   0.00000  Uiso   1.00
H849   H     0.98779   0.43543   0.62222   0.00000  Uiso   1.00
H850   H     0.94951   0.43172   0.36362   0.00000  Uiso   1.00
H851   H     0.86923   0.39130   0.36678   0.00000  Uiso   1.00
H852   H     0.82651   0.35523   0.62862   0.00000  Uiso   1.00
H853   H     0.67408   0.49956   0.55485   0.00000  Uiso   1.00
H854   H     0.79683   0.37237   0.42859   0.00000  Uiso   1.00
H855   H     0.86984   0.62763   0.57141   0.00000  Uiso   1.00
H856   H     0.77123   0.45722   0.36884   0.00000  Uiso   1.00
H857   H     0.89543   0.54278   0.63116   0.00000  Uiso   1.00
H858   H     0.77126   0.45722   0.61513   0.00000  Uiso   1.00
H859   H     0.89540   0.54278   0.38487   0.00000  Uiso   1.00
H860   H     0.84016   0.64477   0.37138   0.00000  Uiso   1.00
N861   N     0.83335   0.50001   0.61736   0.00000  Uiso   1.00
N862   N     0.83332   0.49999   0.38264   0.00000  Uiso   1.00
O863   O     0.83333   0.43989   0.53958   0.00000  Uiso   1.00
O864   O     0.83334   0.56011   0.46042   0.00000  Uiso   1.00
O865   O     0.83333   0.43988   0.46039   0.00000  Uiso   1.00
O866   O     0.83334   0.56012   0.53961   0.00000  Uiso   1.00
O867   O     0.75828   0.50000   0.53046   0.00000  Uiso   1.00
O868   O     0.90839   0.50000   0.46954   0.00000  Uiso   1.00
O869   O     0.75828   0.49999   0.45127   0.00000  Uiso   1.00
O870   O     0.90839   0.50001   0.54873   0.00000  Uiso   1.00
C871   C     0.16803   0.75409   0.50018   0.00000  Uiso   1.00
C872   C     0.18993   0.68738   0.54123   0.00000  Uiso   1.00
C873   C     0.16412   0.95722   0.49957   0.00000  Uiso   1.00
C874   C     0.16921   0.70945   0.50043   0.00000  Uiso   1.00
C875   C     0.13212   0.80963   0.35369   0.00000  Uiso   1.00
C876   C     0.20121   0.85703   0.64631   0.00000  Uiso   1.00
C877   C     0.13213   0.80964   0.63739   0.00000  Uiso   1.00
C878   C     0.20120   0.85702   0.36261   0.00000  Uiso   1.00
C879   C     0.11674   0.95893   0.41545   0.00000  Uiso   1.00
C880   C     0.13794   0.96116   0.37290   0.00000  Uiso   1.00
C881   C     0.11399   0.94059   0.66581   0.00000  Uiso   1.00
C882   C     0.16530   0.91258   0.49982   0.00000  Uiso   1.00
C883   C     0.06875   0.91776   0.33427   0.00000  Uiso   1.00
C884   C     0.04720   0.91566   0.37640   0.00000  Uiso   1.00
C885   C     0.07098   0.93624   0.41688   0.00000  Uiso   1.00
C886   C     0.21659   0.70773   0.58455   0.00000  Uiso   1.00
C887   C     0.26235   0.73043   0.58312   0.00000  Uiso   1.00
C888   C     0.28613   0.75101   0.62359   0.00000  Uiso   1.00
C889   C     0.26458   0.74891   0.66573   0.00000  Uiso   1.00
C890   C     0.21934   0.72608   0.33419   0.00000  Uiso   1.00
C891   C     0.19540   0.70551   0.62710   0.00000  Uiso   1.00
C892   C     0.06789   0.83335   0.48789   0.00000  Uiso   1.00
C893   C     0.26544   0.83332   0.51211   0.00000  Uiso   1.00
C894   C     0.01261   0.83346   0.48120   0.00000  Uiso   1.00
C895   C     0.32073   0.83321   0.51880   0.00000  Uiso   1.00
C896   C     0.14678   0.68863   0.45958   0.00000  Uiso   1.00
C897   C     0.18656   0.97804   0.54042   0.00000  Uiso   1.00
C898   C     0.14340   0.97929   0.45877   0.00000  Uiso   1.00
Cu899  Cu    0.16667   0.83334   0.54689   0.00000  Uiso   1.00
Cu900  Cu    0.16667   0.83333   0.45311   0.00000  Uiso   1.00
H901   H     0.32592   0.83377   0.44515   0.00000  Uiso   1.00
H902   H     0.13077   0.94203   0.63322   0.00000  Uiso   1.00
H903   H     0.05049   0.90161   0.63637   0.00000  Uiso   1.00
H904   H     0.01222   0.89791   0.37777   0.00000  Uiso   1.00
H905   H     0.05418   0.93411   0.44944   0.00000  Uiso   1.00
H906   H     0.27915   0.73256   0.55056   0.00000  Uiso   1.00
H907   H     0.32112   0.76876   0.62222   0.00000  Uiso   1.00
H908   H     0.28285   0.76506   0.36362   0.00000  Uiso   1.00
H909   H     0.20257   0.72464   0.36678   0.00000  Uiso   1.00
H910   H     0.15984   0.68857   0.62862   0.00000  Uiso   1.00
H911   H     0.00741   0.83290   0.55485   0.00000  Uiso   1.00
H912   H     0.13016   0.70570   0.42859   0.00000  Uiso   1.00
H913   H     0.20317   0.96096   0.57141   0.00000  Uiso   1.00
H914   H     0.10457   0.79055   0.36884   0.00000  Uiso   1.00
H915   H     0.22877   0.87611   0.63116   0.00000  Uiso   1.00
H916   H     0.10460   0.79055   0.61513   0.00000  Uiso   1.00
H917   H     0.22874   0.87611   0.38487   0.00000  Uiso   1.00
H918   H     0.17349   0.97810   0.37138   0.00000  Uiso   1.00
N919   N     0.16668   0.83334   0.61736   0.00000  Uiso   1.00
N920   N     0.16665   0.83332   0.38264   0.00000  Uiso   1.00
O921   O     0.16666   0.77322   0.53958   0.00000  Uiso   1.00
O922   O     0.16667   0.89345   0.46042   0.00000  Uiso   1.00
O923   O     0.16666   0.77321   0.46039   0.00000  Uiso   1.00
O924   O     0.16667   0.89346   0.53961   0.00000  Uiso   1.00
O925   O     0.09161   0.83334   0.53046   0.00000  Uiso   1.00
O926   O     0.24172   0.83333   0.46954   0.00000  Uiso   1.00
O927   O     0.09161   0.83333   0.45127   0.00000  Uiso   1.00
O928   O     0.24172   0.83334   0.54873   0.00000  Uiso   1.00
C929   C     0.50136   0.75409   0.50018   0.00000  Uiso   1.00
C930   C     0.52327   0.68738   0.54123   0.00000  Uiso   1.00
C931   C     0.49745   0.95722   0.49957   0.00000  Uiso   1.00
C932   C     0.50255   0.70945   0.50043   0.00000  Uiso   1.00
C933   C     0.46545   0.80963   0.35369   0.00000  Uiso   1.00
C934   C     0.53455   0.85703   0.64631   0.00000  Uiso   1.00
C935   C     0.46547   0.80964   0.63739   0.00000  Uiso   1.00
C936   C     0.53453   0.85702   0.36261   0.00000  Uiso   1.00
C937   C     0.45007   0.95893   0.41545   0.00000  Uiso   1.00
C938   C     0.47127   0.96116   0.37290   0.00000  Uiso   1.00
C939   C     0.44733   0.94059   0.66581   0.00000  Uiso   1.00
C940   C     0.49864   0.91258   0.49982   0.00000  Uiso   1.00
C941   C     0.40209   0.91776   0.33427   0.00000  Uiso   1.00
C942   C     0.38054   0.91566   0.37640   0.00000  Uiso   1.00
C943   C     0.40431   0.93624   0.41688   0.00000  Uiso   1.00
C944   C     0.54993   0.70773   0.58455   0.00000  Uiso   1.00
C945   C     0.59569   0.73043   0.58312   0.00000  Uiso   1.00
C946   C     0.61947   0.75101   0.62359   0.00000  Uiso   1.00
C947   C     0.59791   0.74891   0.66573   0.00000  Uiso   1.00
C948   C     0.55268   0.72608   0.33419   0.00000  Uiso   1.00
C949   C     0.52873   0.70551   0.62710   0.00000  Uiso   1.00
C950   C     0.40122   0.83335   0.48789   0.00000  Uiso   1.00
C951   C     0.59877   0.83332   0.51211   0.00000  Uiso   1.00
C952   C     0.34594   0.83346   0.48120   0.00000  Uiso   1.00
C953   C     0.65406   0.83321   0.51880   0.00000  Uiso   1.00
C954   C     0.48011   0.68863   0.45958   0.00000  Uiso   1.00
C955   C     0.51989   0.97804   0.54042   0.00000  Uiso   1.00
C956   C     0.47673   0.97929   0.45877   0.00000  Uiso   1.00
Cu957  Cu    0.50000   0.83334   0.54689   0.00000  Uiso   1.00
Cu958  Cu    0.50000   0.83333   0.45311   0.00000  Uiso   1.00
H959   H     0.65926   0.83377   0.44515   0.00000  Uiso   1.00
H960   H     0.46410   0.94203   0.63322   0.00000  Uiso   1.00
H961   H     0.38382   0.90161   0.63637   0.00000  Uiso   1.00
H962   H     0.34555   0.89791   0.37777   0.00000  Uiso   1.00
H963   H     0.38751   0.93411   0.44944   0.00000  Uiso   1.00
H964   H     0.61249   0.73256   0.55056   0.00000  Uiso   1.00
H965   H     0.65445   0.76876   0.62222   0.00000  Uiso   1.00
H966   H     0.61618   0.76506   0.36362   0.00000  Uiso   1.00
H967   H     0.53590   0.72464   0.36678   0.00000  Uiso   1.00
H968   H     0.49318   0.68857   0.62862   0.00000  Uiso   1.00
H969   H     0.34074   0.83290   0.55485   0.00000  Uiso   1.00
H970   H     0.46349   0.70570   0.42859   0.00000  Uiso   1.00
H971   H     0.53651   0.96096   0.57141   0.00000  Uiso   1.00
H972   H     0.43790   0.79055   0.36884   0.00000  Uiso   1.00
H973   H     0.56210   0.87611   0.63116   0.00000  Uiso   1.00
H974   H     0.43793   0.79055   0.61513   0.00000  Uiso   1.00
H975   H     0.56207   0.87611   0.38487   0.00000  Uiso   1.00
H976   H     0.50682   0.97810   0.37138   0.00000  Uiso   1.00
N977   N     0.50001   0.83334   0.61736   0.00000  Uiso   1.00
N978   N     0.49999   0.83332   0.38264   0.00000  Uiso   1.00
O979   O     0.50000   0.77322   0.53958   0.00000  Uiso   1.00
O980   O     0.50000   0.89345   0.46042   0.00000  Uiso   1.00
O981   O     0.50000   0.77321   0.46039   0.00000  Uiso   1.00
O982   O     0.50000   0.89346   0.53961   0.00000  Uiso   1.00
O983   O     0.42495   0.83334   0.53046   0.00000  Uiso   1.00
O984   O     0.57505   0.83333   0.46954   0.00000  Uiso   1.00
O985   O     0.42494   0.83333   0.45127   0.00000  Uiso   1.00
O986   O     0.57506   0.83334   0.54873   0.00000  Uiso   1.00
C987   C     0.83470   0.75409   0.50018   0.00000  Uiso   1.00
C988   C     0.85660   0.68738   0.54123   0.00000  Uiso   1.00
C989   C     0.83079   0.95722   0.49957   0.00000  Uiso   1.00
C990   C     0.83588   0.70945   0.50043   0.00000  Uiso   1.00
C991   C     0.79879   0.80963   0.35369   0.00000  Uiso   1.00
C992   C     0.86788   0.85703   0.64631   0.00000  Uiso   1.00
C993   C     0.79880   0.80964   0.63739   0.00000  Uiso   1.00
C994   C     0.86787   0.85702   0.36261   0.00000  Uiso   1.00
C995   C     0.78341   0.95893   0.41545   0.00000  Uiso   1.00
C996   C     0.80460   0.96116   0.37290   0.00000  Uiso   1.00
C997   C     0.78066   0.94059   0.66581   0.00000  Uiso   1.00
C998   C     0.83197   0.91258   0.49982   0.00000  Uiso   1.00
C999   C     0.73542   0.91776   0.33427   0.00000  Uiso   1.00
C1000  C     0.71387   0.91566   0.37640   0.00000  Uiso   1.00
C1001  C     0.73765   0.93624   0.41688   0.00000  Uiso   1.00
C1002  C     0.88326   0.70773   0.58455   0.00000  Uiso   1.00
C1003  C     0.92902   0.73043   0.58312   0.00000  Uiso   1.00
C1004  C     0.95280   0.75101   0.62359   0.00000  Uiso   1.00
C1005  C     0.93125   0.74891   0.66573   0.00000  Uiso   1.00
C1006  C     0.88601   0.72608   0.33419   0.00000  Uiso   1.00
C1007  C     0.86207   0.70551   0.62710   0.00000  Uiso   1.00
C1008  C     0.73456   0.83335   0.48789   0.00000  Uiso   1.00
C1009  C     0.93211   0.83332   0.51211   0.00000  Uiso   1.00
C1010  C     0.67927   0.83346   0.48120   0.00000  Uiso   1.00
C1011  C     0.98739   0.83321   0.51880   0.00000  Uiso   1.00
C1012  C     0.81344   0.68863   0.45958   0.00000  Uiso   1.00
C1013  C     0.85322   0.97804   0.54042   0.00000  Uiso   1.00
C1014  C     0.81007   0.97929   0.45877   0.00000  Uiso   1.00
Cu1015 Cu    0.83333   0.83334   0.54689   0.00000  Uiso   1.00
Cu1016 Cu    0.83333   0.83333   0.45311   0.00000  Uiso   1.00
H1017  H     0.99259   0.83377   0.44515   0.00000  Uiso   1.00
H1018  H     0.79743   0.94203   0.63322   0.00000  Uiso   1.00
H1019  H     0.71715   0.90161   0.63637   0.00000  Uiso   1.00
H1020  H     0.67888   0.89791   0.37777   0.00000  Uiso   1.00
H1021  H     0.72085   0.93411   0.44944   0.00000  Uiso   1.00
H1022  H     0.94582   0.73256   0.55056   0.00000  Uiso   1.00
H1023  H     0.98779   0.76876   0.62222   0.00000  Uiso   1.00
H1024  H     0.94951   0.76506   0.36362   0.00000  Uiso   1.00
H1025  H     0.86923   0.72464   0.36678   0.00000  Uiso   1.00
H1026  H     0.82651   0.68857   0.62862   0.00000  Uiso   1.00
H1027  H     0.67408   0.83290   0.55485   0.00000  Uiso   1.00
H1028  H     0.79683   0.70570   0.42859   0.00000  Uiso   1.00
H1029  H     0.86984   0.96096   0.57141   0.00000  Uiso   1.00
H1030  H     0.77123   0.79055   0.36884   0.00000  Uiso   1.00
H1031  H     0.89543   0.87611   0.63116   0.00000  Uiso   1.00
H1032  H     0.77126   0.79055   0.61513   0.00000  Uiso   1.00
H1033  H     0.89540   0.87611   0.38487   0.00000  Uiso   1.00
H1034  H     0.84016   0.97810   0.37138   0.00000  Uiso   1.00
N1035  N     0.83335   0.83334   0.61736   0.00000  Uiso   1.00
N1036  N     0.83332   0.83332   0.38264   0.00000  Uiso   1.00
O1037  O     0.83333   0.77322   0.53958   0.00000  Uiso   1.00
O1038  O     0.83334   0.89345   0.46042   0.00000  Uiso   1.00
O1039  O     0.83333   0.77321   0.46039   0.00000  Uiso   1.00
O1040  O     0.83334   0.89346   0.53961   0.00000  Uiso   1.00
O1041  O     0.75828   0.83334   0.53046   0.00000  Uiso   1.00
O1042  O     0.90839   0.83333   0.46954   0.00000  Uiso   1.00
O1043  O     0.75828   0.83333   0.45127   0.00000  Uiso   1.00
O1044  O     0.90839   0.83334   0.54873   0.00000  Uiso   1.00
C1045  C     0.16803   0.08742   0.83352   0.00000  Uiso   1.00
C1046  C     0.18993   0.02071   0.87456   0.00000  Uiso   1.00
C1047  C     0.16412   0.29055   0.83290   0.00000  Uiso   1.00
C1048  C     0.16921   0.04278   0.83376   0.00000  Uiso   1.00
C1049  C     0.13212   0.14297   0.68702   0.00000  Uiso   1.00
C1050  C     0.20121   0.19036   0.97965   0.00000  Uiso   1.00
C1051  C     0.13213   0.14298   0.97073   0.00000  Uiso   1.00
C1052  C     0.20120   0.19036   0.69594   0.00000  Uiso   1.00
C1053  C     0.11674   0.29227   0.74878   0.00000  Uiso   1.00
C1054  C     0.13794   0.29449   0.70623   0.00000  Uiso   1.00
C1055  C     0.11399   0.27393   0.99914   0.00000  Uiso   1.00
C1056  C     0.16530   0.24591   0.83315   0.00000  Uiso   1.00
C1057  C     0.06875   0.25109   0.66760   0.00000  Uiso   1.00
C1058  C     0.04720   0.24899   0.70974   0.00000  Uiso   1.00
C1059  C     0.07098   0.26957   0.75022   0.00000  Uiso   1.00
C1060  C     0.21659   0.04107   0.91788   0.00000  Uiso   1.00
C1061  C     0.26235   0.06376   0.91645   0.00000  Uiso   1.00
C1062  C     0.28613   0.08434   0.95693   0.00000  Uiso   1.00
C1063  C     0.26458   0.08224   0.99906   0.00000  Uiso   1.00
C1064  C     0.21934   0.05941   0.66752   0.00000  Uiso   1.00
C1065  C     0.19540   0.03884   0.96043   0.00000  Uiso   1.00
C1066  C     0.06789   0.16668   0.82122   0.00000  Uiso   1.00
C1067  C     0.26544   0.16665   0.84545   0.00000  Uiso   1.00
C1068  C     0.01261   0.16679   0.81453   0.00000  Uiso   1.00
C1069  C     0.32073   0.16654   0.85213   0.00000  Uiso   1.00
C1070  C     0.14678   0.02196   0.79291   0.00000  Uiso   1.00
C1071  C     0.18656   0.31137   0.87375   0.00000  Uiso   1.00
C1072  C     0.14340   0.31262   0.79210   0.00000  Uiso   1.00
Cu1073 Cu    0.16667   0.16667   0.88022   0.00000  Uiso   1.00
Cu1074 Cu    0.16667   0.16666   0.78645   0.00000  Uiso   1.00
H1075  H     0.32592   0.16710   0.77848   0.00000  Uiso   1.00
H1076  H     0.13077   0.27537   0.96655   0.00000  Uiso   1.00
H1077  H     0.05049   0.23495   0.96971   0.00000  Uiso   1.00
H1078  H     0.01222   0.23124   0.71111   0.00000  Uiso   1.00
H1079  H     0.05418   0.26744   0.78277   0.00000  Uiso   1.00
H1080  H     0.27915   0.06589   0.88389   0.00000  Uiso   1.00
H1081  H     0.32112   0.10209   0.95556   0.00000  Uiso   1.00
H1082  H     0.28285   0.09839   0.69695   0.00000  Uiso   1.00
H1083  H     0.20257   0.05797   0.70011   0.00000  Uiso   1.00
H1084  H     0.15984   0.02190   0.96195   0.00000  Uiso   1.00
H1085  H     0.00741   0.16623   0.88818   0.00000  Uiso   1.00
H1086  H     0.13016   0.03903   0.76193   0.00000  Uiso   1.00
H1087  H     0.20317   0.29430   0.90474   0.00000  Uiso   1.00
H1088  H     0.10457   0.12389   0.70217   0.00000  Uiso   1.00
H1089  H     0.22877   0.20944   0.96449   0.00000  Uiso   1.00
H1090  H     0.10460   0.12389   0.94846   0.00000  Uiso   1.00
H1091  H     0.22874   0.20944   0.71821   0.00000  Uiso   1.00
H1092  H     0.17349   0.31144   0.70472   0.00000  Uiso   1.00
N1093  N     0.16668   0.16668   0.95069   0.00000  Uiso   1.00
N1094  N     0.16665   0.16666   0.71597   0.00000  Uiso   1.00
O1095  O     0.16666   0.10655   0.87291   0.00000  Uiso   1.00
O1096  O     0.16667   0.22678   0.79375   0.00000  Uiso   1.00
O1097  O     0.16666   0.10654   0.79372   0.00000  Uiso   1.00
O1098  O     0.16667   0.22679   0.87294   0.00000  Uiso   1.00
O1099  O     0.09161   0.16667   0.86379   0.00000  Uiso   1.00
O1100  O     0.24172   0.16666   0.80288   0.00000  Uiso   1.00
O1101  O     0.09161   0.16666   0.78460   0.00000  Uiso   1.00
O1102  O     0.24172   0.16667   0.88207   0.00000  Uiso   1.00
C1103  C     0.50136   0.08742   0.83352   0.00000  Uiso   1.00
C1104  C     0.52327   0.02071   0.87456   0.00000  Uiso   1.00
C1105  C     0.49745   0.29055   0.83290   0.00000  Uiso   1.00
C1106  C     0.50255   0.04278   0.83376   0.00000  Uiso   1.00
C1107  C     0.46545   0.14297   0.68702   0.00000  Uiso   1.00
C1108  C     0.53455   0.19036   0.97965   0.00000  Uiso   1.00
C1109  C     0.46547   0.14298   0.97073   0.00000  Uiso   1.00
C1110  C     0.53453   0.19036   0.69594   0.00000  Uiso   1.00
C1111  C     0.45007   0.29227   0.74878   0.00000  Uiso   1.00
C1112  C     0.47127   0.29449   0.70623   0.00000  Uiso   1.00
C1113  C     0.44733   0.27393   0.99914   0.00000  Uiso   1.00
C1114  C     0.49864   0.24591   0.83315   0.00000  Uiso   1.00
C1115  C     0.40209   0.25109   0.66760   0.00000  Uiso   1.00
C1116  C     0.38054   0.24899   0.70974   0.00000  Uiso   1.00
C1117  C     0.40431   0.26957   0.75022   0.00000  Uiso   1.00
C1118  C     0.54993   0.04107   0.91788   0.00000  Uiso   1.00
C1119  C     0.59569   0.06376   0.91645   0.00000  Uiso   1.00
C1120  C     0.61947   0.08434   0.95693   0.00000  Uiso   1.00
C1121  C     0.59791   0.08224   0.99906   0.00000  Uiso   1.00
C1122  C     0.55268   0.05941   0.66752   0.00000  Uiso   1.00
C1123  C     0.52873   0.03884   0.96043   0.00000  Uiso   1.00
C1124  C     0.40122   0.16668   0.82122   0.00000  Uiso   1.00
C1125  C     0.59877   0.16665   0.84545   0.00000  Uiso   1.00
C1126  C     0.34594   0.16679   0.81453   0.00000  Uiso   1.00
C1127  C     0.65406   0.16654   0.85213   0.00000  Uiso   1.00
C1128  C     0.48011   0.02196   0.79291   0.00000  Uiso   1.00
C1129  C     0.51989   0.31137   0.87375   0.00000  Uiso   1.00
C1130  C     0.47673   0.31262   0.79210   0.00000  Uiso   1.00
Cu1131 Cu    0.50000   0.16667   0.88022   0.00000  Uiso   1.00
Cu1132 Cu    0.50000   0.16666   0.78645   0.00000  Uiso   1.00
H1133  H     0.65926   0.16710   0.77848   0.00000  Uiso   1.00
H1134  H     0.46410   0.27537   0.96655   0.00000  Uiso   1.00
H1135  H     0.38382   0.23495   0.96971   0.00000  Uiso   1.00
H1136  H     0.34555   0.23124   0.71111   0.00000  Uiso   1.00
H1137  H     0.38751   0.26744   0.78277   0.00000  Uiso   1.00
H1138  H     0.61249   0.06589   0.88389   0.00000  Uiso   1.00
H1139  H     0.65445   0.10209   0.95556   0.00000  Uiso   1.00
H1140  H     0.61618   0.09839   0.69695   0.00000  Uiso   1.00
H1141  H     0.53590   0.05797   0.70011   0.00000  Uiso   1.00
H1142  H     0.49318   0.02190   0.96195   0.00000  Uiso   1.00
H1143  H     0.34074   0.16623   0.88818   0.00000  Uiso   1.00
H1144  H     0.46349   0.03903   0.76193   0.00000  Uiso   1.00
H1145  H     0.53651   0.29430   0.90474   0.00000  Uiso   1.00
H1146  H     0.43790   0.12389   0.70217   0.00000  Uiso   1.00
H1147  H     0.56210   0.20944   0.96449   0.00000  Uiso   1.00
H1148  H     0.43793   0.12389   0.94846   0.00000  Uiso   1.00
H1149  H     0.56207   0.20944   0.71821   0.00000  Uiso   1.00
H1150  H     0.50682   0.31144   0.70472   0.00000  Uiso   1.00
N1151  N     0.50001   0.16668   0.95069   0.00000  Uiso   1.00
N1152  N     0.49999   0.16666   0.71597   0.00000  Uiso   1.00
O1153  O     0.50000   0.10655   0.87291   0.00000  Uiso   1.00
O1154  O     0.50000   0.22678   0.79375   0.00000  Uiso   1.00
O1155  O     0.50000   0.10654   0.79372   0.00000  Uiso   1.00
O1156  O     0.50000   0.22679   0.87294   0.00000  Uiso   1.00
O1157  O     0.42495   0.16667   0.86379   0.00000  Uiso   1.00
O1158  O     0.57505   0.16666   0.80288   0.00000  Uiso   1.00
O1159  O     0.42494   0.16666   0.78460   0.00000  Uiso   1.00
O1160  O     0.57506   0.16667   0.88207   0.00000  Uiso   1.00
C1161  C     0.83470   0.08742   0.83352   0.00000  Uiso   1.00
C1162  C     0.85660   0.02071   0.87456   0.00000  Uiso   1.00
C1163  C     0.83079   0.29055   0.83290   0.00000  Uiso   1.00
C1164  C     0.83588   0.04278   0.83376   0.00000  Uiso   1.00
C1165  C     0.79879   0.14297   0.68702   0.00000  Uiso   1.00
C1166  C     0.86788   0.19036   0.97965   0.00000  Uiso   1.00
C1167  C     0.79880   0.14298   0.97073   0.00000  Uiso   1.00
C1168  C     0.86787   0.19036   0.69594   0.00000  Uiso   1.00
C1169  C     0.78341   0.29227   0.74878   0.00000  Uiso   1.00
C1170  C     0.80460   0.29449   0.70623   0.00000  Uiso   1.00
C1171  C     0.78066   0.27393   0.99914   0.00000  Uiso   1.00
C1172  C     0.83197   0.24591   0.83315   0.00000  Uiso   1.00
C1173  C     0.73542   0.25109   0.66760   0.00000  Uiso   1.00
C1174  C     0.71387   0.24899   0.70974   0.00000  Uiso   1.00
C1175  C     0.73765   0.26957   0.75022   0.00000  Uiso   1.00
C1176  C     0.88326   0.04107   0.91788   0.00000  Uiso   1.00
C1177  C     0.92902   0.06376   0.91645   0.00000  Uiso   1.00
C1178  C     0.95280   0.08434   0.95693   0.00000  Uiso   1.00
C1179  C     0.93125   0.08224   0.99906   0.00000  Uiso   1.00
C1180  C     0.88601   0.05941   0.66752   0.00000  Uiso   1.00
C1181  C     0.86207   0.03884   0.96043   0.00000  Uiso   1.00
C1182  C     0.73456   0.16668   0.82122   0.00000  Uiso   1.00
C1183  C     0.93211   0.16665   0.84545   0.00000  Uiso   1.00
C1184  C     0.67927   0.16679   0.81453   0.00000  Uiso   1.00
C1185  C     0.98739   0.16654   0.85213   0.00000  Uiso   1.00
C1186  C     0.81344   0.02196   0.79291   0.00000  Uiso   1.00
C1187  C     0.85322   0.31137   0.87375   0.00000  Uiso   1.00
C1188  C     0.81007   0.31262   0.79210   0.00000  Uiso   1.00
Cu1189 Cu    0.83333   0.16667   0.88022   0.00000  Uiso   1.00
Cu1190 Cu    0.83333   0.16666   0.78645   0.00000  Uiso   1.00
H1191  H     0.99259   0.16710   0.77848   0.00000  Uiso   1.00
H1192  H     0.79743   0.27537   0.96655   0.00000  Uiso   1.00
H1193  H     0.71715   0.23495   0.96971   0.00000  Uiso   1.00
H1194  H     0.67888   0.23124   0.71111   0.00000  Uiso   1.00
H1195  H     0.72085   0.26744   0.78277   0.00000  Uiso   1.00
H1196  H     0.94582   0.06589   0.88389   0.00000  Uiso   1.00
H1197  H     0.98779   0.10209   0.95556   0.00000  Uiso   1.00
H1198  H     0.94951   0.09839   0.69695   0.00000  Uiso   1.00
H1199  H     0.86923   0.05797   0.70011   0.00000  Uiso   1.00
H1200  H     0.82651   0.02190   0.96195   0.00000  Uiso   1.00
H1201  H     0.67408   0.16623   0.88818   0.00000  Uiso   1.00
H1202  H     0.79683   0.03903   0.76193   0.00000  Uiso   1.00
H1203  H     0.86984   0.29430   0.90474   0.00000  Uiso   1.00
H1204  H     0.77123   0.12389   0.70217   0.00000  Uiso   1.00
H1205  H     0.89543   0.20944   0.96449   0.00000  Uiso   1.00
H1206  H     0.77126   0.12389   0.94846   0.00000  Uiso   1.00
H1207  H     0.89540   0.20944   0.71821   0.00000  Uiso   1.00
H1208  H     0.84016   0.31144   0.70472   0.00000  Uiso   1.00
N1209  N     0.83335   0.16668   0.95069   0.00000  Uiso   1.00
N1210  N     0.83332   0.16666   0.71597   0.00000  Uiso   1.00
O1211  O     0.83333   0.10655   0.87291   0.00000  Uiso   1.00
O1212  O     0.83334   0.22678   0.79375   0.00000  Uiso   1.00
O1213  O     0.83333   0.10654   0.79372   0.00000  Uiso   1.00
O1214  O     0.83334   0.22679   0.87294   0.00000  Uiso   1.00
O1215  O     0.75828   0.16667   0.86379   0.00000  Uiso   1.00
O1216  O     0.90839   0.16666   0.80288   0.00000  Uiso   1.00
O1217  O     0.75828   0.16666   0.78460   0.00000  Uiso   1.00
O1218  O     0.90839   0.16667   0.88207   0.00000  Uiso   1.00
C1219  C     0.16803   0.42075   0.83352   0.00000  Uiso   1.00
C1220  C     0.18993   0.35404   0.87456   0.00000  Uiso   1.00
C1221  C     0.16412   0.62388   0.83290   0.00000  Uiso   1.00
C1222  C     0.16921   0.37612   0.83376   0.00000  Uiso   1.00
C1223  C     0.13212   0.47630   0.68702   0.00000  Uiso   1.00
C1224  C     0.20121   0.52370   0.97965   0.00000  Uiso   1.00
C1225  C     0.13213   0.47631   0.97073   0.00000  Uiso   1.00
C1226  C     0.20120   0.52369   0.69594   0.00000  Uiso   1.00
C1227  C     0.11674   0.62560   0.74878   0.00000  Uiso   1.00
C1228  C     0.13794   0.62783   0.70623   0.00000  Uiso   1.00
C1229  C     0.11399   0.60726   0.99914   0.00000  Uiso   1.00
C1230  C     0.16530   0.57924   0.83315   0.00000  Uiso   1.00
C1231  C     0.06875   0.58443   0.66760   0.00000  Uiso   1.00
C1232  C     0.04720   0.58232   0.70974   0.00000  Uiso   1.00
C1233  C     0.07098   0.60290   0.75022   0.00000  Uiso   1.00
C1234  C     0.21659   0.37440   0.91788   0.00000  Uiso   1.00
C1235  C     0.26235   0.39709   0.91645   0.00000  Uiso   1.00
C1236  C     0.28613   0.41768   0.95693   0.00000  Uiso   1.00
C1237  C     0.26458   0.41558   0.99906   0.00000  Uiso   1.00
C1238  C     0.21934   0.39274   0.66752   0.00000  Uiso   1.00
C1239  C     0.19540   0.37217   0.96043   0.00000  Uiso   1.00
C1240  C     0.06789   0.50002   0.82122   0.00000  Uiso   1.00
C1241  C     0.26544   0.49998   0.84545   0.00000  Uiso   1.00
C1242  C     0.01261   0.50013   0.81453   0.00000  Uiso   1.00
C1243  C     0.32073   0.49987   0.85213   0.00000  Uiso   1.00
C1244  C     0.14678   0.35530   0.79291   0.00000  Uiso   1.00
C1245  C     0.18656   0.64470   0.87375   0.00000  Uiso   1.00
C1246  C     0.14340   0.64596   0.79210   0.00000  Uiso   1.00
Cu1247 Cu    0.16667   0.50001   0.88022   0.00000  Uiso   1.00
Cu1248 Cu    0.16667   0.49999   0.78645   0.00000  Uiso   1.00
H1249  H     0.32592   0.50044   0.77848   0.00000  Uiso   1.00
H1250  H     0.13077   0.60870   0.96655   0.00000  Uiso   1.00
H1251  H     0.05049   0.56828   0.96971   0.00000  Uiso   1.00
H1252  H     0.01222   0.56457   0.71111   0.00000  Uiso   1.00
H1253  H     0.05418   0.60077   0.78277   0.00000  Uiso   1.00
H1254  H     0.27915   0.39922   0.88389   0.00000  Uiso   1.00
H1255  H     0.32112   0.43543   0.95556   0.00000  Uiso   1.00
H1256  H     0.28285   0.43172   0.69695   0.00000  Uiso   1.00
H1257  H     0.20257   0.39130   0.70011   0.00000  Uiso   1.00
H1258  H     0.15984   0.35523   0.96195   0.00000  Uiso   1.00
H1259  H     0.00741   0.49956   0.88818   0.00000  Uiso   1.00
H1260  H     0.13016   0.37237   0.76193   0.00000  Uiso   1.00
H1261  H     0.20317   0.62763   0.90474   0.00000  Uiso   1.00
H1262  H     0.10457   0.45722   0.70217   0.00000  Uiso   1.00
H1263  H     0.22877   0.54278   0.96449   0.00000  Uiso   1.00
H1264  H     0.10460   0.45722   0.94846   0.00000  Uiso   1.00
H1265  H     0.22874   0.54278   0.71821   0.00000  Uiso   1.00
H1266  H     0.17349   0.64477   0.70472   0.00000  Uiso   1.00
N1267  N     0.16668   0.50001   0.95069   0.00000  Uiso   1.00
N1268  N     0.16665   0.49999   0.71597   0.00000  Uiso   1.00
O1269  O     0.16666   0.43989   0.87291   0.00000  Uiso   1.00
O1270  O     0.16667   0.56011   0.79375   0.00000  Uiso   1.00
O1271  O     0.16666   0.43988   0.79372   0.00000  Uiso   1.00
O1272  O     0.16667   0.56012   0.87294   0.00000  Uiso   1.00
O1273  O     0.09161   0.50000   0.86379   0.00000  Uiso   1.00
O1274  O     0.24172   0.50000   0.80288   0.00000  Uiso   1.00
O1275  O     0.09161   0.49999   0.78460   0.00000  Uiso   1.00
O1276  O     0.24172   0.50001   0.88207   0.00000  Uiso   1.00
C1277  C     0.50136   0.42075   0.83352   0.00000  Uiso   1.00
C1278  C     0.52327   0.35404   0.87456   0.00000  Uiso   1.00
C1279  C     0.49745   0.62388   0.83290   0.00000  Uiso   1.00
C1280  C     0.50255   0.37612   0.83376   0.00000  Uiso   1.00
C1281  C     0.46545   0.47630   0.68702   0.00000  Uiso   1.00
C1282  C     0.53455   0.52370   0.97965   0.00000  Uiso   1.00
C1283  C     0.46547   0.47631   0.97073   0.00000  Uiso   1.00
C1284  C     0.53453   0.52369   0.69594   0.00000  Uiso   1.00
C1285  C     0.45007   0.62560   0.74878   0.00000  Uiso   1.00
C1286  C     0.47127   0.62783   0.70623   0.00000  Uiso   1.00
C1287  C     0.44733   0.60726   0.99914   0.00000  Uiso   1.00
C1288  C     0.49864   0.57924   0.83315   0.00000  Uiso   1.00
C1289  C     0.40209   0.58443   0.66760   0.00000  Uiso   1.00
C1290  C     0.38054   0.58232   0.70974   0.00000  Uiso   1.00
C1291  C     0.40431   0.60290   0.75022   0.00000  Uiso   1.00
C1292  C     0.54993   0.37440   0.91788   0.00000  Uiso   1.00
C1293  C     0.59569   0.39709   0.91645   0.00000  Uiso   1.00
C1294  C     0.61947   0.41768   0.95693   0.00000  Uiso   1.00
C1295  C     0.59791   0.41558   0.99906   0.00000  Uiso   1.00
C1296  C     0.55268   0.39274   0.66752   0.00000  Uiso   1.00
C1297  C     0.52873   0.37217   0.96043   0.00000  Uiso   1.00
C1298  C     0.40122   0.50002   0.82122   0.00000  Uiso   1.00
C1299  C     0.59877   0.49998   0.84545   0.00000  Uiso   1.00
C1300  C     0.34594   0.50013   0.81453   0.00000  Uiso   1.00
C1301  C     0.65406   0.49987   0.85213   0.00000  Uiso   1.00
C1302  C     0.48011   0.35530   0.79291   0.00000  Uiso   1.00
C1303  C     0.51989   0.64470   0.87375   0.00000  Uiso   1.00
C1304  C     0.47673   0.64596   0.79210   0.00000  Uiso   1.00
Cu1305 Cu    0.50000   0.50001   0.88022   0.00000  Uiso   1.00
Cu1306 Cu    0.50000   0.49999   0.78645   0.00000  Uiso   1.00
H1307  H     0.65926   0.50044   0.77848   0.00000  Uiso   1.00
H1308  H     0.46410   0.60870   0.96655   0.00000  Uiso   1.00
H1309  H     0.38382   0.56828   0.96971   0.00000  Uiso   1.00
H1310  H     0.34555   0.56457   0.71111   0.00000  Uiso   1.00
H1311  H     0.38751   0.60077   0.78277   0.00000  Uiso   1.00
H1312  H     0.61249   0.39922   0.88389   0.00000  Uiso   1.00
H1313  H     0.65445   0.43543   0.95556   0.00000  Uiso   1.00
H1314  H     0.61618   0.43172   0.69695   0.00000  Uiso   1.00
H1315  H     0.53590   0.39130   0.70011   0.00000  Uiso   1.00
H1316  H     0.49318   0.35523   0.96195   0.00000  Uiso   1.00
H1317  H     0.34074   0.49956   0.88818   0.00000  Uiso   1.00
H1318  H     0.46349   0.37237   0.76193   0.00000  Uiso   1.00
H1319  H     0.53651   0.62763   0.90474   0.00000  Uiso   1.00
H1320  H     0.43790   0.45722   0.70217   0.00000  Uiso   1.00
H1321  H     0.56210   0.54278   0.96449   0.00000  Uiso   1.00
H1322  H     0.43793   0.45722   0.94846   0.00000  Uiso   1.00
H1323  H     0.56207   0.54278   0.71821   0.00000  Uiso   1.00
H1324  H     0.50682   0.64477   0.70472   0.00000  Uiso   1.00
N1325  N     0.50001   0.50001   0.95069   0.00000  Uiso   1.00
N1326  N     0.49999   0.49999   0.71597   0.00000  Uiso   1.00
O1327  O     0.50000   0.43989   0.87291   0.00000  Uiso   1.00
O1328  O     0.50000   0.56011   0.79375   0.00000  Uiso   1.00
O1329  O     0.50000   0.43988   0.79372   0.00000  Uiso   1.00
O1330  O     0.50000   0.56012   0.87294   0.00000  Uiso   1.00
O1331  O     0.42495   0.50000   0.86379   0.00000  Uiso   1.00
O1332  O     0.57505   0.50000   0.80288   0.00000  Uiso   1.00
O1333  O     0.42494   0.49999   0.78460   0.00000  Uiso   1.00
O1334  O     0.57506   0.50001   0.88207   0.00000  Uiso   1.00
C1335  C     0.83470   0.42075   0.83352   0.00000  Uiso   1.00
C1336  C     0.85660   0.35404   0.87456   0.00000  Uiso   1.00
C1337  C     0.83079   0.62388   0.83290   0.00000  Uiso   1.00
C1338  C     0.83588   0.37612   0.83376   0.00000  Uiso   1.00
C1339  C     0.79879   0.47630   0.68702   0.00000  Uiso   1.00
C1340  C     0.86788   0.52370   0.97965   0.00000  Uiso   1.00
C1341  C     0.79880   0.47631   0.97073   0.00000  Uiso   1.00
C1342  C     0.86787   0.52369   0.69594   0.00000  Uiso   1.00
C1343  C     0.78341   0.62560   0.74878   0.00000  Uiso   1.00
C1344  C     0.80460   0.62783   0.70623   0.00000  Uiso   1.00
C1345  C     0.78066   0.60726   0.99914   0.00000  Uiso   1.00
C1346  C     0.83197   0.57924   0.83315   0.00000  Uiso   1.00
C1347  C     0.73542   0.58443   0.66760   0.00000  Uiso   1.00
C1348  C     0.71387   0.58232   0.70974   0.00000  Uiso   1.00
C1349  C     0.73765   0.60290   0.75022   0.00000  Uiso   1.00
C1350  C     0.88326   0.37440   0.91788   0.00000  Uiso   1.00
C1351  C     0.92902   0.39709   0.91645   0.00000  Uiso   1.00
C1352  C     0.95280   0.41768   0.95693   0.00000  Uiso   1.00
C1353  C     0.93125   0.41558   0.99906   0.00000  Uiso   1.00
C1354  C     0.88601   0.39274   0.66752   0.00000  Uiso   1.00
C1355  C     0.86207   0.37217   0.96043   0.00000  Uiso   1.00
C1356  C     0.73456   0.50002   0.82122   0.00000  Uiso   1.00
C1357  C     0.93211   0.49998   0.84545   0.00000  Uiso   1.00
C1358  C     0.67927   0.50013   0.81453   0.00000  Uiso   1.00
C1359  C     0.98739   0.49987   0.85213   0.00000  Uiso   1.00
C1360  C     0.81344   0.35530   0.79291   0.00000  Uiso   1.00
C1361  C     0.85322   0.64470   0.87375   0.00000  Uiso   1.00
C1362  C     0.81007   0.64596   0.79210   0.00000  Uiso   1.00
Cu1363 Cu    0.83333   0.50001   0.88022   0.00000  Uiso   1.00
Cu1364 Cu    0.83333   0.49999   0.78645   0.00000  Uiso   1.00
H1365  H     0.99259   0.50044   0.77848   0.00000  Uiso   1.00
H1366  H     0.79743   0.60870   0.96655   0.00000  Uiso   1.00
H1367  H     0.71715   0.56828   0.96971   0.00000  Uiso   1.00
H1368  H     0.67888   0.56457   0.71111   0.00000  Uiso   1.00
H1369  H     0.72085   0.60077   0.78277   0.00000  Uiso   1.00
H1370  H     0.94582   0.39922   0.88389   0.00000  Uiso   1.00
H1371  H     0.98779   0.43543   0.95556   0.00000  Uiso   1.00
H1372  H     0.94951   0.43172   0.69695   0.00000  Uiso   1.00
H1373  H     0.86923   0.39130   0.70011   0.00000  Uiso   1.00
H1374  H     0.82651   0.35523   0.96195   0.00000  Uiso   1.00
H1375  H     0.67408   0.49956   0.88818   0.00000  Uiso   1.00
H1376  H     0.79683   0.37237   0.76193   0.00000  Uiso   1.00
H1377  H     0.86984   0.62763   0.90474   0.00000  Uiso   1.00
H1378  H     0.77123   0.45722   0.70217   0.00000  Uiso   1.00
H1379  H     0.89543   0.54278   0.96449   0.00000  Uiso   1.00
H1380  H     0.77126   0.45722   0.94846   0.00000  Uiso   1.00
H1381  H     0.89540   0.54278   0.71821   0.00000  Uiso   1.00
H1382  H     0.84016   0.64477   0.70472   0.00000  Uiso   1.00
N1383  N     0.83335   0.50001   0.95069   0.00000  Uiso   1.00
N1384  N     0.83332   0.49999   0.71597   0.00000  Uiso   1.00
O1385  O     0.83333   0.43989   0.87291   0.00000  Uiso   1.00
O1386  O     0.83334   0.56011   0.79375   0.00000  Uiso   1.00
O1387  O     0.83333   0.43988   0.79372   0.00000  Uiso   1.00
O1388  O     0.83334   0.56012   0.87294   0.00000  Uiso   1.00
O1389  O     0.75828   0.50000   0.86379   0.00000  Uiso   1.00
O1390  O     0.90839   0.50000   0.80288   0.00000  Uiso   1.00
O1391  O     0.75828   0.49999   0.78460   0.00000  Uiso   1.00
O1392  O     0.90839   0.50001   0.88207   0.00000  Uiso   1.00
C1393  C     0.16803   0.75409   0.83352   0.00000  Uiso   1.00
C1394  C     0.18993   0.68738   0.87456   0.00000  Uiso   1.00
C1395  C     0.16412   0.95722   0.83290   0.00000  Uiso   1.00
C1396  C     0.16921   0.70945   0.83376   0.00000  Uiso   1.00
C1397  C     0.13212   0.80963   0.68702   0.00000  Uiso   1.00
C1398  C     0.20121   0.85703   0.97965   0.00000  Uiso   1.00
C1399  C     0.13213   0.80964   0.97073   0.00000  Uiso   1.00
C1400  C     0.20120   0.85702   0.69594   0.00000  Uiso   1.00
C1401  C     0.11674   0.95893   0.74878   0.00000  Uiso   1.00
C1402  C     0.13794   0.96116   0.70623   0.00000  Uiso   1.00
C1403  C     0.11399   0.94059   0.99914   0.00000  Uiso   1.00
C1404  C     0.16530   0.91258   0.83315   0.00000  Uiso   1.00
C1405  C     0.06875   0.91776   0.66760   0.00000  Uiso   1.00
C1406  C     0.04720   0.91566   0.70974   0.00000  Uiso   1.00
C1407  C     0.07098   0.93624   0.75022   0.00000  Uiso   1.00
C1408  C     0.21659   0.70773   0.91788   0.00000  Uiso   1.00
C1409  C     0.26235   0.73043   0.91645   0.00000  Uiso   1.00
C1410  C     0.28613   0.75101   0.95693   0.00000  Uiso   1.00
C1411  C     0.26458   0.74891   0.99906   0.00000  Uiso   1.00
C1412  C     0.21934   0.72608   0.66752   0.00000  Uiso   1.00
C1413  C     0.19540   0.70551   0.96043   0.00000  Uiso   1.00
C1414  C     0.06789   0.83335   0.82122   0.00000  Uiso   1.00
C1415  C     0.26544   0.83332   0.84545   0.00000  Uiso   1.00
C1416  C     0.01261   0.83346   0.81453   0.00000  Uiso   1.00
C1417  C     0.32073   0.83321   0.85213   0.00000  Uiso   1.00
C1418  C     0.14678   0.68863   0.79291   0.00000  Uiso   1.00
C1419  C     0.18656   0.97804   0.87375   0.00000  Uiso   1.00
C1420  C     0.14340   0.97929   0.79210   0.00000  Uiso   1.00
Cu1421 Cu    0.16667   0.83334   0.88022   0.00000  Uiso   1.00
Cu1422 Cu    0.16667   0.83333   0.78645   0.00000  Uiso   1.00
H1423  H     0.32592   0.83377   0.77848   0.00000  Uiso   1.00
H1424  H     0.13077   0.94203   0.96655   0.00000  Uiso   1.00
H1425  H     0.05049   0.90161   0.96971   0.00000  Uiso   1.00
H1426  H     0.01222   0.89791   0.71111   0.00000  Uiso   1.00
H1427  H     0.05418   0.93411   0.78277   0.00000  Uiso   1.00
H1428  H     0.27915   0.73256   0.88389   0.00000  Uiso   1.00
H1429  H     0.32112   0.76876   0.95556   0.00000  Uiso   1.00
H1430  H     0.28285   0.76506   0.69695   0.00000  Uiso   1.00
H1431  H     0.20257   0.72464   0.70011   0.00000  Uiso   1.00
H1432  H     0.15984   0.68857   0.96195   0.00000  Uiso   1.00
H1433  H     0.00741   0.83290   0.88818   0.00000  Uiso   1.00
H1434  H     0.13016   0.70570   0.76193   0.00000  Uiso   1.00
H1435  H     0.20317   0.96096   0.90474   0.00000  Uiso   1.00
H1436  H     0.10457   0.79055   0.70217   0.00000  Uiso   1.00
H1437  H     0.22877   0.87611   0.96449   0.00000  Uiso   1.00
H1438  H     0.10460   0.79055   0.94846   0.00000  Uiso   1.00
H1439  H     0.22874   0.87611   0.71821   0.00000  Uiso   1.00
H1440  H     0.17349   0.97810   0.70472   0.00000  Uiso   1.00
N1441  N     0.16668   0.83334   0.95069   0.00000  Uiso   1.00
N1442  N     0.16665   0.83332   0.71597   0.00000  Uiso   1.00
O1443  O     0.16666   0.77322   0.87291   0.00000  Uiso   1.00
O1444  O     0.16667   0.89345   0.79375   0.00000  Uiso   1.00
O1445  O     0.16666   0.77321   0.79372   0.00000  Uiso   1.00
O1446  O     0.16667   0.89346   0.87294   0.00000  Uiso   1.00
O1447  O     0.09161   0.83334   0.86379   0.00000  Uiso   1.00
O1448  O     0.24172   0.83333   0.80288   0.00000  Uiso   1.00
O1449  O     0.09161   0.83333   0.78460   0.00000  Uiso   1.00
O1450  O     0.24172   0.83334   0.88207   0.00000  Uiso   1.00
C1451  C     0.50136   0.75409   0.83352   0.00000  Uiso   1.00
C1452  C     0.52327   0.68738   0.87456   0.00000  Uiso   1.00
C1453  C     0.49745   0.95722   0.83290   0.00000  Uiso   1.00
C1454  C     0.50255   0.70945   0.83376   0.00000  Uiso   1.00
C1455  C     0.46545   0.80963   0.68702   0.00000  Uiso   1.00
C1456  C     0.53455   0.85703   0.97965   0.00000  Uiso   1.00
C1457  C     0.46547   0.80964   0.97073   0.00000  Uiso   1.00
C1458  C     0.53453   0.85702   0.69594   0.00000  Uiso   1.00
C1459  C     0.45007   0.95893   0.74878   0.00000  Uiso   1.00
C1460  C     0.47127   0.96116   0.70623   0.00000  Uiso   1.00
C1461  C     0.44733   0.94059   0.99914   0.00000  Uiso   1.00
C1462  C     0.49864   0.91258   0.83315   0.00000  Uiso   1.00
C1463  C     0.40209   0.91776   0.66760   0.00000  Uiso   1.00
C1464  C     0.38054   0.91566   0.70974   0.00000  Uiso   1.00
C1465  C     0.40431   0.93624   0.75022   0.00000  Uiso   1.00
C1466  C     0.54993   0.70773   0.91788   0.00000  Uiso   1.00
C1467  C     0.59569   0.73043   0.91645   0.00000  Uiso   1.00
C1468  C     0.61947   0.75101   0.95693   0.00000  Uiso   1.00
C1469  C     0.59791   0.74891   0.99906   0.00000  Uiso   1.00
C1470  C     0.55268   0.72608   0.66752   0.00000  Uiso   1.00
C1471  C     0.52873   0.70551   0.96043   0.00000  Uiso   1.00
C1472  C     0.40122   0.83335   0.82122   0.00000  Uiso   1.00
C1473  C     0.59877   0.83332   0.84545   0.00000  Uiso   1.00
C1474  C     0.34594   0.83346   0.81453   0.00000  Uiso   1.00
C1475  C     0.65406   0.83321   0.85213   0.00000  Uiso   1.00
C1476  C     0.48011   0.68863   0.79291   0.00000  Uiso   1.00
C1477  C     0.51989   0.97804   0.87375   0.00000  Uiso   1.00
C1478  C     0.47673   0.97929   0.79210   0.00000  Uiso   1.00
Cu1479 Cu    0.50000   0.83334   0.88022   0.00000  Uiso   1.00
Cu1480 Cu    0.50000   0.83333   0.78645   0.00000  Uiso   1.00
H1481  H     0.65926   0.83377   0.77848   0.00000  Uiso   1.00
H1482  H     0.46410   0.94203   0.96655   0.00000  Uiso   1.00
H1483  H     0.38382   0.90161   0.96971   0.00000  Uiso   1.00
H1484  H     0.34555   0.89791   0.71111   0.00000  Uiso   1.00
H1485  H     0.38751   0.93411   0.78277   0.00000  Uiso   1.00
H1486  H     0.61249   0.73256   0.88389   0.00000  Uiso   1.00
H1487  H     0.65445   0.76876   0.95556   0.00000  Uiso   1.00
H1488  H     0.61618   0.76506   0.69695   0.00000  Uiso   1.00
H1489  H     0.53590   0.72464   0.70011   0.00000  Uiso   1.00
H1490  H     0.49318   0.68857   0.96195   0.00000  Uiso   1.00
H1491  H     0.34074   0.83290   0.88818   0.00000  Uiso   1.00
H1492  H     0.46349   0.70570   0.76193   0.00000  Uiso   1.00
H1493  H     0.53651   0.96096   0.90474   0.00000  Uiso   1.00
H1494  H     0.43790   0.79055   0.70217   0.00000  Uiso   1.00
H1495  H     0.56210   0.87611   0.96449   0.00000  Uiso   1.00
H1496  H     0.43793   0.79055   0.94846   0.00000  Uiso   1.00
H1497  H     0.56207   0.87611   0.71821   0.00000  Uiso   1.00
H1498  H     0.50682   0.97810   0.70472   0.00000  Uiso   1.00
N1499  N     0.50001   0.83334   0.95069   0.00000  Uiso   1.00
N1500  N     0.49999   0.83332   0.71597   0.00000  Uiso   1.00
O1501  O     0.50000   0.77322   0.87291   0.00000  Uiso   1.00
O1502  O     0.50000   0.89345   0.79375   0.00000  Uiso   1.00
O1503  O     0.50000   0.77321   0.79372   0.00000  Uiso   1.00
O1504  O     0.50000   0.89346   0.87294   0.00000  Uiso   1.00
O1505  O     0.42495   0.83334   0.86379   0.00000  Uiso   1.00
O1506  O     0.57505   0.83333   0.80288   0.00000  Uiso   1.00
O1507  O     0.42494   0.83333   0.78460   0.00000  Uiso   1.00
O1508  O     0.57506   0.83334   0.88207   0.00000  Uiso   1.00
C1509  C     0.83470   0.75409   0.83352   0.00000  Uiso   1.00
C1510  C     0.85660   0.68738   0.87456   0.00000  Uiso   1.00
C1511  C     0.83079   0.95722   0.83290   0.00000  Uiso   1.00
C1512  C     0.83588   0.70945   0.83376   0.00000  Uiso   1.00
C1513  C     0.79879   0.80963   0.68702   0.00000  Uiso   1.00
C1514  C     0.86788   0.85703   0.97965   0.00000  Uiso   1.00
C1515  C     0.79880   0.80964   0.97073   0.00000  Uiso   1.00
C1516  C     0.86787   0.85702   0.69594   0.00000  Uiso   1.00
C1517  C     0.78341   0.95893   0.74878   0.00000  Uiso   1.00
C1518  C     0.80460   0.96116   0.70623   0.00000  Uiso   1.00
C1519  C     0.78066   0.94059   0.99914   0.00000  Uiso   1.00
C1520  C     0.83197   0.91258   0.83315   0.00000  Uiso   1.00
C1521  C     0.73542   0.91776   0.66760   0.00000  Uiso   1.00
C1522  C     0.71387   0.91566   0.70974   0.00000  Uiso   1.00
C1523  C     0.73765   0.93624   0.75022   0.00000  Uiso   1.00
C1524  C     0.88326   0.70773   0.91788   0.00000  Uiso   1.00
C1525  C     0.92902   0.73043   0.91645   0.00000  Uiso   1.00
C1526  C     0.95280   0.75101   0.95693   0.00000  Uiso   1.00
C1527  C     0.93125   0.74891   0.99906   0.00000  Uiso   1.00
C1528  C     0.88601   0.72608   0.66752   0.00000  Uiso   1.00
C1529  C     0.86207   0.70551   0.96043   0.00000  Uiso   1.00
C1530  C     0.73456   0.83335   0.82122   0.00000  Uiso   1.00
C1531  C     0.93211   0.83332   0.84545   0.00000  Uiso   1.00
C1532  C     0.67927   0.83346   0.81453   0.00000  Uiso   1.00
C1533  C     0.98739   0.83321   0.85213   0.00000  Uiso   1.00
C1534  C     0.81344   0.68863   0.79291   0.00000  Uiso   1.00
C1535  C     0.85322   0.97804   0.87375   0.00000  Uiso   1.00
C1536  C     0.81007   0.97929   0.79210   0.00000  Uiso   1.00
Cu1537 Cu    0.83333   0.83334   0.88022   0.00000  Uiso   1.00
Cu1538 Cu    0.83333   0.83333   0.78645   0.00000  Uiso   1.00
H1539  H     0.99259   0.83377   0.77848   0.00000  Uiso   1.00
H1540  H     0.79743   0.94203   0.96655   0.00000  Uiso   1.00
H1541  H     0.71715   0.90161   0.96971   0.00000  Uiso   1.00
H1542  H     0.67888   0.89791   0.71111   0.00000  Uiso   1.00
H1543  H     0.72085   0.93411   0.78277   0.00000  Uiso   1.00
H1544  H     0.94582   0.73256   0.88389   0.00000  Uiso   1.00
H1545  H     0.98779   0.76876   0.95556   0.00000  Uiso   1.00
H1546  H     0.94951   0.76506   0.69695   0.00000  Uiso   1.00
H1547  H     0.86923   0.72464   0.70011   0.00000  Uiso   1.00
H1548  H     0.82651   0.68857   0.96195   0.00000  Uiso   1.00
H1549  H     0.67408   0.83290   0.88818   0.00000  Uiso   1.00
H1550  H     0.79683   0.70570   0.76193   0.00000  Uiso   1.00
H1551  H     0.86984   0.96096   0.90474   0.00000  Uiso   1.00
H1552  H     0.77123   0.79055   0.70217   0.00000  Uiso   1.00
H1553  H     0.89543   0.87611   0.96449   0.00000  Uiso   1.00
H1554  H     0.77126   0.79055   0.94846   0.00000  Uiso   1.00
H1555  H     0.89540   0.87611   0.71821   0.00000  Uiso   1.00
H1556  H     0.84016   0.97810   0.70472   0.00000  Uiso   1.00
N1557  N     0.83335   0.83334   0.95069   0.00000  Uiso   1.00
N1558  N     0.83332   0.83332   0.71597   0.00000  Uiso   1.00
O1559  O     0.83333   0.77322   0.87291   0.00000  Uiso   1.00
O1560  O     0.83334   0.89345   0.79375   0.00000  Uiso   1.00
O1561  O     0.83333   0.77321   0.79372   0.00000  Uiso   1.00
O1562  O     0.83334   0.89346   0.87294   0.00000  Uiso   1.00
O1563  O     0.75828   0.83334   0.86379   0.00000  Uiso   1.00
O1564  O     0.90839   0.83333   0.80288   0.00000  Uiso   1.00
O1565  O     0.75828   0.83333   0.78460   0.00000  Uiso   1.00
O1566  O     0.90839   0.83334   0.88207   0.00000  Uiso   1.00
loop_
_geom_bond_atom_site_label_1
_geom_bond_atom_site_label_2
_geom_bond_distance
_geom_bond_site_symmetry_2
_ccdc_geom_bond_type
C1     C4      1.450   .     S
C1     O51     1.288   .     A
C1     O53     1.291   .     A
C2     C4      1.413   .     A
C2     C16     1.483   .     S
C2     C375    1.387   1_545 S
C3     C27     1.400   .     A
C3     C28     1.413   .     A
C3     C12     1.450   .     S
C4     C26     1.400   .     A
C5     H44     1.082   .     S
C5     N50     1.367   .     A
C5     C1051   1.416   1_554 S
C6     N49     1.367   .     A
C6     H45     1.082   .     S
C6     C530    1.416   .     S
C7     N49     1.367   .     A
C7     H46     1.082   .     S
C7     C527    1.416   .     S
C8     H47     1.082   .     S
C8     N50     1.367   .     A
C8     C1050   1.416   1_554 S
C9     C10     1.404   .     A
C9     C15     1.406   .     A
C9     C28     1.483   .     S
C10    H48     1.083   .     S
C10    C1055   1.399   1_554 S
C11    H32     1.083   .     S
C11    C532    1.399   .     S
C11    C535    1.398   .     S
C12    O52     1.288   .     A
C12    O54     1.291   .     A
C13    C14     1.398   .     A
C13    C1055   1.398   1_554 S
C13    H1077   1.083   1_554 S
C14    H34     1.083   .     S
C14    C15     1.399   .     A
C15    H35     1.083   .     S
C16    C21     1.404   .     A
C16    C17     1.406   .     A
C17    H36     1.083   .     S
C17    C18     1.399   .     A
C18    C19     1.398   .     A
C18    H37     1.083   .     S
C19    C542    1.398   .     S
C19    H560    1.083   .     S
C20    H39     1.083   .     S
C20    C1063   1.398   1_554 S
C20    C1065   1.399   1_554 S
C21    H40     1.083   .     S
C21    C542    1.399   .     S
C22    O57     1.287   .     A
C22    O55     1.285   .     A
C22    C24     1.432   .     S
C23    O58     1.287   .     A
C23    O56     1.285   .     A
C23    C25     1.432   .     S
C24    C141    1.335   1_455 S
C24    H147    1.088   1_455 S
C25    C82     1.335   .     S
C25    H99     1.088   .     S
C26    H42     1.085   .     S
C26    C376    1.387   1_545 S
C27    H43     1.085   .     S
C27    C176    1.387   .     S
C28    C200    1.387   .     S
Cu29   N49     2.010   .     S
Cu29   O58     1.957   .     S
Cu29   Cu30    2.675   .     S
Cu29   O51     1.962   .     S
Cu29   O54     1.963   .     S
Cu29   O55     1.954   .     S
Cu30   O57     1.957   .     S
Cu30   N50     2.010   .     S
Cu30   O53     1.963   .     S
Cu30   O52     1.962   .     S
Cu30   O56     1.954   .     S
H31    C82     1.088   .     S
H33    C535    1.083   .     S
H38    C1063   1.083   1_554 S
H41    C141    1.088   1_455 S
C59    C62     1.450   .     S
C59    O109    1.288   .     A
C59    O111    1.291   .     A
C60    C62     1.413   .     A
C60    C74     1.483   .     S
C60    C433    1.387   1_545 S
C61    C85     1.400   .     A
C61    C86     1.413   .     A
C61    C70     1.450   .     S
C62    C84     1.400   .     A
C63    H102    1.082   .     S
C63    N108    1.367   .     A
C63    C1109   1.416   1_554 S
C64    N107    1.367   .     A
C64    H103    1.082   .     S
C64    C588    1.416   .     S
C65    N107    1.367   .     A
C65    H104    1.082   .     S
C65    C585    1.416   .     S
C66    H105    1.082   .     S
C66    N108    1.367   .     A
C66    C1108   1.416   1_554 S
C67    C68     1.404   .     A
C67    C73     1.406   .     A
C67    C86     1.483   .     S
C68    H106    1.083   .     S
C68    C1113   1.399   1_554 S
C69    H90     1.083   .     S
C69    C590    1.399   .     S
C69    C593    1.398   .     S
C70    O110    1.288   .     A
C70    O112    1.291   .     A
C71    C72     1.398   .     A
C71    C1113   1.398   1_554 S
C71    H1135   1.083   1_554 S
C72    H92     1.083   .     S
C72    C73     1.399   .     A
C73    H93     1.083   .     S
C74    C79     1.404   .     A
C74    C75     1.406   .     A
C75    H94     1.083   .     S
C75    C76     1.399   .     A
C76    C77     1.398   .     A
C76    H95     1.083   .     S
C77    C600    1.398   .     S
C77    H618    1.083   .     S
C78    H97     1.083   .     S
C78    C1121   1.398   1_554 S
C78    C1123   1.399   1_554 S
C79    H98     1.083   .     S
C79    C600    1.399   .     S
C80    O115    1.287   .     A
C80    O113    1.285   .     A
C80    C82     1.432   .     S
C81    O116    1.287   .     A
C81    O114    1.285   .     A
C81    C83     1.432   .     S
C83    C140    1.335   .     S
C83    H157    1.088   .     S
C84    H100    1.085   .     S
C84    C434    1.387   1_545 S
C85    H101    1.085   .     S
C85    C234    1.387   .     S
C86    C258    1.387   .     S
Cu87   N107    2.010   .     S
Cu87   O116    1.957   .     S
Cu87   Cu88    2.675   .     S
Cu87   O109    1.962   .     S
Cu87   O112    1.963   .     S
Cu87   O113    1.954   .     S
Cu88   O115    1.957   .     S
Cu88   N108    2.010   .     S
Cu88   O111    1.963   .     S
Cu88   O110    1.962   .     S
Cu88   O114    1.954   .     S
H89    C140    1.088   .     S
H91    C593    1.083   .     S
H96    C1121   1.083   1_554 S
C117   C120    1.450   .     S
C117   O167    1.288   .     A
C117   O169    1.291   .     A
C118   C120    1.413   .     A
C118   C132    1.483   .     S
C118   C491    1.387   1_545 S
C119   C143    1.400   .     A
C119   C144    1.413   .     A
C119   C128    1.450   .     S
C120   C142    1.400   .     A
C121   H160    1.082   .     S
C121   N166    1.367   .     A
C121   C1167   1.416   1_554 S
C122   N165    1.367   .     A
C122   H161    1.082   .     S
C122   C646    1.416   .     S
C123   N165    1.367   .     A
C123   H162    1.082   .     S
C123   C643    1.416   .     S
C124   H163    1.082   .     S
C124   N166    1.367   .     A
C124   C1166   1.416   1_554 S
C125   C126    1.404   .     A
C125   C131    1.406   .     A
C125   C144    1.483   .     S
C126   H164    1.083   .     S
C126   C1171   1.399   1_554 S
C127   H148    1.083   .     S
C127   C648    1.399   .     S
C127   C651    1.398   .     S
C128   O168    1.288   .     A
C128   O170    1.291   .     A
C129   C130    1.398   .     A
C129   C1171   1.398   1_554 S
C129   H1193   1.083   1_554 S
C130   H150    1.083   .     S
C130   C131    1.399   .     A
C131   H151    1.083   .     S
C132   C137    1.404   .     A
C132   C133    1.406   .     A
C133   H152    1.083   .     S
C133   C134    1.399   .     A
C134   C135    1.398   .     A
C134   H153    1.083   .     S
C135   C658    1.398   .     S
C135   H676    1.083   .     S
C136   H155    1.083   .     S
C136   C1179   1.398   1_554 S
C136   C1181   1.399   1_554 S
C137   H156    1.083   .     S
C137   C658    1.399   .     S
C138   O173    1.287   .     A
C138   O171    1.285   .     A
C138   C140    1.432   .     S
C139   O174    1.287   .     A
C139   O172    1.285   .     A
C139   C141    1.432   .     S
C141   C24     1.335   1_655 S
C141   H41     1.088   1_655 S
C142   H158    1.085   .     S
C142   C492    1.387   1_545 S
C143   H159    1.085   .     S
C143   C292    1.387   .     S
C144   C316    1.387   .     S
Cu145  N165    2.010   .     S
Cu145  O174    1.957   .     S
Cu145  Cu146   2.675   .     S
Cu145  O167    1.962   .     S
Cu145  O170    1.963   .     S
Cu145  O171    1.954   .     S
Cu146  O173    1.957   .     S
Cu146  N166    2.010   .     S
Cu146  O169    1.963   .     S
Cu146  O168    1.962   .     S
Cu146  O172    1.954   .     S
H147   C24     1.088   1_655 S
H149   C651    1.083   .     S
H154   C1179   1.083   1_554 S
C175   C178    1.450   .     S
C175   O225    1.288   .     A
C175   O227    1.291   .     A
C176   C178    1.413   .     A
C176   C190    1.483   .     S
C177   C201    1.400   .     A
C177   C202    1.413   .     A
C177   C186    1.450   .     S
C178   C200    1.400   .     A
C179   H218    1.082   .     S
C179   N224    1.367   .     A
C179   C1225   1.416   1_554 S
C180   N223    1.367   .     A
C180   H219    1.082   .     S
C180   C704    1.416   .     S
C181   N223    1.367   .     A
C181   H220    1.082   .     S
C181   C701    1.416   .     S
C182   H221    1.082   .     S
C182   N224    1.367   .     A
C182   C1224   1.416   1_554 S
C183   C184    1.404   .     A
C183   C189    1.406   .     A
C183   C202    1.483   .     S
C184   H222    1.083   .     S
C184   C1229   1.399   1_554 S
C185   H206    1.083   .     S
C185   C706    1.399   .     S
C185   C709    1.398   .     S
C186   O226    1.288   .     A
C186   O228    1.291   .     A
C187   C188    1.398   .     A
C187   C1229   1.398   1_554 S
C187   H1251   1.083   1_554 S
C188   H208    1.083   .     S
C188   C189    1.399   .     A
C189   H209    1.083   .     S
C190   C195    1.404   .     A
C190   C191    1.406   .     A
C191   H210    1.083   .     S
C191   C192    1.399   .     A
C192   C193    1.398   .     A
C192   H211    1.083   .     S
C193   C716    1.398   .     S
C193   H734    1.083   .     S
C194   H213    1.083   .     S
C194   C1237   1.398   1_554 S
C194   C1239   1.399   1_554 S
C195   H214    1.083   .     S
C195   C716    1.399   .     S
C196   O231    1.287   .     A
C196   O229    1.285   .     A
C196   C198    1.432   .     S
C197   O232    1.287   .     A
C197   O230    1.285   .     A
C197   C199    1.432   .     S
C198   C315    1.335   1_455 S
C198   H321    1.088   1_455 S
C199   C256    1.335   .     S
C199   H273    1.088   .     S
C200   H216    1.085   .     S
C201   H217    1.085   .     S
C201   C350    1.387   .     S
C202   C374    1.387   .     S
Cu203  N223    2.010   .     S
Cu203  O232    1.957   .     S
Cu203  Cu204   2.675   .     S
Cu203  O225    1.962   .     S
Cu203  O228    1.963   .     S
Cu203  O229    1.954   .     S
Cu204  O231    1.957   .     S
Cu204  N224    2.010   .     S
Cu204  O227    1.963   .     S
Cu204  O226    1.962   .     S
Cu204  O230    1.954   .     S
H205   C256    1.088   .     S
H207   C709    1.083   .     S
H212   C1237   1.083   1_554 S
H215   C315    1.088   1_455 S
C233   C236    1.450   .     S
C233   O283    1.288   .     A
C233   O285    1.291   .     A
C234   C236    1.413   .     A
C234   C248    1.483   .     S
C235   C259    1.400   .     A
C235   C260    1.413   .     A
C235   C244    1.450   .     S
C236   C258    1.400   .     A
C237   H276    1.082   .     S
C237   N282    1.367   .     A
C237   C1283   1.416   1_554 S
C238   N281    1.367   .     A
C238   H277    1.082   .     S
C238   C762    1.416   .     S
C239   N281    1.367   .     A
C239   H278    1.082   .     S
C239   C759    1.416   .     S
C240   H279    1.082   .     S
C240   N282    1.367   .     A
C240   C1282   1.416   1_554 S
C241   C242    1.404   .     A
C241   C247    1.406   .     A
C241   C260    1.483   .     S
C242   H280    1.083   .     S
C242   C1287   1.399   1_554 S
C243   H264    1.083   .     S
C243   C764    1.399   .     S
C243   C767    1.398   .     S
C244   O284    1.288   .     A
C244   O286    1.291   .     A
C245   C246    1.398   .     A
C245   C1287   1.398   1_554 S
C245   H1309   1.083   1_554 S
C246   H266    1.083   .     S
C246   C247    1.399   .     A
C247   H267    1.083   .     S
C248   C253    1.404   .     A
C248   C249    1.406   .     A
C249   H268    1.083   .     S
C249   C250    1.399   .     A
C250   C251    1.398   .     A
C250   H269    1.083   .     S
C251   C774    1.398   .     S
C251   H792    1.083   .     S
C252   H271    1.083   .     S
C252   C1295   1.398   1_554 S
C252   C1297   1.399   1_554 S
C253   H272    1.083   .     S
C253   C774    1.399   .     S
C254   O289    1.287   .     A
C254   O287    1.285   .     A
C254   C256    1.432   .     S
C255   O290    1.287   .     A
C255   O288    1.285   .     A
C255   C257    1.432   .     S
C257   C314    1.335   .     S
C257   H331    1.088   .     S
C258   H274    1.085   .     S
C259   H275    1.085   .     S
C259   C408    1.387   .     S
C260   C432    1.387   .     S
Cu261  N281    2.010   .     S
Cu261  O290    1.957   .     S
Cu261  Cu262   2.675   .     S
Cu261  O283    1.962   .     S
Cu261  O286    1.963   .     S
Cu261  O287    1.954   .     S
Cu262  O289    1.957   .     S
Cu262  N282    2.010   .     S
Cu262  O285    1.963   .     S
Cu262  O284    1.962   .     S
Cu262  O288    1.954   .     S
H263   C314    1.088   .     S
H265   C767    1.083   .     S
H270   C1295   1.083   1_554 S
C291   C294    1.450   .     S
C291   O341    1.288   .     A
C291   O343    1.291   .     A
C292   C294    1.413   .     A
C292   C306    1.483   .     S
C293   C317    1.400   .     A
C293   C318    1.413   .     A
C293   C302    1.450   .     S
C294   C316    1.400   .     A
C295   H334    1.082   .     S
C295   N340    1.367   .     A
C295   C1341   1.416   1_554 S
C296   N339    1.367   .     A
C296   H335    1.082   .     S
C296   C820    1.416   .     S
C297   N339    1.367   .     A
C297   H336    1.082   .     S
C297   C817    1.416   .     S
C298   H337    1.082   .     S
C298   N340    1.367   .     A
C298   C1340   1.416   1_554 S
C299   C300    1.404   .     A
C299   C305    1.406   .     A
C299   C318    1.483   .     S
C300   H338    1.083   .     S
C300   C1345   1.399   1_554 S
C301   H322    1.083   .     S
C301   C822    1.399   .     S
C301   C825    1.398   .     S
C302   O342    1.288   .     A
C302   O344    1.291   .     A
C303   C304    1.398   .     A
C303   C1345   1.398   1_554 S
C303   H1367   1.083   1_554 S
C304   H324    1.083   .     S
C304   C305    1.399   .     A
C305   H325    1.083   .     S
C306   C311    1.404   .     A
C306   C307    1.406   .     A
C307   H326    1.083   .     S
C307   C308    1.399   .     A
C308   C309    1.398   .     A
C308   H327    1.083   .     S
C309   C832    1.398   .     S
C309   H850    1.083   .     S
C310   H329    1.083   .     S
C310   C1353   1.398   1_554 S
C310   C1355   1.399   1_554 S
C311   H330    1.083   .     S
C311   C832    1.399   .     S
C312   O347    1.287   .     A
C312   O345    1.285   .     A
C312   C314    1.432   .     S
C313   O348    1.287   .     A
C313   O346    1.285   .     A
C313   C315    1.432   .     S
C315   C198    1.335   1_655 S
C315   H215    1.088   1_655 S
C316   H332    1.085   .     S
C317   H333    1.085   .     S
C317   C466    1.387   .     S
C318   C490    1.387   .     S
Cu319  N339    2.010   .     S
Cu319  O348    1.957   .     S
Cu319  Cu320   2.675   .     S
Cu319  O341    1.962   .     S
Cu319  O344    1.963   .     S
Cu319  O345    1.954   .     S
Cu320  O347    1.957   .     S
Cu320  N340    2.010   .     S
Cu320  O343    1.963   .     S
Cu320  O342    1.962   .     S
Cu320  O346    1.954   .     S
H321   C198    1.088   1_655 S
H323   C825    1.083   .     S
H328   C1353   1.083   1_554 S
C349   C352    1.450   .     S
C349   O399    1.288   .     A
C349   O401    1.291   .     A
C350   C352    1.413   .     A
C350   C364    1.483   .     S
C351   C375    1.400   .     A
C351   C376    1.413   .     A
C351   C360    1.450   .     S
C352   C374    1.400   .     A
C353   H392    1.082   .     S
C353   N398    1.367   .     A
C353   C1399   1.416   1_554 S
C354   N397    1.367   .     A
C354   H393    1.082   .     S
C354   C878    1.416   .     S
C355   N397    1.367   .     A
C355   H394    1.082   .     S
C355   C875    1.416   .     S
C356   H395    1.082   .     S
C356   N398    1.367   .     A
C356   C1398   1.416   1_554 S
C357   C358    1.404   .     A
C357   C363    1.406   .     A
C357   C376    1.483   .     S
C358   H396    1.083   .     S
C358   C1403   1.399   1_554 S
C359   H380    1.083   .     S
C359   C880    1.399   .     S
C359   C883    1.398   .     S
C360   O400    1.288   .     A
C360   O402    1.291   .     A
C361   C362    1.398   .     A
C361   C1403   1.398   1_554 S
C361   H1425   1.083   1_554 S
C362   H382    1.083   .     S
C362   C363    1.399   .     A
C363   H383    1.083   .     S
C364   C369    1.404   .     A
C364   C365    1.406   .     A
C365   H384    1.083   .     S
C365   C366    1.399   .     A
C366   C367    1.398   .     A
C366   H385    1.083   .     S
C367   C890    1.398   .     S
C367   H908    1.083   .     S
C368   H387    1.083   .     S
C368   C1411   1.398   1_554 S
C368   C1413   1.399   1_554 S
C369   H388    1.083   .     S
C369   C890    1.399   .     S
C370   O405    1.287   .     A
C370   O403    1.285   .     A
C370   C372    1.432   .     S
C371   O406    1.287   .     A
C371   O404    1.285   .     A
C371   C373    1.432   .     S
C372   C489    1.335   1_455 S
C372   H495    1.088   1_455 S
C373   C430    1.335   .     S
C373   H447    1.088   .     S
C374   H390    1.085   .     S
C375   H391    1.085   .     S
C375   C2      1.387   1_565 S
C376   C26     1.387   1_565 S
Cu377  N397    2.010   .     S
Cu377  O406    1.957   .     S
Cu377  Cu378   2.675   .     S
Cu377  O399    1.962   .     S
Cu377  O402    1.963   .     S
Cu377  O403    1.954   .     S
Cu378  O405    1.957   .     S
Cu378  N398    2.010   .     S
Cu378  O401    1.963   .     S
Cu378  O400    1.962   .     S
Cu378  O404    1.954   .     S
H379   C430    1.088   .     S
H381   C883    1.083   .     S
H386   C1411   1.083   1_554 S
H389   C489    1.088   1_455 S
C407   C410    1.450   .     S
C407   O457    1.288   .     A
C407   O459    1.291   .     A
C408   C410    1.413   .     A
C408   C422    1.483   .     S
C409   C433    1.400   .     A
C409   C434    1.413   .     A
C409   C418    1.450   .     S
C410   C432    1.400   .     A
C411   H450    1.082   .     S
C411   N456    1.367   .     A
C411   C1457   1.416   1_554 S
C412   N455    1.367   .     A
C412   H451    1.082   .     S
C412   C936    1.416   .     S
C413   N455    1.367   .     A
C413   H452    1.082   .     S
C413   C933    1.416   .     S
C414   H453    1.082   .     S
C414   N456    1.367   .     A
C414   C1456   1.416   1_554 S
C415   C416    1.404   .     A
C415   C421    1.406   .     A
C415   C434    1.483   .     S
C416   H454    1.083   .     S
C416   C1461   1.399   1_554 S
C417   H438    1.083   .     S
C417   C938    1.399   .     S
C417   C941    1.398   .     S
C418   O458    1.288   .     A
C418   O460    1.291   .     A
C419   C420    1.398   .     A
C419   C1461   1.398   1_554 S
C419   H1483   1.083   1_554 S
C420   H440    1.083   .     S
C420   C421    1.399   .     A
C421   H441    1.083   .     S
C422   C427    1.404   .     A
C422   C423    1.406   .     A
C423   H442    1.083   .     S
C423   C424    1.399   .     A
C424   C425    1.398   .     A
C424   H443    1.083   .     S
C425   C948    1.398   .     S
C425   H966    1.083   .     S
C426   H445    1.083   .     S
C426   C1469   1.398   1_554 S
C426   C1471   1.399   1_554 S
C427   H446    1.083   .     S
C427   C948    1.399   .     S
C428   O463    1.287   .     A
C428   O461    1.285   .     A
C428   C430    1.432   .     S
C429   O464    1.287   .     A
C429   O462    1.285   .     A
C429   C431    1.432   .     S
C431   C488    1.335   .     S
C431   H505    1.088   .     S
C432   H448    1.085   .     S
C433   H449    1.085   .     S
C433   C60     1.387   1_565 S
C434   C84     1.387   1_565 S
Cu435  N455    2.010   .     S
Cu435  O464    1.957   .     S
Cu435  Cu436   2.675   .     S
Cu435  O457    1.962   .     S
Cu435  O460    1.963   .     S
Cu435  O461    1.954   .     S
Cu436  O463    1.957   .     S
Cu436  N456    2.010   .     S
Cu436  O459    1.963   .     S
Cu436  O458    1.962   .     S
Cu436  O462    1.954   .     S
H437   C488    1.088   .     S
H439   C941    1.083   .     S
H444   C1469   1.083   1_554 S
C465   C468    1.450   .     S
C465   O515    1.288   .     A
C465   O517    1.291   .     A
C466   C468    1.413   .     A
C466   C480    1.483   .     S
C467   C491    1.400   .     A
C467   C492    1.413   .     A
C467   C476    1.450   .     S
C468   C490    1.400   .     A
C469   H508    1.082   .     S
C469   N514    1.367   .     A
C469   C1515   1.416   1_554 S
C470   N513    1.367   .     A
C470   H509    1.082   .     S
C470   C994    1.416   .     S
C471   N513    1.367   .     A
C471   H510    1.082   .     S
C471   C991    1.416   .     S
C472   H511    1.082   .     S
C472   N514    1.367   .     A
C472   C1514   1.416   1_554 S
C473   C474    1.404   .     A
C473   C479    1.406   .     A
C473   C492    1.483   .     S
C474   H512    1.083   .     S
C474   C1519   1.399   1_554 S
C475   H496    1.083   .     S
C475   C996    1.399   .     S
C475   C999    1.398   .     S
C476   O516    1.288   .     A
C476   O518    1.291   .     A
C477   C478    1.398   .     A
C477   C1519   1.398   1_554 S
C477   H1541   1.083   1_554 S
C478   H498    1.083   .     S
C478   C479    1.399   .     A
C479   H499    1.083   .     S
C480   C485    1.404   .     A
C480   C481    1.406   .     A
C481   H500    1.083   .     S
C481   C482    1.399   .     A
C482   C483    1.398   .     A
C482   H501    1.083   .     S
C483   C1006   1.398   .     S
C483   H1024   1.083   .     S
C484   H503    1.083   .     S
C484   C1527   1.398   1_554 S
C484   C1529   1.399   1_554 S
C485   H504    1.083   .     S
C485   C1006   1.399   .     S
C486   O521    1.287   .     A
C486   O519    1.285   .     A
C486   C488    1.432   .     S
C487   O522    1.287   .     A
C487   O520    1.285   .     A
C487   C489    1.432   .     S
C489   C372    1.335   1_655 S
C489   H389    1.088   1_655 S
C490   H506    1.085   .     S
C491   H507    1.085   .     S
C491   C118    1.387   1_565 S
C492   C142    1.387   1_565 S
Cu493  N513    2.010   .     S
Cu493  O522    1.957   .     S
Cu493  Cu494   2.675   .     S
Cu493  O515    1.962   .     S
Cu493  O518    1.963   .     S
Cu493  O519    1.954   .     S
Cu494  O521    1.957   .     S
Cu494  N514    2.010   .     S
Cu494  O517    1.963   .     S
Cu494  O516    1.962   .     S
Cu494  O520    1.954   .     S
H495   C372    1.088   1_655 S
H497   C999    1.083   .     S
H502   C1527   1.083   1_554 S
C523   C526    1.450   .     S
C523   O573    1.288   .     A
C523   O575    1.291   .     A
C524   C526    1.413   .     A
C524   C538    1.483   .     S
C524   C897    1.387   1_545 S
C525   C549    1.400   .     A
C525   C550    1.413   .     A
C525   C534    1.450   .     S
C526   C548    1.400   .     A
C527   H566    1.082   .     S
C527   N572    1.367   .     A
C528   N571    1.367   .     A
C528   H567    1.082   .     S
C528   C1052   1.416   .     S
C529   N571    1.367   .     A
C529   H568    1.082   .     S
C529   C1049   1.416   .     S
C530   H569    1.082   .     S
C530   N572    1.367   .     A
C531   C532    1.404   .     A
C531   C537    1.406   .     A
C531   C550    1.483   .     S
C532   H570    1.083   .     S
C533   H554    1.083   .     S
C533   C1054   1.399   .     S
C533   C1057   1.398   .     S
C534   O574    1.288   .     A
C534   O576    1.291   .     A
C535   C536    1.398   .     A
C536   H556    1.083   .     S
C536   C537    1.399   .     A
C537   H557    1.083   .     S
C538   C543    1.404   .     A
C538   C539    1.406   .     A
C539   H558    1.083   .     S
C539   C540    1.399   .     A
C540   C541    1.398   .     A
C540   H559    1.083   .     S
C541   C1064   1.398   .     S
C541   H1082   1.083   .     S
C542   H561    1.083   .     S
C543   H562    1.083   .     S
C543   C1064   1.399   .     S
C544   O579    1.287   .     A
C544   O577    1.285   .     A
C544   C546    1.432   .     S
C545   O580    1.287   .     A
C545   O578    1.285   .     A
C545   C547    1.432   .     S
C546   C663    1.335   1_455 S
C546   H669    1.088   1_455 S
C547   C604    1.335   .     S
C547   H621    1.088   .     S
C548   H564    1.085   .     S
C548   C898    1.387   1_545 S
C549   H565    1.085   .     S
C549   C698    1.387   .     S
C550   C722    1.387   .     S
Cu551  N571    2.010   .     S
Cu551  O580    1.957   .     S
Cu551  Cu552   2.675   .     S
Cu551  O573    1.962   .     S
Cu551  O576    1.963   .     S
Cu551  O577    1.954   .     S
Cu552  O579    1.957   .     S
Cu552  N572    2.010   .     S
Cu552  O575    1.963   .     S
Cu552  O574    1.962   .     S
Cu552  O578    1.954   .     S
H553   C604    1.088   .     S
H555   C1057   1.083   .     S
H563   C663    1.088   1_455 S
C581   C584    1.450   .     S
C581   O631    1.288   .     A
C581   O633    1.291   .     A
C582   C584    1.413   .     A
C582   C596    1.483   .     S
C582   C955    1.387   1_545 S
C583   C607    1.400   .     A
C583   C608    1.413   .     A
C583   C592    1.450   .     S
C584   C606    1.400   .     A
C585   H624    1.082   .     S
C585   N630    1.367   .     A
C586   N629    1.367   .     A
C586   H625    1.082   .     S
C586   C1110   1.416   .     S
C587   N629    1.367   .     A
C587   H626    1.082   .     S
C587   C1107   1.416   .     S
C588   H627    1.082   .     S
C588   N630    1.367   .     A
C589   C590    1.404   .     A
C589   C595    1.406   .     A
C589   C608    1.483   .     S
C590   H628    1.083   .     S
C591   H612    1.083   .     S
C591   C1112   1.399   .     S
C591   C1115   1.398   .     S
C592   O632    1.288   .     A
C592   O634    1.291   .     A
C593   C594    1.398   .     A
C594   H614    1.083   .     S
C594   C595    1.399   .     A
C595   H615    1.083   .     S
C596   C601    1.404   .     A
C596   C597    1.406   .     A
C597   H616    1.083   .     S
C597   C598    1.399   .     A
C598   C599    1.398   .     A
C598   H617    1.083   .     S
C599   C1122   1.398   .     S
C599   H1140   1.083   .     S
C600   H619    1.083   .     S
C601   H620    1.083   .     S
C601   C1122   1.399   .     S
C602   O637    1.287   .     A
C602   O635    1.285   .     A
C602   C604    1.432   .     S
C603   O638    1.287   .     A
C603   O636    1.285   .     A
C603   C605    1.432   .     S
C605   C662    1.335   .     S
C605   H679    1.088   .     S
C606   H622    1.085   .     S
C606   C956    1.387   1_545 S
C607   H623    1.085   .     S
C607   C756    1.387   .     S
C608   C780    1.387   .     S
Cu609  N629    2.010   .     S
Cu609  O638    1.957   .     S
Cu609  Cu610   2.675   .     S
Cu609  O631    1.962   .     S
Cu609  O634    1.963   .     S
Cu609  O635    1.954   .     S
Cu610  O637    1.957   .     S
Cu610  N630    2.010   .     S
Cu610  O633    1.963   .     S
Cu610  O632    1.962   .     S
Cu610  O636    1.954   .     S
H611   C662    1.088   .     S
H613   C1115   1.083   .     S
C639   C642    1.450   .     S
C639   O689    1.288   .     A
C639   O691    1.291   .     A
C640   C642    1.413   .     A
C640   C654    1.483   .     S
C640   C1013   1.387   1_545 S
C641   C665    1.400   .     A
C641   C666    1.413   .     A
C641   C650    1.450   .     S
C642   C664    1.400   .     A
C643   H682    1.082   .     S
C643   N688    1.367   .     A
C644   N687    1.367   .     A
C644   H683    1.082   .     S
C644   C1168   1.416   .     S
C645   N687    1.367   .     A
C645   H684    1.082   .     S
C645   C1165   1.416   .     S
C646   H685    1.082   .     S
C646   N688    1.367   .     A
C647   C648    1.404   .     A
C647   C653    1.406   .     A
C647   C666    1.483   .     S
C648   H686    1.083   .     S
C649   H670    1.083   .     S
C649   C1170   1.399   .     S
C649   C1173   1.398   .     S
C650   O690    1.288   .     A
C650   O692    1.291   .     A
C651   C652    1.398   .     A
C652   H672    1.083   .     S
C652   C653    1.399   .     A
C653   H673    1.083   .     S
C654   C659    1.404   .     A
C654   C655    1.406   .     A
C655   H674    1.083   .     S
C655   C656    1.399   .     A
C656   C657    1.398   .     A
C656   H675    1.083   .     S
C657   C1180   1.398   .     S
C657   H1198   1.083   .     S
C658   H677    1.083   .     S
C659   H678    1.083   .     S
C659   C1180   1.399   .     S
C660   O695    1.287   .     A
C660   O693    1.285   .     A
C660   C662    1.432   .     S
C661   O696    1.287   .     A
C661   O694    1.285   .     A
C661   C663    1.432   .     S
C663   C546    1.335   1_655 S
C663   H563    1.088   1_655 S
C664   H680    1.085   .     S
C664   C1014   1.387   1_545 S
C665   H681    1.085   .     S
C665   C814    1.387   .     S
C666   C838    1.387   .     S
Cu667  N687    2.010   .     S
Cu667  O696    1.957   .     S
Cu667  Cu668   2.675   .     S
Cu667  O689    1.962   .     S
Cu667  O692    1.963   .     S
Cu667  O693    1.954   .     S
Cu668  O695    1.957   .     S
Cu668  N688    2.010   .     S
Cu668  O691    1.963   .     S
Cu668  O690    1.962   .     S
Cu668  O694    1.954   .     S
H669   C546    1.088   1_655 S
H671   C1173   1.083   .     S
C697   C700    1.450   .     S
C697   O747    1.288   .     A
C697   O749    1.291   .     A
C698   C700    1.413   .     A
C698   C712    1.483   .     S
C699   C723    1.400   .     A
C699   C724    1.413   .     A
C699   C708    1.450   .     S
C700   C722    1.400   .     A
C701   H740    1.082   .     S
C701   N746    1.367   .     A
C702   N745    1.367   .     A
C702   H741    1.082   .     S
C702   C1226   1.416   .     S
C703   N745    1.367   .     A
C703   H742    1.082   .     S
C703   C1223   1.416   .     S
C704   H743    1.082   .     S
C704   N746    1.367   .     A
C705   C706    1.404   .     A
C705   C711    1.406   .     A
C705   C724    1.483   .     S
C706   H744    1.083   .     S
C707   H728    1.083   .     S
C707   C1228   1.399   .     S
C707   C1231   1.398   .     S
C708   O748    1.288   .     A
C708   O750    1.291   .     A
C709   C710    1.398   .     A
C710   H730    1.083   .     S
C710   C711    1.399   .     A
C711   H731    1.083   .     S
C712   C717    1.404   .     A
C712   C713    1.406   .     A
C713   H732    1.083   .     S
C713   C714    1.399   .     A
C714   C715    1.398   .     A
C714   H733    1.083   .     S
C715   C1238   1.398   .     S
C715   H1256   1.083   .     S
C716   H735    1.083   .     S
C717   H736    1.083   .     S
C717   C1238   1.399   .     S
C718   O753    1.287   .     A
C718   O751    1.285   .     A
C718   C720    1.432   .     S
C719   O754    1.287   .     A
C719   O752    1.285   .     A
C719   C721    1.432   .     S
C720   C837    1.335   1_455 S
C720   H843    1.088   1_455 S
C721   C778    1.335   .     S
C721   H795    1.088   .     S
C722   H738    1.085   .     S
C723   H739    1.085   .     S
C723   C872    1.387   .     S
C724   C896    1.387   .     S
Cu725  N745    2.010   .     S
Cu725  O754    1.957   .     S
Cu725  Cu726   2.675   .     S
Cu725  O747    1.962   .     S
Cu725  O750    1.963   .     S
Cu725  O751    1.954   .     S
Cu726  O753    1.957   .     S
Cu726  N746    2.010   .     S
Cu726  O749    1.963   .     S
Cu726  O748    1.962   .     S
Cu726  O752    1.954   .     S
H727   C778    1.088   .     S
H729   C1231   1.083   .     S
H737   C837    1.088   1_455 S
C755   C758    1.450   .     S
C755   O805    1.288   .     A
C755   O807    1.291   .     A
C756   C758    1.413   .     A
C756   C770    1.483   .     S
C757   C781    1.400   .     A
C757   C782    1.413   .     A
C757   C766    1.450   .     S
C758   C780    1.400   .     A
C759   H798    1.082   .     S
C759   N804    1.367   .     A
C760   N803    1.367   .     A
C760   H799    1.082   .     S
C760   C1284   1.416   .     S
C761   N803    1.367   .     A
C761   H800    1.082   .     S
C761   C1281   1.416   .     S
C762   H801    1.082   .     S
C762   N804    1.367   .     A
C763   C764    1.404   .     A
C763   C769    1.406   .     A
C763   C782    1.483   .     S
C764   H802    1.083   .     S
C765   H786    1.083   .     S
C765   C1286   1.399   .     S
C765   C1289   1.398   .     S
C766   O806    1.288   .     A
C766   O808    1.291   .     A
C767   C768    1.398   .     A
C768   H788    1.083   .     S
C768   C769    1.399   .     A
C769   H789    1.083   .     S
C770   C775    1.404   .     A
C770   C771    1.406   .     A
C771   H790    1.083   .     S
C771   C772    1.399   .     A
C772   C773    1.398   .     A
C772   H791    1.083   .     S
C773   C1296   1.398   .     S
C773   H1314   1.083   .     S
C774   H793    1.083   .     S
C775   H794    1.083   .     S
C775   C1296   1.399   .     S
C776   O811    1.287   .     A
C776   O809    1.285   .     A
C776   C778    1.432   .     S
C777   O812    1.287   .     A
C777   O810    1.285   .     A
C777   C779    1.432   .     S
C779   C836    1.335   .     S
C779   H853    1.088   .     S
C780   H796    1.085   .     S
C781   H797    1.085   .     S
C781   C930    1.387   .     S
C782   C954    1.387   .     S
Cu783  N803    2.010   .     S
Cu783  O812    1.957   .     S
Cu783  Cu784   2.675   .     S
Cu783  O805    1.962   .     S
Cu783  O808    1.963   .     S
Cu783  O809    1.954   .     S
Cu784  O811    1.957   .     S
Cu784  N804    2.010   .     S
Cu784  O807    1.963   .     S
Cu784  O806    1.962   .     S
Cu784  O810    1.954   .     S
H785   C836    1.088   .     S
H787   C1289   1.083   .     S
C813   C816    1.450   .     S
C813   O863    1.288   .     A
C813   O865    1.291   .     A
C814   C816    1.413   .     A
C814   C828    1.483   .     S
C815   C839    1.400   .     A
C815   C840    1.413   .     A
C815   C824    1.450   .     S
C816   C838    1.400   .     A
C817   H856    1.082   .     S
C817   N862    1.367   .     A
C818   N861    1.367   .     A
C818   H857    1.082   .     S
C818   C1342   1.416   .     S
C819   N861    1.367   .     A
C819   H858    1.082   .     S
C819   C1339   1.416   .     S
C820   H859    1.082   .     S
C820   N862    1.367   .     A
C821   C822    1.404   .     A
C821   C827    1.406   .     A
C821   C840    1.483   .     S
C822   H860    1.083   .     S
C823   H844    1.083   .     S
C823   C1344   1.399   .     S
C823   C1347   1.398   .     S
C824   O864    1.288   .     A
C824   O866    1.291   .     A
C825   C826    1.398   .     A
C826   H846    1.083   .     S
C826   C827    1.399   .     A
C827   H847    1.083   .     S
C828   C833    1.404   .     A
C828   C829    1.406   .     A
C829   H848    1.083   .     S
C829   C830    1.399   .     A
C830   C831    1.398   .     A
C830   H849    1.083   .     S
C831   C1354   1.398   .     S
C831   H1372   1.083   .     S
C832   H851    1.083   .     S
C833   H852    1.083   .     S
C833   C1354   1.399   .     S
C834   O869    1.287   .     A
C834   O867    1.285   .     A
C834   C836    1.432   .     S
C835   O870    1.287   .     A
C835   O868    1.285   .     A
C835   C837    1.432   .     S
C837   C720    1.335   1_655 S
C837   H737    1.088   1_655 S
C838   H854    1.085   .     S
C839   H855    1.085   .     S
C839   C988    1.387   .     S
C840   C1012   1.387   .     S
Cu841  N861    2.010   .     S
Cu841  O870    1.957   .     S
Cu841  Cu842   2.675   .     S
Cu841  O863    1.962   .     S
Cu841  O866    1.963   .     S
Cu841  O867    1.954   .     S
Cu842  O869    1.957   .     S
Cu842  N862    2.010   .     S
Cu842  O865    1.963   .     S
Cu842  O864    1.962   .     S
Cu842  O868    1.954   .     S
H843   C720    1.088   1_655 S
H845   C1347   1.083   .     S
C871   C874    1.450   .     S
C871   O921    1.288   .     A
C871   O923    1.291   .     A
C872   C874    1.413   .     A
C872   C886    1.483   .     S
C873   C897    1.400   .     A
C873   C898    1.413   .     A
C873   C882    1.450   .     S
C874   C896    1.400   .     A
C875   H914    1.082   .     S
C875   N920    1.367   .     A
C876   N919    1.367   .     A
C876   H915    1.082   .     S
C876   C1400   1.416   .     S
C877   N919    1.367   .     A
C877   H916    1.082   .     S
C877   C1397   1.416   .     S
C878   H917    1.082   .     S
C878   N920    1.367   .     A
C879   C880    1.404   .     A
C879   C885    1.406   .     A
C879   C898    1.483   .     S
C880   H918    1.083   .     S
C881   H902    1.083   .     S
C881   C1402   1.399   .     S
C881   C1405   1.398   .     S
C882   O922    1.288   .     A
C882   O924    1.291   .     A
C883   C884    1.398   .     A
C884   H904    1.083   .     S
C884   C885    1.399   .     A
C885   H905    1.083   .     S
C886   C891    1.404   .     A
C886   C887    1.406   .     A
C887   H906    1.083   .     S
C887   C888    1.399   .     A
C888   C889    1.398   .     A
C888   H907    1.083   .     S
C889   C1412   1.398   .     S
C889   H1430   1.083   .     S
C890   H909    1.083   .     S
C891   H910    1.083   .     S
C891   C1412   1.399   .     S
C892   O927    1.287   .     A
C892   O925    1.285   .     A
C892   C894    1.432   .     S
C893   O928    1.287   .     A
C893   O926    1.285   .     A
C893   C895    1.432   .     S
C894   C1011   1.335   1_455 S
C894   H1017   1.088   1_455 S
C895   C952    1.335   .     S
C895   H969    1.088   .     S
C896   H912    1.085   .     S
C897   H913    1.085   .     S
C897   C524    1.387   1_565 S
C898   C548    1.387   1_565 S
Cu899  N919    2.010   .     S
Cu899  O928    1.957   .     S
Cu899  Cu900   2.675   .     S
Cu899  O921    1.962   .     S
Cu899  O924    1.963   .     S
Cu899  O925    1.954   .     S
Cu900  O927    1.957   .     S
Cu900  N920    2.010   .     S
Cu900  O923    1.963   .     S
Cu900  O922    1.962   .     S
Cu900  O926    1.954   .     S
H901   C952    1.088   .     S
H903   C1405   1.083   .     S
H911   C1011   1.088   1_455 S
C929   C932    1.450   .     S
C929   O979    1.288   .     A
C929   O981    1.291   .     A
C930   C932    1.413   .     A
C930   C944    1.483   .     S
C931   C955    1.400   .     A
C931   C956    1.413   .     A
C931   C940    1.450   .     S
C932   C954    1.400   .     A
C933   H972    1.082   .     S
C933   N978    1.367   .     A
C934   N977    1.367   .     A
C934   H973    1.082   .     S
C934   C1458   1.416   .     S
C935   N977    1.367   .     A
C935   H974    1.082   .     S
C935   C1455   1.416   .     S
C936   H975    1.082   .     S
C936   N978    1.367   .     A
C937   C938    1.404   .     A
C937   C943    1.406   .     A
C937   C956    1.483   .     S
C938   H976    1.083   .     S
C939   H960    1.083   .     S
C939   C1460   1.399   .     S
C939   C1463   1.398   .     S
C940   O980    1.288   .     A
C940   O982    1.291   .     A
C941   C942    1.398   .     A
C942   H962    1.083   .     S
C942   C943    1.399   .     A
C943   H963    1.083   .     S
C944   C949    1.404   .     A
C944   C945    1.406   .     A
C945   H964    1.083   .     S
C945   C946    1.399   .     A
C946   C947    1.398   .     A
C946   H965    1.083   .     S
C947   C1470   1.398   .     S
C947   H1488   1.083   .     S
C948   H967    1.083   .     S
C949   H968    1.083   .     S
C949   C1470   1.399   .     S
C950   O985    1.287   .     A
C950   O983    1.285   .     A
C950   C952    1.432   .     S
C951   O986    1.287   .     A
C951   O984    1.285   .     A
C951   C953    1.432   .     S
C953   C1010   1.335   .     S
C953   H1027   1.088   .     S
C954   H970    1.085   .     S
C955   H971    1.085   .     S
C955   C582    1.387   1_565 S
C956   C606    1.387   1_565 S
Cu957  N977    2.010   .     S
Cu957  O986    1.957   .     S
Cu957  Cu958   2.675   .     S
Cu957  O979    1.962   .     S
Cu957  O982    1.963   .     S
Cu957  O983    1.954   .     S
Cu958  O985    1.957   .     S
Cu958  N978    2.010   .     S
Cu958  O981    1.963   .     S
Cu958  O980    1.962   .     S
Cu958  O984    1.954   .     S
H959   C1010   1.088   .     S
H961   C1463   1.083   .     S
C987   C990    1.450   .     S
C987   O1037   1.288   .     A
C987   O1039   1.291   .     A
C988   C990    1.413   .     A
C988   C1002   1.483   .     S
C989   C1013   1.400   .     A
C989   C1014   1.413   .     A
C989   C998    1.450   .     S
C990   C1012   1.400   .     A
C991   H1030   1.082   .     S
C991   N1036   1.367   .     A
C992   N1035   1.367   .     A
C992   H1031   1.082   .     S
C992   C1516   1.416   .     S
C993   N1035   1.367   .     A
C993   H1032   1.082   .     S
C993   C1513   1.416   .     S
C994   H1033   1.082   .     S
C994   N1036   1.367   .     A
C995   C996    1.404   .     A
C995   C1001   1.406   .     A
C995   C1014   1.483   .     S
C996   H1034   1.083   .     S
C997   H1018   1.083   .     S
C997   C1518   1.399   .     S
C997   C1521   1.398   .     S
C998   O1038   1.288   .     A
C998   O1040   1.291   .     A
C999   C1000   1.398   .     A
C1000  H1020   1.083   .     S
C1000  C1001   1.399   .     A
C1001  H1021   1.083   .     S
C1002  C1007   1.404   .     A
C1002  C1003   1.406   .     A
C1003  H1022   1.083   .     S
C1003  C1004   1.399   .     A
C1004  C1005   1.398   .     A
C1004  H1023   1.083   .     S
C1005  C1528   1.398   .     S
C1005  H1546   1.083   .     S
C1006  H1025   1.083   .     S
C1007  H1026   1.083   .     S
C1007  C1528   1.399   .     S
C1008  O1043   1.287   .     A
C1008  O1041   1.285   .     A
C1008  C1010   1.432   .     S
C1009  O1044   1.287   .     A
C1009  O1042   1.285   .     A
C1009  C1011   1.432   .     S
C1011  C894    1.335   1_655 S
C1011  H911    1.088   1_655 S
C1012  H1028   1.085   .     S
C1013  H1029   1.085   .     S
C1013  C640    1.387   1_565 S
C1014  C664    1.387   1_565 S
Cu1015 N1035   2.010   .     S
Cu1015 O1044   1.957   .     S
Cu1015 Cu1016  2.675   .     S
Cu1015 O1037   1.962   .     S
Cu1015 O1040   1.963   .     S
Cu1015 O1041   1.954   .     S
Cu1016 O1043   1.957   .     S
Cu1016 N1036   2.010   .     S
Cu1016 O1039   1.963   .     S
Cu1016 O1038   1.962   .     S
Cu1016 O1042   1.954   .     S
H1017  C894    1.088   1_655 S
H1019  C1521   1.083   .     S
C1045  C1048   1.450   .     S
C1045  O1095   1.288   .     A
C1045  O1097   1.291   .     A
C1046  C1048   1.413   .     A
C1046  C1060   1.483   .     S
C1046  C1419   1.387   1_545 S
C1047  C1071   1.400   .     A
C1047  C1072   1.413   .     A
C1047  C1056   1.450   .     S
C1048  C1070   1.400   .     A
C1049  H1088   1.082   .     S
C1049  N1094   1.367   .     A
C1050  N1093   1.367   .     A
C1050  H1089   1.082   .     S
C1050  C8      1.416   1_556 S
C1051  N1093   1.367   .     A
C1051  H1090   1.082   .     S
C1051  C5      1.416   1_556 S
C1052  H1091   1.082   .     S
C1052  N1094   1.367   .     A
C1053  C1054   1.404   .     A
C1053  C1059   1.406   .     A
C1053  C1072   1.483   .     S
C1054  H1092   1.083   .     S
C1055  H1076   1.083   .     S
C1055  C10     1.399   1_556 S
C1055  C13     1.398   1_556 S
C1056  O1096   1.288   .     A
C1056  O1098   1.291   .     A
C1057  C1058   1.398   .     A
C1058  H1078   1.083   .     S
C1058  C1059   1.399   .     A
C1059  H1079   1.083   .     S
C1060  C1065   1.404   .     A
C1060  C1061   1.406   .     A
C1061  H1080   1.083   .     S
C1061  C1062   1.399   .     A
C1062  C1063   1.398   .     A
C1062  H1081   1.083   .     S
C1063  C20     1.398   1_556 S
C1063  H38     1.083   1_556 S
C1064  H1083   1.083   .     S
C1065  H1084   1.083   .     S
C1065  C20     1.399   1_556 S
C1066  O1101   1.287   .     A
C1066  O1099   1.285   .     A
C1066  C1068   1.432   .     S
C1067  O1102   1.287   .     A
C1067  O1100   1.285   .     A
C1067  C1069   1.432   .     S
C1068  C1185   1.335   1_455 S
C1068  H1191   1.088   1_455 S
C1069  C1126   1.335   .     S
C1069  H1143   1.088   .     S
C1070  H1086   1.085   .     S
C1070  C1420   1.387   1_545 S
C1071  H1087   1.085   .     S
C1071  C1220   1.387   .     S
C1072  C1244   1.387   .     S
Cu1073 N1093   2.010   .     S
Cu1073 O1102   1.957   .     S
Cu1073 Cu1074  2.675   .     S
Cu1073 O1095   1.962   .     S
Cu1073 O1098   1.963   .     S
Cu1073 O1099   1.954   .     S
Cu1074 O1101   1.957   .     S
Cu1074 N1094   2.010   .     S
Cu1074 O1097   1.963   .     S
Cu1074 O1096   1.962   .     S
Cu1074 O1100   1.954   .     S
H1075  C1126   1.088   .     S
H1077  C13     1.083   1_556 S
H1085  C1185   1.088   1_455 S
C1103  C1106   1.450   .     S
C1103  O1153   1.288   .     A
C1103  O1155   1.291   .     A
C1104  C1106   1.413   .     A
C1104  C1118   1.483   .     S
C1104  C1477   1.387   1_545 S
C1105  C1129   1.400   .     A
C1105  C1130   1.413   .     A
C1105  C1114   1.450   .     S
C1106  C1128   1.400   .     A
C1107  H1146   1.082   .     S
C1107  N1152   1.367   .     A
C1108  N1151   1.367   .     A
C1108  H1147   1.082   .     S
C1108  C66     1.416   1_556 S
C1109  N1151   1.367   .     A
C1109  H1148   1.082   .     S
C1109  C63     1.416   1_556 S
C1110  H1149   1.082   .     S
C1110  N1152   1.367   .     A
C1111  C1112   1.404   .     A
C1111  C1117   1.406   .     A
C1111  C1130   1.483   .     S
C1112  H1150   1.083   .     S
C1113  H1134   1.083   .     S
C1113  C68     1.399   1_556 S
C1113  C71     1.398   1_556 S
C1114  O1154   1.288   .     A
C1114  O1156   1.291   .     A
C1115  C1116   1.398   .     A
C1116  H1136   1.083   .     S
C1116  C1117   1.399   .     A
C1117  H1137   1.083   .     S
C1118  C1123   1.404   .     A
C1118  C1119   1.406   .     A
C1119  H1138   1.083   .     S
C1119  C1120   1.399   .     A
C1120  C1121   1.398   .     A
C1120  H1139   1.083   .     S
C1121  C78     1.398   1_556 S
C1121  H96     1.083   1_556 S
C1122  H1141   1.083   .     S
C1123  H1142   1.083   .     S
C1123  C78     1.399   1_556 S
C1124  O1159   1.287   .     A
C1124  O1157   1.285   .     A
C1124  C1126   1.432   .     S
C1125  O1160   1.287   .     A
C1125  O1158   1.285   .     A
C1125  C1127   1.432   .     S
C1127  C1184   1.335   .     S
C1127  H1201   1.088   .     S
C1128  H1144   1.085   .     S
C1128  C1478   1.387   1_545 S
C1129  H1145   1.085   .     S
C1129  C1278   1.387   .     S
C1130  C1302   1.387   .     S
Cu1131 N1151   2.010   .     S
Cu1131 O1160   1.957   .     S
Cu1131 Cu1132  2.675   .     S
Cu1131 O1153   1.962   .     S
Cu1131 O1156   1.963   .     S
Cu1131 O1157   1.954   .     S
Cu1132 O1159   1.957   .     S
Cu1132 N1152   2.010   .     S
Cu1132 O1155   1.963   .     S
Cu1132 O1154   1.962   .     S
Cu1132 O1158   1.954   .     S
H1133  C1184   1.088   .     S
H1135  C71     1.083   1_556 S
C1161  C1164   1.450   .     S
C1161  O1211   1.288   .     A
C1161  O1213   1.291   .     A
C1162  C1164   1.413   .     A
C1162  C1176   1.483   .     S
C1162  C1535   1.387   1_545 S
C1163  C1187   1.400   .     A
C1163  C1188   1.413   .     A
C1163  C1172   1.450   .     S
C1164  C1186   1.400   .     A
C1165  H1204   1.082   .     S
C1165  N1210   1.367   .     A
C1166  N1209   1.367   .     A
C1166  H1205   1.082   .     S
C1166  C124    1.416   1_556 S
C1167  N1209   1.367   .     A
C1167  H1206   1.082   .     S
C1167  C121    1.416   1_556 S
C1168  H1207   1.082   .     S
C1168  N1210   1.367   .     A
C1169  C1170   1.404   .     A
C1169  C1175   1.406   .     A
C1169  C1188   1.483   .     S
C1170  H1208   1.083   .     S
C1171  H1192   1.083   .     S
C1171  C126    1.399   1_556 S
C1171  C129    1.398   1_556 S
C1172  O1212   1.288   .     A
C1172  O1214   1.291   .     A
C1173  C1174   1.398   .     A
C1174  H1194   1.083   .     S
C1174  C1175   1.399   .     A
C1175  H1195   1.083   .     S
C1176  C1181   1.404   .     A
C1176  C1177   1.406   .     A
C1177  H1196   1.083   .     S
C1177  C1178   1.399   .     A
C1178  C1179   1.398   .     A
C1178  H1197   1.083   .     S
C1179  C136    1.398   1_556 S
C1179  H154    1.083   1_556 S
C1180  H1199   1.083   .     S
C1181  H1200   1.083   .     S
C1181  C136    1.399   1_556 S
C1182  O1217   1.287   .     A
C1182  O1215   1.285   .     A
C1182  C1184   1.432   .     S
C1183  O1218   1.287   .     A
C1183  O1216   1.285   .     A
C1183  C1185   1.432   .     S
C1185  C1068   1.335   1_655 S
C1185  H1085   1.088   1_655 S
C1186  H1202   1.085   .     S
C1186  C1536   1.387   1_545 S
C1187  H1203   1.085   .     S
C1187  C1336   1.387   .     S
C1188  C1360   1.387   .     S
Cu1189 N1209   2.010   .     S
Cu1189 O1218   1.957   .     S
Cu1189 Cu1190  2.675   .     S
Cu1189 O1211   1.962   .     S
Cu1189 O1214   1.963   .     S
Cu1189 O1215   1.954   .     S
Cu1190 O1217   1.957   .     S
Cu1190 N1210   2.010   .     S
Cu1190 O1213   1.963   .     S
Cu1190 O1212   1.962   .     S
Cu1190 O1216   1.954   .     S
H1191  C1068   1.088   1_655 S
H1193  C129    1.083   1_556 S
C1219  C1222   1.450   .     S
C1219  O1269   1.288   .     A
C1219  O1271   1.291   .     A
C1220  C1222   1.413   .     A
C1220  C1234   1.483   .     S
C1221  C1245   1.400   .     A
C1221  C1246   1.413   .     A
C1221  C1230   1.450   .     S
C1222  C1244   1.400   .     A
C1223  H1262   1.082   .     S
C1223  N1268   1.367   .     A
C1224  N1267   1.367   .     A
C1224  H1263   1.082   .     S
C1224  C182    1.416   1_556 S
C1225  N1267   1.367   .     A
C1225  H1264   1.082   .     S
C1225  C179    1.416   1_556 S
C1226  H1265   1.082   .     S
C1226  N1268   1.367   .     A
C1227  C1228   1.404   .     A
C1227  C1233   1.406   .     A
C1227  C1246   1.483   .     S
C1228  H1266   1.083   .     S
C1229  H1250   1.083   .     S
C1229  C184    1.399   1_556 S
C1229  C187    1.398   1_556 S
C1230  O1270   1.288   .     A
C1230  O1272   1.291   .     A
C1231  C1232   1.398   .     A
C1232  H1252   1.083   .     S
C1232  C1233   1.399   .     A
C1233  H1253   1.083   .     S
C1234  C1239   1.404   .     A
C1234  C1235   1.406   .     A
C1235  H1254   1.083   .     S
C1235  C1236   1.399   .     A
C1236  C1237   1.398   .     A
C1236  H1255   1.083   .     S
C1237  C194    1.398   1_556 S
C1237  H212    1.083   1_556 S
C1238  H1257   1.083   .     S
C1239  H1258   1.083   .     S
C1239  C194    1.399   1_556 S
C1240  O1275   1.287   .     A
C1240  O1273   1.285   .     A
C1240  C1242   1.432   .     S
C1241  O1276   1.287   .     A
C1241  O1274   1.285   .     A
C1241  C1243   1.432   .     S
C1242  C1359   1.335   1_455 S
C1242  H1365   1.088   1_455 S
C1243  C1300   1.335   .     S
C1243  H1317   1.088   .     S
C1244  H1260   1.085   .     S
C1245  H1261   1.085   .     S
C1245  C1394   1.387   .     S
C1246  C1418   1.387   .     S
Cu1247 N1267   2.010   .     S
Cu1247 O1276   1.957   .     S
Cu1247 Cu1248  2.675   .     S
Cu1247 O1269   1.962   .     S
Cu1247 O1272   1.963   .     S
Cu1247 O1273   1.954   .     S
Cu1248 O1275   1.957   .     S
Cu1248 N1268   2.010   .     S
Cu1248 O1271   1.963   .     S
Cu1248 O1270   1.962   .     S
Cu1248 O1274   1.954   .     S
H1249  C1300   1.088   .     S
H1251  C187    1.083   1_556 S
H1259  C1359   1.088   1_455 S
C1277  C1280   1.450   .     S
C1277  O1327   1.288   .     A
C1277  O1329   1.291   .     A
C1278  C1280   1.413   .     A
C1278  C1292   1.483   .     S
C1279  C1303   1.400   .     A
C1279  C1304   1.413   .     A
C1279  C1288   1.450   .     S
C1280  C1302   1.400   .     A
C1281  H1320   1.082   .     S
C1281  N1326   1.367   .     A
C1282  N1325   1.367   .     A
C1282  H1321   1.082   .     S
C1282  C240    1.416   1_556 S
C1283  N1325   1.367   .     A
C1283  H1322   1.082   .     S
C1283  C237    1.416   1_556 S
C1284  H1323   1.082   .     S
C1284  N1326   1.367   .     A
C1285  C1286   1.404   .     A
C1285  C1291   1.406   .     A
C1285  C1304   1.483   .     S
C1286  H1324   1.083   .     S
C1287  H1308   1.083   .     S
C1287  C242    1.399   1_556 S
C1287  C245    1.398   1_556 S
C1288  O1328   1.288   .     A
C1288  O1330   1.291   .     A
C1289  C1290   1.398   .     A
C1290  H1310   1.083   .     S
C1290  C1291   1.399   .     A
C1291  H1311   1.083   .     S
C1292  C1297   1.404   .     A
C1292  C1293   1.406   .     A
C1293  H1312   1.083   .     S
C1293  C1294   1.399   .     A
C1294  C1295   1.398   .     A
C1294  H1313   1.083   .     S
C1295  C252    1.398   1_556 S
C1295  H270    1.083   1_556 S
C1296  H1315   1.083   .     S
C1297  H1316   1.083   .     S
C1297  C252    1.399   1_556 S
C1298  O1333   1.287   .     A
C1298  O1331   1.285   .     A
C1298  C1300   1.432   .     S
C1299  O1334   1.287   .     A
C1299  O1332   1.285   .     A
C1299  C1301   1.432   .     S
C1301  C1358   1.335   .     S
C1301  H1375   1.088   .     S
C1302  H1318   1.085   .     S
C1303  H1319   1.085   .     S
C1303  C1452   1.387   .     S
C1304  C1476   1.387   .     S
Cu1305 N1325   2.010   .     S
Cu1305 O1334   1.957   .     S
Cu1305 Cu1306  2.675   .     S
Cu1305 O1327   1.962   .     S
Cu1305 O1330   1.963   .     S
Cu1305 O1331   1.954   .     S
Cu1306 O1333   1.957   .     S
Cu1306 N1326   2.010   .     S
Cu1306 O1329   1.963   .     S
Cu1306 O1328   1.962   .     S
Cu1306 O1332   1.954   .     S
H1307  C1358   1.088   .     S
H1309  C245    1.083   1_556 S
C1335  C1338   1.450   .     S
C1335  O1385   1.288   .     A
C1335  O1387   1.291   .     A
C1336  C1338   1.413   .     A
C1336  C1350   1.483   .     S
C1337  C1361   1.400   .     A
C1337  C1362   1.413   .     A
C1337  C1346   1.450   .     S
C1338  C1360   1.400   .     A
C1339  H1378   1.082   .     S
C1339  N1384   1.367   .     A
C1340  N1383   1.367   .     A
C1340  H1379   1.082   .     S
C1340  C298    1.416   1_556 S
C1341  N1383   1.367   .     A
C1341  H1380   1.082   .     S
C1341  C295    1.416   1_556 S
C1342  H1381   1.082   .     S
C1342  N1384   1.367   .     A
C1343  C1344   1.404   .     A
C1343  C1349   1.406   .     A
C1343  C1362   1.483   .     S
C1344  H1382   1.083   .     S
C1345  H1366   1.083   .     S
C1345  C300    1.399   1_556 S
C1345  C303    1.398   1_556 S
C1346  O1386   1.288   .     A
C1346  O1388   1.291   .     A
C1347  C1348   1.398   .     A
C1348  H1368   1.083   .     S
C1348  C1349   1.399   .     A
C1349  H1369   1.083   .     S
C1350  C1355   1.404   .     A
C1350  C1351   1.406   .     A
C1351  H1370   1.083   .     S
C1351  C1352   1.399   .     A
C1352  C1353   1.398   .     A
C1352  H1371   1.083   .     S
C1353  C310    1.398   1_556 S
C1353  H328    1.083   1_556 S
C1354  H1373   1.083   .     S
C1355  H1374   1.083   .     S
C1355  C310    1.399   1_556 S
C1356  O1391   1.287   .     A
C1356  O1389   1.285   .     A
C1356  C1358   1.432   .     S
C1357  O1392   1.287   .     A
C1357  O1390   1.285   .     A
C1357  C1359   1.432   .     S
C1359  C1242   1.335   1_655 S
C1359  H1259   1.088   1_655 S
C1360  H1376   1.085   .     S
C1361  H1377   1.085   .     S
C1361  C1510   1.387   .     S
C1362  C1534   1.387   .     S
Cu1363 N1383   2.010   .     S
Cu1363 O1392   1.957   .     S
Cu1363 Cu1364  2.675   .     S
Cu1363 O1385   1.962   .     S
Cu1363 O1388   1.963   .     S
Cu1363 O1389   1.954   .     S
Cu1364 O1391   1.957   .     S
Cu1364 N1384   2.010   .     S
Cu1364 O1387   1.963   .     S
Cu1364 O1386   1.962   .     S
Cu1364 O1390   1.954   .     S
H1365  C1242   1.088   1_655 S
H1367  C303    1.083   1_556 S
C1393  C1396   1.450   .     S
C1393  O1443   1.288   .     A
C1393  O1445   1.291   .     A
C1394  C1396   1.413   .     A
C1394  C1408   1.483   .     S
C1395  C1419   1.400   .     A
C1395  C1420   1.413   .     A
C1395  C1404   1.450   .     S
C1396  C1418   1.400   .     A
C1397  H1436   1.082   .     S
C1397  N1442   1.367   .     A
C1398  N1441   1.367   .     A
C1398  H1437   1.082   .     S
C1398  C356    1.416   1_556 S
C1399  N1441   1.367   .     A
C1399  H1438   1.082   .     S
C1399  C353    1.416   1_556 S
C1400  H1439   1.082   .     S
C1400  N1442   1.367   .     A
C1401  C1402   1.404   .     A
C1401  C1407   1.406   .     A
C1401  C1420   1.483   .     S
C1402  H1440   1.083   .     S
C1403  H1424   1.083   .     S
C1403  C358    1.399   1_556 S
C1403  C361    1.398   1_556 S
C1404  O1444   1.288   .     A
C1404  O1446   1.291   .     A
C1405  C1406   1.398   .     A
C1406  H1426   1.083   .     S
C1406  C1407   1.399   .     A
C1407  H1427   1.083   .     S
C1408  C1413   1.404   .     A
C1408  C1409   1.406   .     A
C1409  H1428   1.083   .     S
C1409  C1410   1.399   .     A
C1410  C1411   1.398   .     A
C1410  H1429   1.083   .     S
C1411  C368    1.398   1_556 S
C1411  H386    1.083   1_556 S
C1412  H1431   1.083   .     S
C1413  H1432   1.083   .     S
C1413  C368    1.399   1_556 S
C1414  O1449   1.287   .     A
C1414  O1447   1.285   .     A
C1414  C1416   1.432   .     S
C1415  O1450   1.287   .     A
C1415  O1448   1.285   .     A
C1415  C1417   1.432   .     S
C1416  C1533   1.335   1_455 S
C1416  H1539   1.088   1_455 S
C1417  C1474   1.335   .     S
C1417  H1491   1.088   .     S
C1418  H1434   1.085   .     S
C1419  H1435   1.085   .     S
C1419  C1046   1.387   1_565 S
C1420  C1070   1.387   1_565 S
Cu1421 N1441   2.010   .     S
Cu1421 O1450   1.957   .     S
Cu1421 Cu1422  2.675   .     S
Cu1421 O1443   1.962   .     S
Cu1421 O1446   1.963   .     S
Cu1421 O1447   1.954   .     S
Cu1422 O1449   1.957   .     S
Cu1422 N1442   2.010   .     S
Cu1422 O1445   1.963   .     S
Cu1422 O1444   1.962   .     S
Cu1422 O1448   1.954   .     S
H1423  C1474   1.088   .     S
H1425  C361    1.083   1_556 S
H1433  C1533   1.088   1_455 S
C1451  C1454   1.450   .     S
C1451  O1501   1.288   .     A
C1451  O1503   1.291   .     A
C1452  C1454   1.413   .     A
C1452  C1466   1.483   .     S
C1453  C1477   1.400   .     A
C1453  C1478   1.413   .     A
C1453  C1462   1.450   .     S
C1454  C1476   1.400   .     A
C1455  H1494   1.082   .     S
C1455  N1500   1.367   .     A
C1456  N1499   1.367   .     A
C1456  H1495   1.082   .     S
C1456  C414    1.416   1_556 S
C1457  N1499   1.367   .     A
C1457  H1496   1.082   .     S
C1457  C411    1.416   1_556 S
C1458  H1497   1.082   .     S
C1458  N1500   1.367   .     A
C1459  C1460   1.404   .     A
C1459  C1465   1.406   .     A
C1459  C1478   1.483   .     S
C1460  H1498   1.083   .     S
C1461  H1482   1.083   .     S
C1461  C416    1.399   1_556 S
C1461  C419    1.398   1_556 S
C1462  O1502   1.288   .     A
C1462  O1504   1.291   .     A
C1463  C1464   1.398   .     A
C1464  H1484   1.083   .     S
C1464  C1465   1.399   .     A
C1465  H1485   1.083   .     S
C1466  C1471   1.404   .     A
C1466  C1467   1.406   .     A
C1467  H1486   1.083   .     S
C1467  C1468   1.399   .     A
C1468  C1469   1.398   .     A
C1468  H1487   1.083   .     S
C1469  C426    1.398   1_556 S
C1469  H444    1.083   1_556 S
C1470  H1489   1.083   .     S
C1471  H1490   1.083   .     S
C1471  C426    1.399   1_556 S
C1472  O1507   1.287   .     A
C1472  O1505   1.285   .     A
C1472  C1474   1.432   .     S
C1473  O1508   1.287   .     A
C1473  O1506   1.285   .     A
C1473  C1475   1.432   .     S
C1475  C1532   1.335   .     S
C1475  H1549   1.088   .     S
C1476  H1492   1.085   .     S
C1477  H1493   1.085   .     S
C1477  C1104   1.387   1_565 S
C1478  C1128   1.387   1_565 S
Cu1479 N1499   2.010   .     S
Cu1479 O1508   1.957   .     S
Cu1479 Cu1480  2.675   .     S
Cu1479 O1501   1.962   .     S
Cu1479 O1504   1.963   .     S
Cu1479 O1505   1.954   .     S
Cu1480 O1507   1.957   .     S
Cu1480 N1500   2.010   .     S
Cu1480 O1503   1.963   .     S
Cu1480 O1502   1.962   .     S
Cu1480 O1506   1.954   .     S
H1481  C1532   1.088   .     S
H1483  C419    1.083   1_556 S
C1509  C1512   1.450   .     S
C1509  O1559   1.288   .     A
C1509  O1561   1.291   .     A
C1510  C1512   1.413   .     A
C1510  C1524   1.483   .     S
C1511  C1535   1.400   .     A
C1511  C1536   1.413   .     A
C1511  C1520   1.450   .     S
C1512  C1534   1.400   .     A
C1513  H1552   1.082   .     S
C1513  N1558   1.367   .     A
C1514  N1557   1.367   .     A
C1514  H1553   1.082   .     S
C1514  C472    1.416   1_556 S
C1515  N1557   1.367   .     A
C1515  H1554   1.082   .     S
C1515  C469    1.416   1_556 S
C1516  H1555   1.082   .     S
C1516  N1558   1.367   .     A
C1517  C1518   1.404   .     A
C1517  C1523   1.406   .     A
C1517  C1536   1.483   .     S
C1518  H1556   1.083   .     S
C1519  H1540   1.083   .     S
C1519  C474    1.399   1_556 S
C1519  C477    1.398   1_556 S
C1520  O1560   1.288   .     A
C1520  O1562   1.291   .     A
C1521  C1522   1.398   .     A
C1522  H1542   1.083   .     S
C1522  C1523   1.399   .     A
C1523  H1543   1.083   .     S
C1524  C1529   1.404   .     A
C1524  C1525   1.406   .     A
C1525  H1544   1.083   .     S
C1525  C1526   1.399   .     A
C1526  C1527   1.398   .     A
C1526  H1545   1.083   .     S
C1527  C484    1.398   1_556 S
C1527  H502    1.083   1_556 S
C1528  H1547   1.083   .     S
C1529  H1548   1.083   .     S
C1529  C484    1.399   1_556 S
C1530  O1565   1.287   .     A
C1530  O1563   1.285   .     A
C1530  C1532   1.432   .     S
C1531  O1566   1.287   .     A
C1531  O1564   1.285   .     A
C1531  C1533   1.432   .     S
C1533  C1416   1.335   1_655 S
C1533  H1433   1.088   1_655 S
C1534  H1550   1.085   .     S
C1535  H1551   1.085   .     S
C1535  C1162   1.387   1_565 S
C1536  C1186   1.387   1_565 S
Cu1537 N1557   2.010   .     S
Cu1537 O1566   1.957   .     S
Cu1537 Cu1538  2.675   .     S
Cu1537 O1559   1.962   .     S
Cu1537 O1562   1.963   .     S
Cu1537 O1563   1.954   .     S
Cu1538 O1565   1.957   .     S
Cu1538 N1558   2.010   .     S
Cu1538 O1561   1.963   .     S
Cu1538 O1560   1.962   .     S
Cu1538 O1564   1.954   .     S
H1539  C1416   1.088   1_655 S
H1541  C477    1.083   1_556 S
