data_str_m2_o1_o16_pcu_sym.28
_audit_creation_date              2020-01-03
_audit_creation_method            'Materials Studio'
_symmetry_space_group_name_H-M    'P1'
_symmetry_Int_Tables_number       1
_symmetry_cell_setting            triclinic
loop_
_symmetry_equiv_pos_as_xyz
  x,y,z
_cell_length_a                    28.6679
_cell_length_b                    32.4131
_cell_length_c                    26.8829
_cell_angle_alpha                 91.5273
_cell_angle_beta                  71.9588
_cell_angle_gamma                 89.4144
loop_
_atom_site_label
_atom_site_type_symbol
_atom_site_fract_x
_atom_site_fract_y
_atom_site_fract_z
_atom_site_U_iso_or_equiv
_atom_site_adp_type
_atom_site_occupancy
O1     O     0.12708   0.22678   0.25000   0.00000  Uiso   1.00
O2     O     0.20627   0.22679   0.25000   0.00000  Uiso   1.00
C3     C     0.16637   0.24593   0.25046   0.00000  Uiso   1.00
O4     O     0.10775   0.16665   0.32549   0.00000  Uiso   1.00
O5     O     0.18694   0.16666   0.32549   0.00000  Uiso   1.00
C6     C     0.14035   0.16457   0.35006   0.00000  Uiso   1.00
Cu7    Cu    0.11978   0.16666   0.25000   0.00000  Uiso   1.00
Cu8    Cu    0.21355   0.16667   0.25000   0.00000  Uiso   1.00
O9     O     0.12706   0.10654   0.24999   0.00000  Uiso   1.00
O10    O     0.20625   0.10655   0.24999   0.00000  Uiso   1.00
O11    O     0.14640   0.16667   0.17451   0.00000  Uiso   1.00
O12    O     0.22559   0.16668   0.17451   0.00000  Uiso   1.00
C13    C     0.16660   0.08742   0.25053   0.00000  Uiso   1.00
C14    C     0.19307   0.16671   0.14980   0.00000  Uiso   1.00
C15    C     0.26545   0.13681   0.01095   0.00000  Uiso   1.00
H16    H     0.28382   0.14484   0.08173   0.00000  Uiso   1.00
H17    H     0.30160   0.12415   0.49077   0.00000  Uiso   1.00
C18    C     0.20833   0.16255   0.09244   0.00000  Uiso   1.00
C19    C     0.07685   0.17732   0.43555   0.00000  Uiso   1.00
C20    C     0.06258   0.18204   0.48960   0.00000  Uiso   1.00
C21    C     0.09610   0.17478   0.01645   0.00000  Uiso   1.00
C22    C     0.14475   0.16088   0.48961   0.00000  Uiso   1.00
C23    C     0.15695   0.15100   0.43542   0.00000  Uiso   1.00
C24    C     0.18163   0.15646   0.01463   0.00000  Uiso   1.00
C25    C     0.22894   0.13994   0.48605   0.00000  Uiso   1.00
C26    C     0.23792   0.12538   0.43404   0.00000  Uiso   1.00
C27    C     0.20134   0.12949   0.41038   0.00000  Uiso   1.00
C28    C     0.17289   0.16837   0.06737   0.00000  Uiso   1.00
C29    C     0.25535   0.14847   0.06347   0.00000  Uiso   1.00
C30    C     0.12421   0.16277   0.40768   0.00000  Uiso   1.00
H31    H     0.13832   0.18188   0.09048   0.00000  Uiso   1.00
H32    H     0.05108   0.18617   0.41542   0.00000  Uiso   1.00
H33    H     0.08228   0.17988   0.05822   0.00000  Uiso   1.00
H34    H     0.02574   0.19292   0.01075   0.00000  Uiso   1.00
H35    H     0.20850   0.11553   0.37174   0.00000  Uiso   1.00
C36    C     0.19957   0.31207   0.26987   0.00000  Uiso   1.00
H37    H     0.22553   0.29589   0.28468   0.00000  Uiso   1.00
C38    C     0.19940   0.02146   0.27031   0.00000  Uiso   1.00
H39    H     0.22460   0.03776   0.28623   0.00000  Uiso   1.00
C40    C     0.16626   0.04281   0.25116   0.00000  Uiso   1.00
C41    C     0.13215   0.02133   0.23315   0.00000  Uiso   1.00
H42    H     0.10614   0.03748   0.21838   0.00000  Uiso   1.00
C43    C     0.13184   0.31197   0.23340   0.00000  Uiso   1.00
H44    H     0.10562   0.29573   0.21885   0.00000  Uiso   1.00
C45    C     0.16588   0.29058   0.25125   0.00000  Uiso   1.00
C46    C     0.29936   0.19462   0.28030   0.00000  Uiso   1.00
H47    H     0.27342   0.21694   0.30479   0.00000  Uiso   1.00
C48    C     0.01550   0.19447   0.28046   0.00000  Uiso   1.00
H49    H     0.02666   0.21671   0.30506   0.00000  Uiso   1.00
N50    N     0.04931   0.16666   0.24998   0.00000  Uiso   1.00
C51    C     0.03490   0.13916   0.21969   0.00000  Uiso   1.00
H52    H     0.06192   0.11689   0.19677   0.00000  Uiso   1.00
C53    C     0.31917   0.13830   0.21911   0.00000  Uiso   1.00
N54    N     0.28402   0.16669   0.24999   0.00000  Uiso   1.00
S55    S     0.30915   0.09462   0.18159   0.00000  Uiso   1.00
O56    O     0.02128   0.08748   0.13555   0.00000  Uiso   1.00
O57    O     0.30360   0.05789   0.21572   0.00000  Uiso   1.00
O58    O     0.26203   0.09594   0.15729   0.00000  Uiso   1.00
H59    H     0.26084   0.06777   0.14254   0.00000  Uiso   1.00
N60    N     0.28408   0.10667   0.40414   0.00000  Uiso   1.00
O61    O     0.28478   0.07285   0.37671   0.00000  Uiso   1.00
O62    O     0.32412   0.12765   0.39526   0.00000  Uiso   1.00
O63    O     0.46042   0.22678   0.25000   0.00000  Uiso   1.00
O64    O     0.53961   0.22679   0.25000   0.00000  Uiso   1.00
C65    C     0.49970   0.24593   0.25046   0.00000  Uiso   1.00
O66    O     0.44108   0.16665   0.32549   0.00000  Uiso   1.00
O67    O     0.52027   0.16666   0.32549   0.00000  Uiso   1.00
C68    C     0.47368   0.16457   0.35006   0.00000  Uiso   1.00
Cu69   Cu    0.45311   0.16666   0.25000   0.00000  Uiso   1.00
Cu70   Cu    0.54689   0.16667   0.25000   0.00000  Uiso   1.00
O71    O     0.46039   0.10654   0.24999   0.00000  Uiso   1.00
O72    O     0.53958   0.10655   0.24999   0.00000  Uiso   1.00
O73    O     0.47973   0.16667   0.17451   0.00000  Uiso   1.00
O74    O     0.55892   0.16668   0.17451   0.00000  Uiso   1.00
C75    C     0.49993   0.08742   0.25053   0.00000  Uiso   1.00
C76    C     0.52640   0.16671   0.14980   0.00000  Uiso   1.00
C77    C     0.59878   0.13681   0.01095   0.00000  Uiso   1.00
H78    H     0.61716   0.14484   0.08173   0.00000  Uiso   1.00
H79    H     0.63493   0.12415   0.49077   0.00000  Uiso   1.00
C80    C     0.54166   0.16255   0.09244   0.00000  Uiso   1.00
C81    C     0.41018   0.17732   0.43555   0.00000  Uiso   1.00
C82    C     0.39591   0.18204   0.48960   0.00000  Uiso   1.00
C83    C     0.42943   0.17478   0.01645   0.00000  Uiso   1.00
C84    C     0.47809   0.16088   0.48961   0.00000  Uiso   1.00
C85    C     0.49028   0.15100   0.43542   0.00000  Uiso   1.00
C86    C     0.51496   0.15646   0.01463   0.00000  Uiso   1.00
C87    C     0.56227   0.13994   0.48605   0.00000  Uiso   1.00
C88    C     0.57126   0.12538   0.43404   0.00000  Uiso   1.00
C89    C     0.53468   0.12949   0.41038   0.00000  Uiso   1.00
C90    C     0.50622   0.16837   0.06737   0.00000  Uiso   1.00
C91    C     0.58868   0.14847   0.06347   0.00000  Uiso   1.00
C92    C     0.45755   0.16277   0.40768   0.00000  Uiso   1.00
H93    H     0.47165   0.18188   0.09048   0.00000  Uiso   1.00
H94    H     0.38441   0.18617   0.41542   0.00000  Uiso   1.00
H95    H     0.41561   0.17988   0.05822   0.00000  Uiso   1.00
H96    H     0.35907   0.19292   0.01075   0.00000  Uiso   1.00
H97    H     0.54183   0.11553   0.37174   0.00000  Uiso   1.00
C98    C     0.53290   0.31207   0.26987   0.00000  Uiso   1.00
H99    H     0.55886   0.29589   0.28468   0.00000  Uiso   1.00
C100   C     0.53273   0.02146   0.27031   0.00000  Uiso   1.00
H101   H     0.55793   0.03776   0.28623   0.00000  Uiso   1.00
C102   C     0.49959   0.04281   0.25116   0.00000  Uiso   1.00
C103   C     0.46549   0.02133   0.23315   0.00000  Uiso   1.00
H104   H     0.43947   0.03748   0.21838   0.00000  Uiso   1.00
C105   C     0.46517   0.31197   0.23340   0.00000  Uiso   1.00
H106   H     0.43896   0.29573   0.21885   0.00000  Uiso   1.00
C107   C     0.49921   0.29058   0.25125   0.00000  Uiso   1.00
C108   C     0.63269   0.19462   0.28030   0.00000  Uiso   1.00
H109   H     0.60675   0.21694   0.30479   0.00000  Uiso   1.00
C110   C     0.34883   0.19447   0.28046   0.00000  Uiso   1.00
H111   H     0.35999   0.21671   0.30506   0.00000  Uiso   1.00
N112   N     0.38265   0.16666   0.24998   0.00000  Uiso   1.00
C113   C     0.36823   0.13916   0.21969   0.00000  Uiso   1.00
H114   H     0.39525   0.11689   0.19677   0.00000  Uiso   1.00
C115   C     0.65250   0.13830   0.21911   0.00000  Uiso   1.00
N116   N     0.61735   0.16669   0.24999   0.00000  Uiso   1.00
S117   S     0.64249   0.09462   0.18159   0.00000  Uiso   1.00
O118   O     0.35461   0.08748   0.13555   0.00000  Uiso   1.00
O119   O     0.63693   0.05789   0.21572   0.00000  Uiso   1.00
O120   O     0.59537   0.09594   0.15729   0.00000  Uiso   1.00
H121   H     0.59417   0.06777   0.14254   0.00000  Uiso   1.00
N122   N     0.61741   0.10667   0.40414   0.00000  Uiso   1.00
O123   O     0.61811   0.07285   0.37671   0.00000  Uiso   1.00
O124   O     0.65746   0.12765   0.39526   0.00000  Uiso   1.00
O125   O     0.79375   0.22678   0.25000   0.00000  Uiso   1.00
O126   O     0.87294   0.22679   0.25000   0.00000  Uiso   1.00
C127   C     0.83304   0.24593   0.25046   0.00000  Uiso   1.00
O128   O     0.77441   0.16665   0.32549   0.00000  Uiso   1.00
O129   O     0.85360   0.16666   0.32549   0.00000  Uiso   1.00
C130   C     0.80701   0.16457   0.35006   0.00000  Uiso   1.00
Cu131  Cu    0.78645   0.16666   0.25000   0.00000  Uiso   1.00
Cu132  Cu    0.88022   0.16667   0.25000   0.00000  Uiso   1.00
O133   O     0.79373   0.10654   0.24999   0.00000  Uiso   1.00
O134   O     0.87292   0.10655   0.24999   0.00000  Uiso   1.00
O135   O     0.81306   0.16667   0.17451   0.00000  Uiso   1.00
O136   O     0.89225   0.16668   0.17451   0.00000  Uiso   1.00
C137   C     0.83326   0.08742   0.25053   0.00000  Uiso   1.00
C138   C     0.85973   0.16671   0.14980   0.00000  Uiso   1.00
C139   C     0.93211   0.13681   0.01095   0.00000  Uiso   1.00
H140   H     0.95049   0.14484   0.08173   0.00000  Uiso   1.00
H141   H     0.96826   0.12415   0.49077   0.00000  Uiso   1.00
C142   C     0.87499   0.16255   0.09244   0.00000  Uiso   1.00
C143   C     0.74351   0.17732   0.43555   0.00000  Uiso   1.00
C144   C     0.72924   0.18204   0.48960   0.00000  Uiso   1.00
C145   C     0.76276   0.17478   0.01645   0.00000  Uiso   1.00
C146   C     0.81142   0.16088   0.48961   0.00000  Uiso   1.00
C147   C     0.82361   0.15100   0.43542   0.00000  Uiso   1.00
C148   C     0.84829   0.15646   0.01463   0.00000  Uiso   1.00
C149   C     0.89560   0.13994   0.48605   0.00000  Uiso   1.00
C150   C     0.90459   0.12538   0.43404   0.00000  Uiso   1.00
C151   C     0.86801   0.12949   0.41038   0.00000  Uiso   1.00
C152   C     0.83956   0.16837   0.06737   0.00000  Uiso   1.00
C153   C     0.92202   0.14847   0.06347   0.00000  Uiso   1.00
C154   C     0.79088   0.16277   0.40768   0.00000  Uiso   1.00
H155   H     0.80499   0.18188   0.09048   0.00000  Uiso   1.00
H156   H     0.71774   0.18617   0.41542   0.00000  Uiso   1.00
H157   H     0.74894   0.17988   0.05822   0.00000  Uiso   1.00
H158   H     0.69241   0.19292   0.01075   0.00000  Uiso   1.00
H159   H     0.87517   0.11553   0.37174   0.00000  Uiso   1.00
C160   C     0.86624   0.31207   0.26987   0.00000  Uiso   1.00
H161   H     0.89220   0.29589   0.28468   0.00000  Uiso   1.00
C162   C     0.86606   0.02146   0.27031   0.00000  Uiso   1.00
H163   H     0.89126   0.03776   0.28623   0.00000  Uiso   1.00
C164   C     0.83293   0.04281   0.25116   0.00000  Uiso   1.00
C165   C     0.79882   0.02133   0.23315   0.00000  Uiso   1.00
H166   H     0.77281   0.03748   0.21838   0.00000  Uiso   1.00
C167   C     0.79850   0.31197   0.23340   0.00000  Uiso   1.00
H168   H     0.77229   0.29573   0.21885   0.00000  Uiso   1.00
C169   C     0.83254   0.29058   0.25125   0.00000  Uiso   1.00
C170   C     0.96603   0.19462   0.28030   0.00000  Uiso   1.00
H171   H     0.94009   0.21694   0.30479   0.00000  Uiso   1.00
C172   C     0.68216   0.19447   0.28046   0.00000  Uiso   1.00
H173   H     0.69333   0.21671   0.30506   0.00000  Uiso   1.00
N174   N     0.71598   0.16666   0.24998   0.00000  Uiso   1.00
C175   C     0.70156   0.13916   0.21969   0.00000  Uiso   1.00
H176   H     0.72859   0.11689   0.19677   0.00000  Uiso   1.00
C177   C     0.98584   0.13830   0.21911   0.00000  Uiso   1.00
N178   N     0.95069   0.16669   0.24999   0.00000  Uiso   1.00
S179   S     0.97582   0.09462   0.18159   0.00000  Uiso   1.00
O180   O     0.68794   0.08748   0.13555   0.00000  Uiso   1.00
O181   O     0.97027   0.05789   0.21572   0.00000  Uiso   1.00
O182   O     0.92870   0.09594   0.15729   0.00000  Uiso   1.00
H183   H     0.92751   0.06777   0.14254   0.00000  Uiso   1.00
N184   N     0.95075   0.10667   0.40414   0.00000  Uiso   1.00
O185   O     0.95144   0.07285   0.37671   0.00000  Uiso   1.00
O186   O     0.99079   0.12765   0.39526   0.00000  Uiso   1.00
O187   O     0.12708   0.56011   0.25000   0.00000  Uiso   1.00
O188   O     0.20627   0.56012   0.25000   0.00000  Uiso   1.00
C189   C     0.16637   0.57927   0.25046   0.00000  Uiso   1.00
O190   O     0.10775   0.49998   0.32549   0.00000  Uiso   1.00
O191   O     0.18694   0.49999   0.32549   0.00000  Uiso   1.00
C192   C     0.14035   0.49791   0.35006   0.00000  Uiso   1.00
Cu193  Cu    0.11978   0.49999   0.25000   0.00000  Uiso   1.00
Cu194  Cu    0.21355   0.50001   0.25000   0.00000  Uiso   1.00
O195   O     0.12706   0.43988   0.24999   0.00000  Uiso   1.00
O196   O     0.20625   0.43989   0.24999   0.00000  Uiso   1.00
O197   O     0.14640   0.50001   0.17451   0.00000  Uiso   1.00
O198   O     0.22559   0.50002   0.17451   0.00000  Uiso   1.00
C199   C     0.16660   0.42075   0.25053   0.00000  Uiso   1.00
C200   C     0.19307   0.50004   0.14980   0.00000  Uiso   1.00
C201   C     0.26545   0.47015   0.01095   0.00000  Uiso   1.00
H202   H     0.28382   0.47817   0.08173   0.00000  Uiso   1.00
H203   H     0.30160   0.45748   0.49077   0.00000  Uiso   1.00
C204   C     0.20833   0.49588   0.09244   0.00000  Uiso   1.00
C205   C     0.07685   0.51065   0.43555   0.00000  Uiso   1.00
C206   C     0.06258   0.51537   0.48960   0.00000  Uiso   1.00
C207   C     0.09610   0.50811   0.01645   0.00000  Uiso   1.00
C208   C     0.14475   0.49421   0.48961   0.00000  Uiso   1.00
C209   C     0.15695   0.48433   0.43542   0.00000  Uiso   1.00
C210   C     0.18163   0.48980   0.01463   0.00000  Uiso   1.00
C211   C     0.22894   0.47328   0.48605   0.00000  Uiso   1.00
C212   C     0.23792   0.45872   0.43404   0.00000  Uiso   1.00
C213   C     0.20134   0.46282   0.41038   0.00000  Uiso   1.00
C214   C     0.17289   0.50170   0.06737   0.00000  Uiso   1.00
C215   C     0.25535   0.48181   0.06347   0.00000  Uiso   1.00
C216   C     0.12421   0.49611   0.40768   0.00000  Uiso   1.00
H217   H     0.13832   0.51521   0.09048   0.00000  Uiso   1.00
H218   H     0.05108   0.51950   0.41542   0.00000  Uiso   1.00
H219   H     0.08228   0.51321   0.05822   0.00000  Uiso   1.00
H220   H     0.02574   0.52625   0.01075   0.00000  Uiso   1.00
H221   H     0.20850   0.44886   0.37174   0.00000  Uiso   1.00
C222   C     0.19957   0.64540   0.26987   0.00000  Uiso   1.00
H223   H     0.22553   0.62923   0.28468   0.00000  Uiso   1.00
C224   C     0.19940   0.35479   0.27031   0.00000  Uiso   1.00
H225   H     0.22460   0.37110   0.28623   0.00000  Uiso   1.00
C226   C     0.16626   0.37615   0.25116   0.00000  Uiso   1.00
C227   C     0.13215   0.35467   0.23315   0.00000  Uiso   1.00
H228   H     0.10614   0.37081   0.21838   0.00000  Uiso   1.00
C229   C     0.13184   0.64530   0.23340   0.00000  Uiso   1.00
H230   H     0.10562   0.62906   0.21885   0.00000  Uiso   1.00
C231   C     0.16588   0.62391   0.25125   0.00000  Uiso   1.00
C232   C     0.29936   0.52796   0.28030   0.00000  Uiso   1.00
H233   H     0.27342   0.55027   0.30479   0.00000  Uiso   1.00
C234   C     0.01550   0.52780   0.28046   0.00000  Uiso   1.00
H235   H     0.02666   0.55005   0.30506   0.00000  Uiso   1.00
N236   N     0.04931   0.49999   0.24998   0.00000  Uiso   1.00
C237   C     0.03490   0.47249   0.21969   0.00000  Uiso   1.00
H238   H     0.06192   0.45022   0.19677   0.00000  Uiso   1.00
C239   C     0.31917   0.47163   0.21911   0.00000  Uiso   1.00
N240   N     0.28402   0.50002   0.24999   0.00000  Uiso   1.00
S241   S     0.30915   0.42795   0.18159   0.00000  Uiso   1.00
O242   O     0.02128   0.42081   0.13555   0.00000  Uiso   1.00
O243   O     0.30360   0.39123   0.21572   0.00000  Uiso   1.00
O244   O     0.26203   0.42927   0.15729   0.00000  Uiso   1.00
H245   H     0.26084   0.40110   0.14254   0.00000  Uiso   1.00
N246   N     0.28408   0.44001   0.40414   0.00000  Uiso   1.00
O247   O     0.28478   0.40619   0.37671   0.00000  Uiso   1.00
O248   O     0.32412   0.46098   0.39526   0.00000  Uiso   1.00
O249   O     0.46042   0.56011   0.25000   0.00000  Uiso   1.00
O250   O     0.53961   0.56012   0.25000   0.00000  Uiso   1.00
C251   C     0.49970   0.57927   0.25046   0.00000  Uiso   1.00
O252   O     0.44108   0.49998   0.32549   0.00000  Uiso   1.00
O253   O     0.52027   0.49999   0.32549   0.00000  Uiso   1.00
C254   C     0.47368   0.49791   0.35006   0.00000  Uiso   1.00
Cu255  Cu    0.45311   0.49999   0.25000   0.00000  Uiso   1.00
Cu256  Cu    0.54689   0.50001   0.25000   0.00000  Uiso   1.00
O257   O     0.46039   0.43988   0.24999   0.00000  Uiso   1.00
O258   O     0.53958   0.43989   0.24999   0.00000  Uiso   1.00
O259   O     0.47973   0.50001   0.17451   0.00000  Uiso   1.00
O260   O     0.55892   0.50002   0.17451   0.00000  Uiso   1.00
C261   C     0.49993   0.42075   0.25053   0.00000  Uiso   1.00
C262   C     0.52640   0.50004   0.14980   0.00000  Uiso   1.00
C263   C     0.59878   0.47015   0.01095   0.00000  Uiso   1.00
H264   H     0.61716   0.47817   0.08173   0.00000  Uiso   1.00
H265   H     0.63493   0.45748   0.49077   0.00000  Uiso   1.00
C266   C     0.54166   0.49588   0.09244   0.00000  Uiso   1.00
C267   C     0.41018   0.51065   0.43555   0.00000  Uiso   1.00
C268   C     0.39591   0.51537   0.48960   0.00000  Uiso   1.00
C269   C     0.42943   0.50811   0.01645   0.00000  Uiso   1.00
C270   C     0.47809   0.49421   0.48961   0.00000  Uiso   1.00
C271   C     0.49028   0.48433   0.43542   0.00000  Uiso   1.00
C272   C     0.51496   0.48980   0.01463   0.00000  Uiso   1.00
C273   C     0.56227   0.47328   0.48605   0.00000  Uiso   1.00
C274   C     0.57126   0.45872   0.43404   0.00000  Uiso   1.00
C275   C     0.53468   0.46282   0.41038   0.00000  Uiso   1.00
C276   C     0.50622   0.50170   0.06737   0.00000  Uiso   1.00
C277   C     0.58868   0.48181   0.06347   0.00000  Uiso   1.00
C278   C     0.45755   0.49611   0.40768   0.00000  Uiso   1.00
H279   H     0.47165   0.51521   0.09048   0.00000  Uiso   1.00
H280   H     0.38441   0.51950   0.41542   0.00000  Uiso   1.00
H281   H     0.41561   0.51321   0.05822   0.00000  Uiso   1.00
H282   H     0.35907   0.52625   0.01075   0.00000  Uiso   1.00
H283   H     0.54183   0.44886   0.37174   0.00000  Uiso   1.00
C284   C     0.53290   0.64540   0.26987   0.00000  Uiso   1.00
H285   H     0.55886   0.62923   0.28468   0.00000  Uiso   1.00
C286   C     0.53273   0.35479   0.27031   0.00000  Uiso   1.00
H287   H     0.55793   0.37110   0.28623   0.00000  Uiso   1.00
C288   C     0.49959   0.37615   0.25116   0.00000  Uiso   1.00
C289   C     0.46549   0.35467   0.23315   0.00000  Uiso   1.00
H290   H     0.43947   0.37081   0.21838   0.00000  Uiso   1.00
C291   C     0.46517   0.64530   0.23340   0.00000  Uiso   1.00
H292   H     0.43896   0.62906   0.21885   0.00000  Uiso   1.00
C293   C     0.49921   0.62391   0.25125   0.00000  Uiso   1.00
C294   C     0.63269   0.52796   0.28030   0.00000  Uiso   1.00
H295   H     0.60675   0.55027   0.30479   0.00000  Uiso   1.00
C296   C     0.34883   0.52780   0.28046   0.00000  Uiso   1.00
H297   H     0.35999   0.55005   0.30506   0.00000  Uiso   1.00
N298   N     0.38265   0.49999   0.24998   0.00000  Uiso   1.00
C299   C     0.36823   0.47249   0.21969   0.00000  Uiso   1.00
H300   H     0.39525   0.45022   0.19677   0.00000  Uiso   1.00
C301   C     0.65250   0.47163   0.21911   0.00000  Uiso   1.00
N302   N     0.61735   0.50002   0.24999   0.00000  Uiso   1.00
S303   S     0.64249   0.42795   0.18159   0.00000  Uiso   1.00
O304   O     0.35461   0.42081   0.13555   0.00000  Uiso   1.00
O305   O     0.63693   0.39123   0.21572   0.00000  Uiso   1.00
O306   O     0.59537   0.42927   0.15729   0.00000  Uiso   1.00
H307   H     0.59417   0.40110   0.14254   0.00000  Uiso   1.00
N308   N     0.61741   0.44001   0.40414   0.00000  Uiso   1.00
O309   O     0.61811   0.40619   0.37671   0.00000  Uiso   1.00
O310   O     0.65746   0.46098   0.39526   0.00000  Uiso   1.00
O311   O     0.79375   0.56011   0.25000   0.00000  Uiso   1.00
O312   O     0.87294   0.56012   0.25000   0.00000  Uiso   1.00
C313   C     0.83304   0.57927   0.25046   0.00000  Uiso   1.00
O314   O     0.77441   0.49998   0.32549   0.00000  Uiso   1.00
O315   O     0.85360   0.49999   0.32549   0.00000  Uiso   1.00
C316   C     0.80701   0.49791   0.35006   0.00000  Uiso   1.00
Cu317  Cu    0.78645   0.49999   0.25000   0.00000  Uiso   1.00
Cu318  Cu    0.88022   0.50001   0.25000   0.00000  Uiso   1.00
O319   O     0.79373   0.43988   0.24999   0.00000  Uiso   1.00
O320   O     0.87292   0.43989   0.24999   0.00000  Uiso   1.00
O321   O     0.81306   0.50001   0.17451   0.00000  Uiso   1.00
O322   O     0.89225   0.50002   0.17451   0.00000  Uiso   1.00
C323   C     0.83326   0.42075   0.25053   0.00000  Uiso   1.00
C324   C     0.85973   0.50004   0.14980   0.00000  Uiso   1.00
C325   C     0.93211   0.47015   0.01095   0.00000  Uiso   1.00
H326   H     0.95049   0.47817   0.08173   0.00000  Uiso   1.00
H327   H     0.96826   0.45748   0.49077   0.00000  Uiso   1.00
C328   C     0.87499   0.49588   0.09244   0.00000  Uiso   1.00
C329   C     0.74351   0.51065   0.43555   0.00000  Uiso   1.00
C330   C     0.72924   0.51537   0.48960   0.00000  Uiso   1.00
C331   C     0.76276   0.50811   0.01645   0.00000  Uiso   1.00
C332   C     0.81142   0.49421   0.48961   0.00000  Uiso   1.00
C333   C     0.82361   0.48433   0.43542   0.00000  Uiso   1.00
C334   C     0.84829   0.48980   0.01463   0.00000  Uiso   1.00
C335   C     0.89560   0.47328   0.48605   0.00000  Uiso   1.00
C336   C     0.90459   0.45872   0.43404   0.00000  Uiso   1.00
C337   C     0.86801   0.46282   0.41038   0.00000  Uiso   1.00
C338   C     0.83956   0.50170   0.06737   0.00000  Uiso   1.00
C339   C     0.92202   0.48181   0.06347   0.00000  Uiso   1.00
C340   C     0.79088   0.49611   0.40768   0.00000  Uiso   1.00
H341   H     0.80499   0.51521   0.09048   0.00000  Uiso   1.00
H342   H     0.71774   0.51950   0.41542   0.00000  Uiso   1.00
H343   H     0.74894   0.51321   0.05822   0.00000  Uiso   1.00
H344   H     0.69241   0.52625   0.01075   0.00000  Uiso   1.00
H345   H     0.87517   0.44886   0.37174   0.00000  Uiso   1.00
C346   C     0.86624   0.64540   0.26987   0.00000  Uiso   1.00
H347   H     0.89220   0.62923   0.28468   0.00000  Uiso   1.00
C348   C     0.86606   0.35479   0.27031   0.00000  Uiso   1.00
H349   H     0.89126   0.37110   0.28623   0.00000  Uiso   1.00
C350   C     0.83293   0.37615   0.25116   0.00000  Uiso   1.00
C351   C     0.79882   0.35467   0.23315   0.00000  Uiso   1.00
H352   H     0.77281   0.37081   0.21838   0.00000  Uiso   1.00
C353   C     0.79850   0.64530   0.23340   0.00000  Uiso   1.00
H354   H     0.77229   0.62906   0.21885   0.00000  Uiso   1.00
C355   C     0.83254   0.62391   0.25125   0.00000  Uiso   1.00
C356   C     0.96603   0.52796   0.28030   0.00000  Uiso   1.00
H357   H     0.94009   0.55027   0.30479   0.00000  Uiso   1.00
C358   C     0.68216   0.52780   0.28046   0.00000  Uiso   1.00
H359   H     0.69333   0.55005   0.30506   0.00000  Uiso   1.00
N360   N     0.71598   0.49999   0.24998   0.00000  Uiso   1.00
C361   C     0.70156   0.47249   0.21969   0.00000  Uiso   1.00
H362   H     0.72859   0.45022   0.19677   0.00000  Uiso   1.00
C363   C     0.98584   0.47163   0.21911   0.00000  Uiso   1.00
N364   N     0.95069   0.50002   0.24999   0.00000  Uiso   1.00
S365   S     0.97582   0.42795   0.18159   0.00000  Uiso   1.00
O366   O     0.68794   0.42081   0.13555   0.00000  Uiso   1.00
O367   O     0.97027   0.39123   0.21572   0.00000  Uiso   1.00
O368   O     0.92870   0.42927   0.15729   0.00000  Uiso   1.00
H369   H     0.92751   0.40110   0.14254   0.00000  Uiso   1.00
N370   N     0.95075   0.44001   0.40414   0.00000  Uiso   1.00
O371   O     0.95144   0.40619   0.37671   0.00000  Uiso   1.00
O372   O     0.99079   0.46098   0.39526   0.00000  Uiso   1.00
O373   O     0.12708   0.89345   0.25000   0.00000  Uiso   1.00
O374   O     0.20627   0.89346   0.25000   0.00000  Uiso   1.00
C375   C     0.16637   0.91260   0.25046   0.00000  Uiso   1.00
O376   O     0.10775   0.83332   0.32549   0.00000  Uiso   1.00
O377   O     0.18694   0.83333   0.32549   0.00000  Uiso   1.00
C378   C     0.14035   0.83124   0.35006   0.00000  Uiso   1.00
Cu379  Cu    0.11978   0.83333   0.25000   0.00000  Uiso   1.00
Cu380  Cu    0.21355   0.83334   0.25000   0.00000  Uiso   1.00
O381   O     0.12706   0.77321   0.24999   0.00000  Uiso   1.00
O382   O     0.20625   0.77322   0.24999   0.00000  Uiso   1.00
O383   O     0.14640   0.83334   0.17451   0.00000  Uiso   1.00
O384   O     0.22559   0.83335   0.17451   0.00000  Uiso   1.00
C385   C     0.16660   0.75409   0.25053   0.00000  Uiso   1.00
C386   C     0.19307   0.83338   0.14980   0.00000  Uiso   1.00
C387   C     0.26545   0.80348   0.01095   0.00000  Uiso   1.00
H388   H     0.28382   0.81151   0.08173   0.00000  Uiso   1.00
H389   H     0.30160   0.79081   0.49077   0.00000  Uiso   1.00
C390   C     0.20833   0.82921   0.09244   0.00000  Uiso   1.00
C391   C     0.07685   0.84399   0.43555   0.00000  Uiso   1.00
C392   C     0.06258   0.84871   0.48960   0.00000  Uiso   1.00
C393   C     0.09610   0.84144   0.01645   0.00000  Uiso   1.00
C394   C     0.14475   0.82755   0.48961   0.00000  Uiso   1.00
C395   C     0.15695   0.81766   0.43542   0.00000  Uiso   1.00
C396   C     0.18163   0.82313   0.01463   0.00000  Uiso   1.00
C397   C     0.22894   0.80661   0.48605   0.00000  Uiso   1.00
C398   C     0.23792   0.79205   0.43404   0.00000  Uiso   1.00
C399   C     0.20134   0.79615   0.41038   0.00000  Uiso   1.00
C400   C     0.17289   0.83503   0.06737   0.00000  Uiso   1.00
C401   C     0.25535   0.81514   0.06347   0.00000  Uiso   1.00
C402   C     0.12421   0.82944   0.40768   0.00000  Uiso   1.00
H403   H     0.13832   0.84855   0.09048   0.00000  Uiso   1.00
H404   H     0.05108   0.85284   0.41542   0.00000  Uiso   1.00
H405   H     0.08228   0.84655   0.05822   0.00000  Uiso   1.00
H406   H     0.02574   0.85959   0.01075   0.00000  Uiso   1.00
H407   H     0.20850   0.78220   0.37174   0.00000  Uiso   1.00
C408   C     0.19957   0.97873   0.26987   0.00000  Uiso   1.00
H409   H     0.22553   0.96256   0.28468   0.00000  Uiso   1.00
C410   C     0.19940   0.68813   0.27031   0.00000  Uiso   1.00
H411   H     0.22460   0.70443   0.28623   0.00000  Uiso   1.00
C412   C     0.16626   0.70948   0.25116   0.00000  Uiso   1.00
C413   C     0.13215   0.68800   0.23315   0.00000  Uiso   1.00
H414   H     0.10614   0.70414   0.21838   0.00000  Uiso   1.00
C415   C     0.13184   0.97864   0.23340   0.00000  Uiso   1.00
H416   H     0.10562   0.96240   0.21885   0.00000  Uiso   1.00
C417   C     0.16588   0.95724   0.25125   0.00000  Uiso   1.00
C418   C     0.29936   0.86129   0.28030   0.00000  Uiso   1.00
H419   H     0.27342   0.88361   0.30479   0.00000  Uiso   1.00
C420   C     0.01550   0.86114   0.28046   0.00000  Uiso   1.00
H421   H     0.02666   0.88338   0.30506   0.00000  Uiso   1.00
N422   N     0.04931   0.83332   0.24998   0.00000  Uiso   1.00
C423   C     0.03490   0.80583   0.21969   0.00000  Uiso   1.00
H424   H     0.06192   0.78356   0.19677   0.00000  Uiso   1.00
C425   C     0.31917   0.80497   0.21911   0.00000  Uiso   1.00
N426   N     0.28402   0.83335   0.24999   0.00000  Uiso   1.00
S427   S     0.30915   0.76128   0.18159   0.00000  Uiso   1.00
O428   O     0.02128   0.75415   0.13555   0.00000  Uiso   1.00
O429   O     0.30360   0.72456   0.21572   0.00000  Uiso   1.00
O430   O     0.26203   0.76261   0.15729   0.00000  Uiso   1.00
H431   H     0.26084   0.73443   0.14254   0.00000  Uiso   1.00
N432   N     0.28408   0.77334   0.40414   0.00000  Uiso   1.00
O433   O     0.28478   0.73952   0.37671   0.00000  Uiso   1.00
O434   O     0.32412   0.79432   0.39526   0.00000  Uiso   1.00
O435   O     0.46042   0.89345   0.25000   0.00000  Uiso   1.00
O436   O     0.53961   0.89346   0.25000   0.00000  Uiso   1.00
C437   C     0.49970   0.91260   0.25046   0.00000  Uiso   1.00
O438   O     0.44108   0.83332   0.32549   0.00000  Uiso   1.00
O439   O     0.52027   0.83333   0.32549   0.00000  Uiso   1.00
C440   C     0.47368   0.83124   0.35006   0.00000  Uiso   1.00
Cu441  Cu    0.45311   0.83333   0.25000   0.00000  Uiso   1.00
Cu442  Cu    0.54689   0.83334   0.25000   0.00000  Uiso   1.00
O443   O     0.46039   0.77321   0.24999   0.00000  Uiso   1.00
O444   O     0.53958   0.77322   0.24999   0.00000  Uiso   1.00
O445   O     0.47973   0.83334   0.17451   0.00000  Uiso   1.00
O446   O     0.55892   0.83335   0.17451   0.00000  Uiso   1.00
C447   C     0.49993   0.75409   0.25053   0.00000  Uiso   1.00
C448   C     0.52640   0.83338   0.14980   0.00000  Uiso   1.00
C449   C     0.59878   0.80348   0.01095   0.00000  Uiso   1.00
H450   H     0.61716   0.81151   0.08173   0.00000  Uiso   1.00
H451   H     0.63493   0.79081   0.49077   0.00000  Uiso   1.00
C452   C     0.54166   0.82921   0.09244   0.00000  Uiso   1.00
C453   C     0.41018   0.84399   0.43555   0.00000  Uiso   1.00
C454   C     0.39591   0.84871   0.48960   0.00000  Uiso   1.00
C455   C     0.42943   0.84144   0.01645   0.00000  Uiso   1.00
C456   C     0.47809   0.82755   0.48961   0.00000  Uiso   1.00
C457   C     0.49028   0.81766   0.43542   0.00000  Uiso   1.00
C458   C     0.51496   0.82313   0.01463   0.00000  Uiso   1.00
C459   C     0.56227   0.80661   0.48605   0.00000  Uiso   1.00
C460   C     0.57126   0.79205   0.43404   0.00000  Uiso   1.00
C461   C     0.53468   0.79615   0.41038   0.00000  Uiso   1.00
C462   C     0.50622   0.83503   0.06737   0.00000  Uiso   1.00
C463   C     0.58868   0.81514   0.06347   0.00000  Uiso   1.00
C464   C     0.45755   0.82944   0.40768   0.00000  Uiso   1.00
H465   H     0.47165   0.84855   0.09048   0.00000  Uiso   1.00
H466   H     0.38441   0.85284   0.41542   0.00000  Uiso   1.00
H467   H     0.41561   0.84655   0.05822   0.00000  Uiso   1.00
H468   H     0.35907   0.85959   0.01075   0.00000  Uiso   1.00
H469   H     0.54183   0.78220   0.37174   0.00000  Uiso   1.00
C470   C     0.53290   0.97873   0.26987   0.00000  Uiso   1.00
H471   H     0.55886   0.96256   0.28468   0.00000  Uiso   1.00
C472   C     0.53273   0.68813   0.27031   0.00000  Uiso   1.00
H473   H     0.55793   0.70443   0.28623   0.00000  Uiso   1.00
C474   C     0.49959   0.70948   0.25116   0.00000  Uiso   1.00
C475   C     0.46549   0.68800   0.23315   0.00000  Uiso   1.00
H476   H     0.43947   0.70414   0.21838   0.00000  Uiso   1.00
C477   C     0.46517   0.97864   0.23340   0.00000  Uiso   1.00
H478   H     0.43896   0.96240   0.21885   0.00000  Uiso   1.00
C479   C     0.49921   0.95724   0.25125   0.00000  Uiso   1.00
C480   C     0.63269   0.86129   0.28030   0.00000  Uiso   1.00
H481   H     0.60675   0.88361   0.30479   0.00000  Uiso   1.00
C482   C     0.34883   0.86114   0.28046   0.00000  Uiso   1.00
H483   H     0.35999   0.88338   0.30506   0.00000  Uiso   1.00
N484   N     0.38265   0.83332   0.24998   0.00000  Uiso   1.00
C485   C     0.36823   0.80583   0.21969   0.00000  Uiso   1.00
H486   H     0.39525   0.78356   0.19677   0.00000  Uiso   1.00
C487   C     0.65250   0.80497   0.21911   0.00000  Uiso   1.00
N488   N     0.61735   0.83335   0.24999   0.00000  Uiso   1.00
S489   S     0.64249   0.76128   0.18159   0.00000  Uiso   1.00
O490   O     0.35461   0.75415   0.13555   0.00000  Uiso   1.00
O491   O     0.63693   0.72456   0.21572   0.00000  Uiso   1.00
O492   O     0.59537   0.76261   0.15729   0.00000  Uiso   1.00
H493   H     0.59417   0.73443   0.14254   0.00000  Uiso   1.00
N494   N     0.61741   0.77334   0.40414   0.00000  Uiso   1.00
O495   O     0.61811   0.73952   0.37671   0.00000  Uiso   1.00
O496   O     0.65746   0.79432   0.39526   0.00000  Uiso   1.00
O497   O     0.79375   0.89345   0.25000   0.00000  Uiso   1.00
O498   O     0.87294   0.89346   0.25000   0.00000  Uiso   1.00
C499   C     0.83304   0.91260   0.25046   0.00000  Uiso   1.00
O500   O     0.77441   0.83332   0.32549   0.00000  Uiso   1.00
O501   O     0.85360   0.83333   0.32549   0.00000  Uiso   1.00
C502   C     0.80701   0.83124   0.35006   0.00000  Uiso   1.00
Cu503  Cu    0.78645   0.83333   0.25000   0.00000  Uiso   1.00
Cu504  Cu    0.88022   0.83334   0.25000   0.00000  Uiso   1.00
O505   O     0.79373   0.77321   0.24999   0.00000  Uiso   1.00
O506   O     0.87292   0.77322   0.24999   0.00000  Uiso   1.00
O507   O     0.81306   0.83334   0.17451   0.00000  Uiso   1.00
O508   O     0.89225   0.83335   0.17451   0.00000  Uiso   1.00
C509   C     0.83326   0.75409   0.25053   0.00000  Uiso   1.00
C510   C     0.85973   0.83338   0.14980   0.00000  Uiso   1.00
C511   C     0.93211   0.80348   0.01095   0.00000  Uiso   1.00
H512   H     0.95049   0.81151   0.08173   0.00000  Uiso   1.00
H513   H     0.96826   0.79081   0.49077   0.00000  Uiso   1.00
C514   C     0.87499   0.82921   0.09244   0.00000  Uiso   1.00
C515   C     0.74351   0.84399   0.43555   0.00000  Uiso   1.00
C516   C     0.72924   0.84871   0.48960   0.00000  Uiso   1.00
C517   C     0.76276   0.84144   0.01645   0.00000  Uiso   1.00
C518   C     0.81142   0.82755   0.48961   0.00000  Uiso   1.00
C519   C     0.82361   0.81766   0.43542   0.00000  Uiso   1.00
C520   C     0.84829   0.82313   0.01463   0.00000  Uiso   1.00
C521   C     0.89560   0.80661   0.48605   0.00000  Uiso   1.00
C522   C     0.90459   0.79205   0.43404   0.00000  Uiso   1.00
C523   C     0.86801   0.79615   0.41038   0.00000  Uiso   1.00
C524   C     0.83956   0.83503   0.06737   0.00000  Uiso   1.00
C525   C     0.92202   0.81514   0.06347   0.00000  Uiso   1.00
C526   C     0.79088   0.82944   0.40768   0.00000  Uiso   1.00
H527   H     0.80499   0.84855   0.09048   0.00000  Uiso   1.00
H528   H     0.71774   0.85284   0.41542   0.00000  Uiso   1.00
H529   H     0.74894   0.84655   0.05822   0.00000  Uiso   1.00
H530   H     0.69241   0.85959   0.01075   0.00000  Uiso   1.00
H531   H     0.87517   0.78220   0.37174   0.00000  Uiso   1.00
C532   C     0.86624   0.97873   0.26987   0.00000  Uiso   1.00
H533   H     0.89220   0.96256   0.28468   0.00000  Uiso   1.00
C534   C     0.86606   0.68813   0.27031   0.00000  Uiso   1.00
H535   H     0.89126   0.70443   0.28623   0.00000  Uiso   1.00
C536   C     0.83293   0.70948   0.25116   0.00000  Uiso   1.00
C537   C     0.79882   0.68800   0.23315   0.00000  Uiso   1.00
H538   H     0.77281   0.70414   0.21838   0.00000  Uiso   1.00
C539   C     0.79850   0.97864   0.23340   0.00000  Uiso   1.00
H540   H     0.77229   0.96240   0.21885   0.00000  Uiso   1.00
C541   C     0.83254   0.95724   0.25125   0.00000  Uiso   1.00
C542   C     0.96603   0.86129   0.28030   0.00000  Uiso   1.00
H543   H     0.94009   0.88361   0.30479   0.00000  Uiso   1.00
C544   C     0.68216   0.86114   0.28046   0.00000  Uiso   1.00
H545   H     0.69333   0.88338   0.30506   0.00000  Uiso   1.00
N546   N     0.71598   0.83332   0.24998   0.00000  Uiso   1.00
C547   C     0.70156   0.80583   0.21969   0.00000  Uiso   1.00
H548   H     0.72859   0.78356   0.19677   0.00000  Uiso   1.00
C549   C     0.98584   0.80497   0.21911   0.00000  Uiso   1.00
N550   N     0.95069   0.83335   0.24999   0.00000  Uiso   1.00
S551   S     0.97582   0.76128   0.18159   0.00000  Uiso   1.00
O552   O     0.68794   0.75415   0.13555   0.00000  Uiso   1.00
O553   O     0.97027   0.72456   0.21572   0.00000  Uiso   1.00
O554   O     0.92870   0.76261   0.15729   0.00000  Uiso   1.00
H555   H     0.92751   0.73443   0.14254   0.00000  Uiso   1.00
N556   N     0.95075   0.77334   0.40414   0.00000  Uiso   1.00
O557   O     0.95144   0.73952   0.37671   0.00000  Uiso   1.00
O558   O     0.99079   0.79432   0.39526   0.00000  Uiso   1.00
O559   O     0.12708   0.22678   0.75000   0.00000  Uiso   1.00
O560   O     0.20627   0.22679   0.75000   0.00000  Uiso   1.00
C561   C     0.16637   0.24593   0.75046   0.00000  Uiso   1.00
O562   O     0.10775   0.16665   0.82549   0.00000  Uiso   1.00
O563   O     0.18694   0.16666   0.82549   0.00000  Uiso   1.00
C564   C     0.14035   0.16457   0.85006   0.00000  Uiso   1.00
Cu565  Cu    0.11978   0.16666   0.75000   0.00000  Uiso   1.00
Cu566  Cu    0.21355   0.16667   0.75000   0.00000  Uiso   1.00
O567   O     0.12706   0.10654   0.74999   0.00000  Uiso   1.00
O568   O     0.20625   0.10655   0.74999   0.00000  Uiso   1.00
O569   O     0.14640   0.16667   0.67451   0.00000  Uiso   1.00
O570   O     0.22559   0.16668   0.67451   0.00000  Uiso   1.00
C571   C     0.16660   0.08742   0.75053   0.00000  Uiso   1.00
C572   C     0.19307   0.16671   0.64980   0.00000  Uiso   1.00
C573   C     0.26545   0.13681   0.51095   0.00000  Uiso   1.00
H574   H     0.28382   0.14484   0.58173   0.00000  Uiso   1.00
H575   H     0.30160   0.12415   0.99077   0.00000  Uiso   1.00
C576   C     0.20833   0.16255   0.59244   0.00000  Uiso   1.00
C577   C     0.07685   0.17732   0.93555   0.00000  Uiso   1.00
C578   C     0.06258   0.18204   0.98960   0.00000  Uiso   1.00
C579   C     0.09610   0.17478   0.51645   0.00000  Uiso   1.00
C580   C     0.14475   0.16088   0.98961   0.00000  Uiso   1.00
C581   C     0.15695   0.15100   0.93542   0.00000  Uiso   1.00
C582   C     0.18163   0.15646   0.51463   0.00000  Uiso   1.00
C583   C     0.22894   0.13994   0.98605   0.00000  Uiso   1.00
C584   C     0.23792   0.12538   0.93404   0.00000  Uiso   1.00
C585   C     0.20134   0.12949   0.91038   0.00000  Uiso   1.00
C586   C     0.17289   0.16837   0.56737   0.00000  Uiso   1.00
C587   C     0.25535   0.14847   0.56347   0.00000  Uiso   1.00
C588   C     0.12421   0.16277   0.90768   0.00000  Uiso   1.00
H589   H     0.13832   0.18188   0.59048   0.00000  Uiso   1.00
H590   H     0.05108   0.18617   0.91542   0.00000  Uiso   1.00
H591   H     0.08228   0.17988   0.55822   0.00000  Uiso   1.00
H592   H     0.02574   0.19292   0.51075   0.00000  Uiso   1.00
H593   H     0.20850   0.11553   0.87174   0.00000  Uiso   1.00
C594   C     0.19957   0.31207   0.76987   0.00000  Uiso   1.00
H595   H     0.22553   0.29589   0.78468   0.00000  Uiso   1.00
C596   C     0.19940   0.02146   0.77031   0.00000  Uiso   1.00
H597   H     0.22460   0.03776   0.78623   0.00000  Uiso   1.00
C598   C     0.16626   0.04281   0.75116   0.00000  Uiso   1.00
C599   C     0.13215   0.02133   0.73315   0.00000  Uiso   1.00
H600   H     0.10614   0.03748   0.71838   0.00000  Uiso   1.00
C601   C     0.13184   0.31197   0.73340   0.00000  Uiso   1.00
H602   H     0.10562   0.29573   0.71885   0.00000  Uiso   1.00
C603   C     0.16588   0.29058   0.75125   0.00000  Uiso   1.00
C604   C     0.29936   0.19462   0.78030   0.00000  Uiso   1.00
H605   H     0.27342   0.21694   0.80479   0.00000  Uiso   1.00
C606   C     0.01550   0.19447   0.78046   0.00000  Uiso   1.00
H607   H     0.02666   0.21671   0.80506   0.00000  Uiso   1.00
N608   N     0.04931   0.16666   0.74998   0.00000  Uiso   1.00
C609   C     0.03490   0.13916   0.71969   0.00000  Uiso   1.00
H610   H     0.06192   0.11689   0.69677   0.00000  Uiso   1.00
C611   C     0.31917   0.13830   0.71911   0.00000  Uiso   1.00
N612   N     0.28402   0.16669   0.74999   0.00000  Uiso   1.00
S613   S     0.30915   0.09462   0.68159   0.00000  Uiso   1.00
O614   O     0.02128   0.08748   0.63555   0.00000  Uiso   1.00
O615   O     0.30360   0.05789   0.71572   0.00000  Uiso   1.00
O616   O     0.26203   0.09594   0.65729   0.00000  Uiso   1.00
H617   H     0.26084   0.06777   0.64254   0.00000  Uiso   1.00
N618   N     0.28408   0.10667   0.90414   0.00000  Uiso   1.00
O619   O     0.28478   0.07285   0.87671   0.00000  Uiso   1.00
O620   O     0.32412   0.12765   0.89526   0.00000  Uiso   1.00
O621   O     0.46042   0.22678   0.75000   0.00000  Uiso   1.00
O622   O     0.53961   0.22679   0.75000   0.00000  Uiso   1.00
C623   C     0.49970   0.24593   0.75046   0.00000  Uiso   1.00
O624   O     0.44108   0.16665   0.82549   0.00000  Uiso   1.00
O625   O     0.52027   0.16666   0.82549   0.00000  Uiso   1.00
C626   C     0.47368   0.16457   0.85006   0.00000  Uiso   1.00
Cu627  Cu    0.45311   0.16666   0.75000   0.00000  Uiso   1.00
Cu628  Cu    0.54689   0.16667   0.75000   0.00000  Uiso   1.00
O629   O     0.46039   0.10654   0.74999   0.00000  Uiso   1.00
O630   O     0.53958   0.10655   0.74999   0.00000  Uiso   1.00
O631   O     0.47973   0.16667   0.67451   0.00000  Uiso   1.00
O632   O     0.55892   0.16668   0.67451   0.00000  Uiso   1.00
C633   C     0.49993   0.08742   0.75053   0.00000  Uiso   1.00
C634   C     0.52640   0.16671   0.64980   0.00000  Uiso   1.00
C635   C     0.59878   0.13681   0.51095   0.00000  Uiso   1.00
H636   H     0.61716   0.14484   0.58173   0.00000  Uiso   1.00
H637   H     0.63493   0.12415   0.99077   0.00000  Uiso   1.00
C638   C     0.54166   0.16255   0.59244   0.00000  Uiso   1.00
C639   C     0.41018   0.17732   0.93555   0.00000  Uiso   1.00
C640   C     0.39591   0.18204   0.98960   0.00000  Uiso   1.00
C641   C     0.42943   0.17478   0.51645   0.00000  Uiso   1.00
C642   C     0.47809   0.16088   0.98961   0.00000  Uiso   1.00
C643   C     0.49028   0.15100   0.93542   0.00000  Uiso   1.00
C644   C     0.51496   0.15646   0.51463   0.00000  Uiso   1.00
C645   C     0.56227   0.13994   0.98605   0.00000  Uiso   1.00
C646   C     0.57126   0.12538   0.93404   0.00000  Uiso   1.00
C647   C     0.53468   0.12949   0.91038   0.00000  Uiso   1.00
C648   C     0.50622   0.16837   0.56737   0.00000  Uiso   1.00
C649   C     0.58868   0.14847   0.56347   0.00000  Uiso   1.00
C650   C     0.45755   0.16277   0.90768   0.00000  Uiso   1.00
H651   H     0.47165   0.18188   0.59048   0.00000  Uiso   1.00
H652   H     0.38441   0.18617   0.91542   0.00000  Uiso   1.00
H653   H     0.41561   0.17988   0.55822   0.00000  Uiso   1.00
H654   H     0.35907   0.19292   0.51075   0.00000  Uiso   1.00
H655   H     0.54183   0.11553   0.87174   0.00000  Uiso   1.00
C656   C     0.53290   0.31207   0.76987   0.00000  Uiso   1.00
H657   H     0.55886   0.29589   0.78468   0.00000  Uiso   1.00
C658   C     0.53273   0.02146   0.77031   0.00000  Uiso   1.00
H659   H     0.55793   0.03776   0.78623   0.00000  Uiso   1.00
C660   C     0.49959   0.04281   0.75116   0.00000  Uiso   1.00
C661   C     0.46549   0.02133   0.73315   0.00000  Uiso   1.00
H662   H     0.43947   0.03748   0.71838   0.00000  Uiso   1.00
C663   C     0.46517   0.31197   0.73340   0.00000  Uiso   1.00
H664   H     0.43896   0.29573   0.71885   0.00000  Uiso   1.00
C665   C     0.49921   0.29058   0.75125   0.00000  Uiso   1.00
C666   C     0.63269   0.19462   0.78030   0.00000  Uiso   1.00
H667   H     0.60675   0.21694   0.80479   0.00000  Uiso   1.00
C668   C     0.34883   0.19447   0.78046   0.00000  Uiso   1.00
H669   H     0.35999   0.21671   0.80506   0.00000  Uiso   1.00
N670   N     0.38265   0.16666   0.74998   0.00000  Uiso   1.00
C671   C     0.36823   0.13916   0.71969   0.00000  Uiso   1.00
H672   H     0.39525   0.11689   0.69677   0.00000  Uiso   1.00
C673   C     0.65250   0.13830   0.71911   0.00000  Uiso   1.00
N674   N     0.61735   0.16669   0.74999   0.00000  Uiso   1.00
S675   S     0.64249   0.09462   0.68159   0.00000  Uiso   1.00
O676   O     0.35461   0.08748   0.63555   0.00000  Uiso   1.00
O677   O     0.63693   0.05789   0.71572   0.00000  Uiso   1.00
O678   O     0.59537   0.09594   0.65729   0.00000  Uiso   1.00
H679   H     0.59417   0.06777   0.64254   0.00000  Uiso   1.00
N680   N     0.61741   0.10667   0.90414   0.00000  Uiso   1.00
O681   O     0.61811   0.07285   0.87671   0.00000  Uiso   1.00
O682   O     0.65746   0.12765   0.89526   0.00000  Uiso   1.00
O683   O     0.79375   0.22678   0.75000   0.00000  Uiso   1.00
O684   O     0.87294   0.22679   0.75000   0.00000  Uiso   1.00
C685   C     0.83304   0.24593   0.75046   0.00000  Uiso   1.00
O686   O     0.77441   0.16665   0.82549   0.00000  Uiso   1.00
O687   O     0.85360   0.16666   0.82549   0.00000  Uiso   1.00
C688   C     0.80701   0.16457   0.85006   0.00000  Uiso   1.00
Cu689  Cu    0.78645   0.16666   0.75000   0.00000  Uiso   1.00
Cu690  Cu    0.88022   0.16667   0.75000   0.00000  Uiso   1.00
O691   O     0.79373   0.10654   0.74999   0.00000  Uiso   1.00
O692   O     0.87292   0.10655   0.74999   0.00000  Uiso   1.00
O693   O     0.81306   0.16667   0.67451   0.00000  Uiso   1.00
O694   O     0.89225   0.16668   0.67451   0.00000  Uiso   1.00
C695   C     0.83326   0.08742   0.75053   0.00000  Uiso   1.00
C696   C     0.85973   0.16671   0.64980   0.00000  Uiso   1.00
C697   C     0.93211   0.13681   0.51095   0.00000  Uiso   1.00
H698   H     0.95049   0.14484   0.58173   0.00000  Uiso   1.00
H699   H     0.96826   0.12415   0.99077   0.00000  Uiso   1.00
C700   C     0.87499   0.16255   0.59244   0.00000  Uiso   1.00
C701   C     0.74351   0.17732   0.93555   0.00000  Uiso   1.00
C702   C     0.72924   0.18204   0.98960   0.00000  Uiso   1.00
C703   C     0.76276   0.17478   0.51645   0.00000  Uiso   1.00
C704   C     0.81142   0.16088   0.98961   0.00000  Uiso   1.00
C705   C     0.82361   0.15100   0.93542   0.00000  Uiso   1.00
C706   C     0.84829   0.15646   0.51463   0.00000  Uiso   1.00
C707   C     0.89560   0.13994   0.98605   0.00000  Uiso   1.00
C708   C     0.90459   0.12538   0.93404   0.00000  Uiso   1.00
C709   C     0.86801   0.12949   0.91038   0.00000  Uiso   1.00
C710   C     0.83956   0.16837   0.56737   0.00000  Uiso   1.00
C711   C     0.92202   0.14847   0.56347   0.00000  Uiso   1.00
C712   C     0.79088   0.16277   0.90768   0.00000  Uiso   1.00
H713   H     0.80499   0.18188   0.59048   0.00000  Uiso   1.00
H714   H     0.71774   0.18617   0.91542   0.00000  Uiso   1.00
H715   H     0.74894   0.17988   0.55822   0.00000  Uiso   1.00
H716   H     0.69241   0.19292   0.51075   0.00000  Uiso   1.00
H717   H     0.87517   0.11553   0.87174   0.00000  Uiso   1.00
C718   C     0.86624   0.31207   0.76987   0.00000  Uiso   1.00
H719   H     0.89220   0.29589   0.78468   0.00000  Uiso   1.00
C720   C     0.86606   0.02146   0.77031   0.00000  Uiso   1.00
H721   H     0.89126   0.03776   0.78623   0.00000  Uiso   1.00
C722   C     0.83293   0.04281   0.75116   0.00000  Uiso   1.00
C723   C     0.79882   0.02133   0.73315   0.00000  Uiso   1.00
H724   H     0.77281   0.03748   0.71838   0.00000  Uiso   1.00
C725   C     0.79850   0.31197   0.73340   0.00000  Uiso   1.00
H726   H     0.77229   0.29573   0.71885   0.00000  Uiso   1.00
C727   C     0.83254   0.29058   0.75125   0.00000  Uiso   1.00
C728   C     0.96603   0.19462   0.78030   0.00000  Uiso   1.00
H729   H     0.94009   0.21694   0.80479   0.00000  Uiso   1.00
C730   C     0.68216   0.19447   0.78046   0.00000  Uiso   1.00
H731   H     0.69333   0.21671   0.80506   0.00000  Uiso   1.00
N732   N     0.71598   0.16666   0.74998   0.00000  Uiso   1.00
C733   C     0.70156   0.13916   0.71969   0.00000  Uiso   1.00
H734   H     0.72859   0.11689   0.69677   0.00000  Uiso   1.00
C735   C     0.98584   0.13830   0.71911   0.00000  Uiso   1.00
N736   N     0.95069   0.16669   0.74999   0.00000  Uiso   1.00
S737   S     0.97582   0.09462   0.68159   0.00000  Uiso   1.00
O738   O     0.68794   0.08748   0.63555   0.00000  Uiso   1.00
O739   O     0.97027   0.05789   0.71572   0.00000  Uiso   1.00
O740   O     0.92870   0.09594   0.65729   0.00000  Uiso   1.00
H741   H     0.92751   0.06777   0.64254   0.00000  Uiso   1.00
N742   N     0.95075   0.10667   0.90414   0.00000  Uiso   1.00
O743   O     0.95144   0.07285   0.87671   0.00000  Uiso   1.00
O744   O     0.99079   0.12765   0.89526   0.00000  Uiso   1.00
O745   O     0.12708   0.56011   0.75000   0.00000  Uiso   1.00
O746   O     0.20627   0.56012   0.75000   0.00000  Uiso   1.00
C747   C     0.16637   0.57927   0.75046   0.00000  Uiso   1.00
O748   O     0.10775   0.49998   0.82549   0.00000  Uiso   1.00
O749   O     0.18694   0.49999   0.82549   0.00000  Uiso   1.00
C750   C     0.14035   0.49791   0.85006   0.00000  Uiso   1.00
Cu751  Cu    0.11978   0.49999   0.75000   0.00000  Uiso   1.00
Cu752  Cu    0.21355   0.50001   0.75000   0.00000  Uiso   1.00
O753   O     0.12706   0.43988   0.74999   0.00000  Uiso   1.00
O754   O     0.20625   0.43989   0.74999   0.00000  Uiso   1.00
O755   O     0.14640   0.50001   0.67451   0.00000  Uiso   1.00
O756   O     0.22559   0.50002   0.67451   0.00000  Uiso   1.00
C757   C     0.16660   0.42075   0.75053   0.00000  Uiso   1.00
C758   C     0.19307   0.50004   0.64980   0.00000  Uiso   1.00
C759   C     0.26545   0.47015   0.51095   0.00000  Uiso   1.00
H760   H     0.28382   0.47817   0.58173   0.00000  Uiso   1.00
H761   H     0.30160   0.45748   0.99077   0.00000  Uiso   1.00
C762   C     0.20833   0.49588   0.59244   0.00000  Uiso   1.00
C763   C     0.07685   0.51065   0.93555   0.00000  Uiso   1.00
C764   C     0.06258   0.51537   0.98960   0.00000  Uiso   1.00
C765   C     0.09610   0.50811   0.51645   0.00000  Uiso   1.00
C766   C     0.14475   0.49421   0.98961   0.00000  Uiso   1.00
C767   C     0.15695   0.48433   0.93542   0.00000  Uiso   1.00
C768   C     0.18163   0.48980   0.51463   0.00000  Uiso   1.00
C769   C     0.22894   0.47328   0.98605   0.00000  Uiso   1.00
C770   C     0.23792   0.45872   0.93404   0.00000  Uiso   1.00
C771   C     0.20134   0.46282   0.91038   0.00000  Uiso   1.00
C772   C     0.17289   0.50170   0.56737   0.00000  Uiso   1.00
C773   C     0.25535   0.48181   0.56347   0.00000  Uiso   1.00
C774   C     0.12421   0.49611   0.90768   0.00000  Uiso   1.00
H775   H     0.13832   0.51521   0.59048   0.00000  Uiso   1.00
H776   H     0.05108   0.51950   0.91542   0.00000  Uiso   1.00
H777   H     0.08228   0.51321   0.55822   0.00000  Uiso   1.00
H778   H     0.02574   0.52625   0.51075   0.00000  Uiso   1.00
H779   H     0.20850   0.44886   0.87174   0.00000  Uiso   1.00
C780   C     0.19957   0.64540   0.76987   0.00000  Uiso   1.00
H781   H     0.22553   0.62923   0.78468   0.00000  Uiso   1.00
C782   C     0.19940   0.35479   0.77031   0.00000  Uiso   1.00
H783   H     0.22460   0.37110   0.78623   0.00000  Uiso   1.00
C784   C     0.16626   0.37615   0.75116   0.00000  Uiso   1.00
C785   C     0.13215   0.35467   0.73315   0.00000  Uiso   1.00
H786   H     0.10614   0.37081   0.71838   0.00000  Uiso   1.00
C787   C     0.13184   0.64530   0.73340   0.00000  Uiso   1.00
H788   H     0.10562   0.62906   0.71885   0.00000  Uiso   1.00
C789   C     0.16588   0.62391   0.75125   0.00000  Uiso   1.00
C790   C     0.29936   0.52796   0.78030   0.00000  Uiso   1.00
H791   H     0.27342   0.55027   0.80479   0.00000  Uiso   1.00
C792   C     0.01550   0.52780   0.78046   0.00000  Uiso   1.00
H793   H     0.02666   0.55005   0.80506   0.00000  Uiso   1.00
N794   N     0.04931   0.49999   0.74998   0.00000  Uiso   1.00
C795   C     0.03490   0.47249   0.71969   0.00000  Uiso   1.00
H796   H     0.06192   0.45022   0.69677   0.00000  Uiso   1.00
C797   C     0.31917   0.47163   0.71911   0.00000  Uiso   1.00
N798   N     0.28402   0.50002   0.74999   0.00000  Uiso   1.00
S799   S     0.30915   0.42795   0.68159   0.00000  Uiso   1.00
O800   O     0.02128   0.42081   0.63555   0.00000  Uiso   1.00
O801   O     0.30360   0.39123   0.71572   0.00000  Uiso   1.00
O802   O     0.26203   0.42927   0.65729   0.00000  Uiso   1.00
H803   H     0.26084   0.40110   0.64254   0.00000  Uiso   1.00
N804   N     0.28408   0.44001   0.90414   0.00000  Uiso   1.00
O805   O     0.28478   0.40619   0.87671   0.00000  Uiso   1.00
O806   O     0.32412   0.46098   0.89526   0.00000  Uiso   1.00
O807   O     0.46042   0.56011   0.75000   0.00000  Uiso   1.00
O808   O     0.53961   0.56012   0.75000   0.00000  Uiso   1.00
C809   C     0.49970   0.57927   0.75046   0.00000  Uiso   1.00
O810   O     0.44108   0.49998   0.82549   0.00000  Uiso   1.00
O811   O     0.52027   0.49999   0.82549   0.00000  Uiso   1.00
C812   C     0.47368   0.49791   0.85006   0.00000  Uiso   1.00
Cu813  Cu    0.45311   0.49999   0.75000   0.00000  Uiso   1.00
Cu814  Cu    0.54689   0.50001   0.75000   0.00000  Uiso   1.00
O815   O     0.46039   0.43988   0.74999   0.00000  Uiso   1.00
O816   O     0.53958   0.43989   0.74999   0.00000  Uiso   1.00
O817   O     0.47973   0.50001   0.67451   0.00000  Uiso   1.00
O818   O     0.55892   0.50002   0.67451   0.00000  Uiso   1.00
C819   C     0.49993   0.42075   0.75053   0.00000  Uiso   1.00
C820   C     0.52640   0.50004   0.64980   0.00000  Uiso   1.00
C821   C     0.59878   0.47015   0.51095   0.00000  Uiso   1.00
H822   H     0.61716   0.47817   0.58173   0.00000  Uiso   1.00
H823   H     0.63493   0.45748   0.99077   0.00000  Uiso   1.00
C824   C     0.54166   0.49588   0.59244   0.00000  Uiso   1.00
C825   C     0.41018   0.51065   0.93555   0.00000  Uiso   1.00
C826   C     0.39591   0.51537   0.98960   0.00000  Uiso   1.00
C827   C     0.42943   0.50811   0.51645   0.00000  Uiso   1.00
C828   C     0.47809   0.49421   0.98961   0.00000  Uiso   1.00
C829   C     0.49028   0.48433   0.93542   0.00000  Uiso   1.00
C830   C     0.51496   0.48980   0.51463   0.00000  Uiso   1.00
C831   C     0.56227   0.47328   0.98605   0.00000  Uiso   1.00
C832   C     0.57126   0.45872   0.93404   0.00000  Uiso   1.00
C833   C     0.53468   0.46282   0.91038   0.00000  Uiso   1.00
C834   C     0.50622   0.50170   0.56737   0.00000  Uiso   1.00
C835   C     0.58868   0.48181   0.56347   0.00000  Uiso   1.00
C836   C     0.45755   0.49611   0.90768   0.00000  Uiso   1.00
H837   H     0.47165   0.51521   0.59048   0.00000  Uiso   1.00
H838   H     0.38441   0.51950   0.91542   0.00000  Uiso   1.00
H839   H     0.41561   0.51321   0.55822   0.00000  Uiso   1.00
H840   H     0.35907   0.52625   0.51075   0.00000  Uiso   1.00
H841   H     0.54183   0.44886   0.87174   0.00000  Uiso   1.00
C842   C     0.53290   0.64540   0.76987   0.00000  Uiso   1.00
H843   H     0.55886   0.62923   0.78468   0.00000  Uiso   1.00
C844   C     0.53273   0.35479   0.77031   0.00000  Uiso   1.00
H845   H     0.55793   0.37110   0.78623   0.00000  Uiso   1.00
C846   C     0.49959   0.37615   0.75116   0.00000  Uiso   1.00
C847   C     0.46549   0.35467   0.73315   0.00000  Uiso   1.00
H848   H     0.43947   0.37081   0.71838   0.00000  Uiso   1.00
C849   C     0.46517   0.64530   0.73340   0.00000  Uiso   1.00
H850   H     0.43896   0.62906   0.71885   0.00000  Uiso   1.00
C851   C     0.49921   0.62391   0.75125   0.00000  Uiso   1.00
C852   C     0.63269   0.52796   0.78030   0.00000  Uiso   1.00
H853   H     0.60675   0.55027   0.80479   0.00000  Uiso   1.00
C854   C     0.34883   0.52780   0.78046   0.00000  Uiso   1.00
H855   H     0.35999   0.55005   0.80506   0.00000  Uiso   1.00
N856   N     0.38265   0.49999   0.74998   0.00000  Uiso   1.00
C857   C     0.36823   0.47249   0.71969   0.00000  Uiso   1.00
H858   H     0.39525   0.45022   0.69677   0.00000  Uiso   1.00
C859   C     0.65250   0.47163   0.71911   0.00000  Uiso   1.00
N860   N     0.61735   0.50002   0.74999   0.00000  Uiso   1.00
S861   S     0.64249   0.42795   0.68159   0.00000  Uiso   1.00
O862   O     0.35461   0.42081   0.63555   0.00000  Uiso   1.00
O863   O     0.63693   0.39123   0.71572   0.00000  Uiso   1.00
O864   O     0.59537   0.42927   0.65729   0.00000  Uiso   1.00
H865   H     0.59417   0.40110   0.64254   0.00000  Uiso   1.00
N866   N     0.61741   0.44001   0.90414   0.00000  Uiso   1.00
O867   O     0.61811   0.40619   0.87671   0.00000  Uiso   1.00
O868   O     0.65746   0.46098   0.89526   0.00000  Uiso   1.00
O869   O     0.79375   0.56011   0.75000   0.00000  Uiso   1.00
O870   O     0.87294   0.56012   0.75000   0.00000  Uiso   1.00
C871   C     0.83304   0.57927   0.75046   0.00000  Uiso   1.00
O872   O     0.77441   0.49998   0.82549   0.00000  Uiso   1.00
O873   O     0.85360   0.49999   0.82549   0.00000  Uiso   1.00
C874   C     0.80701   0.49791   0.85006   0.00000  Uiso   1.00
Cu875  Cu    0.78645   0.49999   0.75000   0.00000  Uiso   1.00
Cu876  Cu    0.88022   0.50001   0.75000   0.00000  Uiso   1.00
O877   O     0.79373   0.43988   0.74999   0.00000  Uiso   1.00
O878   O     0.87292   0.43989   0.74999   0.00000  Uiso   1.00
O879   O     0.81306   0.50001   0.67451   0.00000  Uiso   1.00
O880   O     0.89225   0.50002   0.67451   0.00000  Uiso   1.00
C881   C     0.83326   0.42075   0.75053   0.00000  Uiso   1.00
C882   C     0.85973   0.50004   0.64980   0.00000  Uiso   1.00
C883   C     0.93211   0.47015   0.51095   0.00000  Uiso   1.00
H884   H     0.95049   0.47817   0.58173   0.00000  Uiso   1.00
H885   H     0.96826   0.45748   0.99077   0.00000  Uiso   1.00
C886   C     0.87499   0.49588   0.59244   0.00000  Uiso   1.00
C887   C     0.74351   0.51065   0.93555   0.00000  Uiso   1.00
C888   C     0.72924   0.51537   0.98960   0.00000  Uiso   1.00
C889   C     0.76276   0.50811   0.51645   0.00000  Uiso   1.00
C890   C     0.81142   0.49421   0.98961   0.00000  Uiso   1.00
C891   C     0.82361   0.48433   0.93542   0.00000  Uiso   1.00
C892   C     0.84829   0.48980   0.51463   0.00000  Uiso   1.00
C893   C     0.89560   0.47328   0.98605   0.00000  Uiso   1.00
C894   C     0.90459   0.45872   0.93404   0.00000  Uiso   1.00
C895   C     0.86801   0.46282   0.91038   0.00000  Uiso   1.00
C896   C     0.83956   0.50170   0.56737   0.00000  Uiso   1.00
C897   C     0.92202   0.48181   0.56347   0.00000  Uiso   1.00
C898   C     0.79088   0.49611   0.90768   0.00000  Uiso   1.00
H899   H     0.80499   0.51521   0.59048   0.00000  Uiso   1.00
H900   H     0.71774   0.51950   0.91542   0.00000  Uiso   1.00
H901   H     0.74894   0.51321   0.55822   0.00000  Uiso   1.00
H902   H     0.69241   0.52625   0.51075   0.00000  Uiso   1.00
H903   H     0.87517   0.44886   0.87174   0.00000  Uiso   1.00
C904   C     0.86624   0.64540   0.76987   0.00000  Uiso   1.00
H905   H     0.89220   0.62923   0.78468   0.00000  Uiso   1.00
C906   C     0.86606   0.35479   0.77031   0.00000  Uiso   1.00
H907   H     0.89126   0.37110   0.78623   0.00000  Uiso   1.00
C908   C     0.83293   0.37615   0.75116   0.00000  Uiso   1.00
C909   C     0.79882   0.35467   0.73315   0.00000  Uiso   1.00
H910   H     0.77281   0.37081   0.71838   0.00000  Uiso   1.00
C911   C     0.79850   0.64530   0.73340   0.00000  Uiso   1.00
H912   H     0.77229   0.62906   0.71885   0.00000  Uiso   1.00
C913   C     0.83254   0.62391   0.75125   0.00000  Uiso   1.00
C914   C     0.96603   0.52796   0.78030   0.00000  Uiso   1.00
H915   H     0.94009   0.55027   0.80479   0.00000  Uiso   1.00
C916   C     0.68216   0.52780   0.78046   0.00000  Uiso   1.00
H917   H     0.69333   0.55005   0.80506   0.00000  Uiso   1.00
N918   N     0.71598   0.49999   0.74998   0.00000  Uiso   1.00
C919   C     0.70156   0.47249   0.71969   0.00000  Uiso   1.00
H920   H     0.72859   0.45022   0.69677   0.00000  Uiso   1.00
C921   C     0.98584   0.47163   0.71911   0.00000  Uiso   1.00
N922   N     0.95069   0.50002   0.74999   0.00000  Uiso   1.00
S923   S     0.97582   0.42795   0.68159   0.00000  Uiso   1.00
O924   O     0.68794   0.42081   0.63555   0.00000  Uiso   1.00
O925   O     0.97027   0.39123   0.71572   0.00000  Uiso   1.00
O926   O     0.92870   0.42927   0.65729   0.00000  Uiso   1.00
H927   H     0.92751   0.40110   0.64254   0.00000  Uiso   1.00
N928   N     0.95075   0.44001   0.90414   0.00000  Uiso   1.00
O929   O     0.95144   0.40619   0.87671   0.00000  Uiso   1.00
O930   O     0.99079   0.46098   0.89526   0.00000  Uiso   1.00
O931   O     0.12708   0.89345   0.75000   0.00000  Uiso   1.00
O932   O     0.20627   0.89346   0.75000   0.00000  Uiso   1.00
C933   C     0.16637   0.91260   0.75046   0.00000  Uiso   1.00
O934   O     0.10775   0.83332   0.82549   0.00000  Uiso   1.00
O935   O     0.18694   0.83333   0.82549   0.00000  Uiso   1.00
C936   C     0.14035   0.83124   0.85006   0.00000  Uiso   1.00
Cu937  Cu    0.11978   0.83333   0.75000   0.00000  Uiso   1.00
Cu938  Cu    0.21355   0.83334   0.75000   0.00000  Uiso   1.00
O939   O     0.12706   0.77321   0.74999   0.00000  Uiso   1.00
O940   O     0.20625   0.77322   0.74999   0.00000  Uiso   1.00
O941   O     0.14640   0.83334   0.67451   0.00000  Uiso   1.00
O942   O     0.22559   0.83335   0.67451   0.00000  Uiso   1.00
C943   C     0.16660   0.75409   0.75053   0.00000  Uiso   1.00
C944   C     0.19307   0.83338   0.64980   0.00000  Uiso   1.00
C945   C     0.26545   0.80348   0.51095   0.00000  Uiso   1.00
H946   H     0.28382   0.81151   0.58173   0.00000  Uiso   1.00
H947   H     0.30160   0.79081   0.99077   0.00000  Uiso   1.00
C948   C     0.20833   0.82921   0.59244   0.00000  Uiso   1.00
C949   C     0.07685   0.84399   0.93555   0.00000  Uiso   1.00
C950   C     0.06258   0.84871   0.98960   0.00000  Uiso   1.00
C951   C     0.09610   0.84144   0.51645   0.00000  Uiso   1.00
C952   C     0.14475   0.82755   0.98961   0.00000  Uiso   1.00
C953   C     0.15695   0.81766   0.93542   0.00000  Uiso   1.00
C954   C     0.18163   0.82313   0.51463   0.00000  Uiso   1.00
C955   C     0.22894   0.80661   0.98605   0.00000  Uiso   1.00
C956   C     0.23792   0.79205   0.93404   0.00000  Uiso   1.00
C957   C     0.20134   0.79615   0.91038   0.00000  Uiso   1.00
C958   C     0.17289   0.83503   0.56737   0.00000  Uiso   1.00
C959   C     0.25535   0.81514   0.56347   0.00000  Uiso   1.00
C960   C     0.12421   0.82944   0.90768   0.00000  Uiso   1.00
H961   H     0.13832   0.84855   0.59048   0.00000  Uiso   1.00
H962   H     0.05108   0.85284   0.91542   0.00000  Uiso   1.00
H963   H     0.08228   0.84655   0.55822   0.00000  Uiso   1.00
H964   H     0.02574   0.85959   0.51075   0.00000  Uiso   1.00
H965   H     0.20850   0.78220   0.87174   0.00000  Uiso   1.00
C966   C     0.19957   0.97873   0.76987   0.00000  Uiso   1.00
H967   H     0.22553   0.96256   0.78468   0.00000  Uiso   1.00
C968   C     0.19940   0.68813   0.77031   0.00000  Uiso   1.00
H969   H     0.22460   0.70443   0.78623   0.00000  Uiso   1.00
C970   C     0.16626   0.70948   0.75116   0.00000  Uiso   1.00
C971   C     0.13215   0.68800   0.73315   0.00000  Uiso   1.00
H972   H     0.10614   0.70414   0.71838   0.00000  Uiso   1.00
C973   C     0.13184   0.97864   0.73340   0.00000  Uiso   1.00
H974   H     0.10562   0.96240   0.71885   0.00000  Uiso   1.00
C975   C     0.16588   0.95724   0.75125   0.00000  Uiso   1.00
C976   C     0.29936   0.86129   0.78030   0.00000  Uiso   1.00
H977   H     0.27342   0.88361   0.80479   0.00000  Uiso   1.00
C978   C     0.01550   0.86114   0.78046   0.00000  Uiso   1.00
H979   H     0.02666   0.88338   0.80506   0.00000  Uiso   1.00
N980   N     0.04931   0.83332   0.74998   0.00000  Uiso   1.00
C981   C     0.03490   0.80583   0.71969   0.00000  Uiso   1.00
H982   H     0.06192   0.78356   0.69677   0.00000  Uiso   1.00
C983   C     0.31917   0.80497   0.71911   0.00000  Uiso   1.00
N984   N     0.28402   0.83335   0.74999   0.00000  Uiso   1.00
S985   S     0.30915   0.76128   0.68159   0.00000  Uiso   1.00
O986   O     0.02128   0.75415   0.63555   0.00000  Uiso   1.00
O987   O     0.30360   0.72456   0.71572   0.00000  Uiso   1.00
O988   O     0.26203   0.76261   0.65729   0.00000  Uiso   1.00
H989   H     0.26084   0.73443   0.64254   0.00000  Uiso   1.00
N990   N     0.28408   0.77334   0.90414   0.00000  Uiso   1.00
O991   O     0.28478   0.73952   0.87671   0.00000  Uiso   1.00
O992   O     0.32412   0.79432   0.89526   0.00000  Uiso   1.00
O993   O     0.46042   0.89345   0.75000   0.00000  Uiso   1.00
O994   O     0.53961   0.89346   0.75000   0.00000  Uiso   1.00
C995   C     0.49970   0.91260   0.75046   0.00000  Uiso   1.00
O996   O     0.44108   0.83332   0.82549   0.00000  Uiso   1.00
O997   O     0.52027   0.83333   0.82549   0.00000  Uiso   1.00
C998   C     0.47368   0.83124   0.85006   0.00000  Uiso   1.00
Cu999  Cu    0.45311   0.83333   0.75000   0.00000  Uiso   1.00
Cu1000 Cu    0.54689   0.83334   0.75000   0.00000  Uiso   1.00
O1001  O     0.46039   0.77321   0.74999   0.00000  Uiso   1.00
O1002  O     0.53958   0.77322   0.74999   0.00000  Uiso   1.00
O1003  O     0.47973   0.83334   0.67451   0.00000  Uiso   1.00
O1004  O     0.55892   0.83335   0.67451   0.00000  Uiso   1.00
C1005  C     0.49993   0.75409   0.75053   0.00000  Uiso   1.00
C1006  C     0.52640   0.83338   0.64980   0.00000  Uiso   1.00
C1007  C     0.59878   0.80348   0.51095   0.00000  Uiso   1.00
H1008  H     0.61716   0.81151   0.58173   0.00000  Uiso   1.00
H1009  H     0.63493   0.79081   0.99077   0.00000  Uiso   1.00
C1010  C     0.54166   0.82921   0.59244   0.00000  Uiso   1.00
C1011  C     0.41018   0.84399   0.93555   0.00000  Uiso   1.00
C1012  C     0.39591   0.84871   0.98960   0.00000  Uiso   1.00
C1013  C     0.42943   0.84144   0.51645   0.00000  Uiso   1.00
C1014  C     0.47809   0.82755   0.98961   0.00000  Uiso   1.00
C1015  C     0.49028   0.81766   0.93542   0.00000  Uiso   1.00
C1016  C     0.51496   0.82313   0.51463   0.00000  Uiso   1.00
C1017  C     0.56227   0.80661   0.98605   0.00000  Uiso   1.00
C1018  C     0.57126   0.79205   0.93404   0.00000  Uiso   1.00
C1019  C     0.53468   0.79615   0.91038   0.00000  Uiso   1.00
C1020  C     0.50622   0.83503   0.56737   0.00000  Uiso   1.00
C1021  C     0.58868   0.81514   0.56347   0.00000  Uiso   1.00
C1022  C     0.45755   0.82944   0.90768   0.00000  Uiso   1.00
H1023  H     0.47165   0.84855   0.59048   0.00000  Uiso   1.00
H1024  H     0.38441   0.85284   0.91542   0.00000  Uiso   1.00
H1025  H     0.41561   0.84655   0.55822   0.00000  Uiso   1.00
H1026  H     0.35907   0.85959   0.51075   0.00000  Uiso   1.00
H1027  H     0.54183   0.78220   0.87174   0.00000  Uiso   1.00
C1028  C     0.53290   0.97873   0.76987   0.00000  Uiso   1.00
H1029  H     0.55886   0.96256   0.78468   0.00000  Uiso   1.00
C1030  C     0.53273   0.68813   0.77031   0.00000  Uiso   1.00
H1031  H     0.55793   0.70443   0.78623   0.00000  Uiso   1.00
C1032  C     0.49959   0.70948   0.75116   0.00000  Uiso   1.00
C1033  C     0.46549   0.68800   0.73315   0.00000  Uiso   1.00
H1034  H     0.43947   0.70414   0.71838   0.00000  Uiso   1.00
C1035  C     0.46517   0.97864   0.73340   0.00000  Uiso   1.00
H1036  H     0.43896   0.96240   0.71885   0.00000  Uiso   1.00
C1037  C     0.49921   0.95724   0.75125   0.00000  Uiso   1.00
C1038  C     0.63269   0.86129   0.78030   0.00000  Uiso   1.00
H1039  H     0.60675   0.88361   0.80479   0.00000  Uiso   1.00
C1040  C     0.34883   0.86114   0.78046   0.00000  Uiso   1.00
H1041  H     0.35999   0.88338   0.80506   0.00000  Uiso   1.00
N1042  N     0.38265   0.83332   0.74998   0.00000  Uiso   1.00
C1043  C     0.36823   0.80583   0.71969   0.00000  Uiso   1.00
H1044  H     0.39525   0.78356   0.69677   0.00000  Uiso   1.00
C1045  C     0.65250   0.80497   0.71911   0.00000  Uiso   1.00
N1046  N     0.61735   0.83335   0.74999   0.00000  Uiso   1.00
S1047  S     0.64249   0.76128   0.68159   0.00000  Uiso   1.00
O1048  O     0.35461   0.75415   0.63555   0.00000  Uiso   1.00
O1049  O     0.63693   0.72456   0.71572   0.00000  Uiso   1.00
O1050  O     0.59537   0.76261   0.65729   0.00000  Uiso   1.00
H1051  H     0.59417   0.73443   0.64254   0.00000  Uiso   1.00
N1052  N     0.61741   0.77334   0.90414   0.00000  Uiso   1.00
O1053  O     0.61811   0.73952   0.87671   0.00000  Uiso   1.00
O1054  O     0.65746   0.79432   0.89526   0.00000  Uiso   1.00
O1055  O     0.79375   0.89345   0.75000   0.00000  Uiso   1.00
O1056  O     0.87294   0.89346   0.75000   0.00000  Uiso   1.00
C1057  C     0.83304   0.91260   0.75046   0.00000  Uiso   1.00
O1058  O     0.77441   0.83332   0.82549   0.00000  Uiso   1.00
O1059  O     0.85360   0.83333   0.82549   0.00000  Uiso   1.00
C1060  C     0.80701   0.83124   0.85006   0.00000  Uiso   1.00
Cu1061 Cu    0.78645   0.83333   0.75000   0.00000  Uiso   1.00
Cu1062 Cu    0.88022   0.83334   0.75000   0.00000  Uiso   1.00
O1063  O     0.79373   0.77321   0.74999   0.00000  Uiso   1.00
O1064  O     0.87292   0.77322   0.74999   0.00000  Uiso   1.00
O1065  O     0.81306   0.83334   0.67451   0.00000  Uiso   1.00
O1066  O     0.89225   0.83335   0.67451   0.00000  Uiso   1.00
C1067  C     0.83326   0.75409   0.75053   0.00000  Uiso   1.00
C1068  C     0.85973   0.83338   0.64980   0.00000  Uiso   1.00
C1069  C     0.93211   0.80348   0.51095   0.00000  Uiso   1.00
H1070  H     0.95049   0.81151   0.58173   0.00000  Uiso   1.00
H1071  H     0.96826   0.79081   0.99077   0.00000  Uiso   1.00
C1072  C     0.87499   0.82921   0.59244   0.00000  Uiso   1.00
C1073  C     0.74351   0.84399   0.93555   0.00000  Uiso   1.00
C1074  C     0.72924   0.84871   0.98960   0.00000  Uiso   1.00
C1075  C     0.76276   0.84144   0.51645   0.00000  Uiso   1.00
C1076  C     0.81142   0.82755   0.98961   0.00000  Uiso   1.00
C1077  C     0.82361   0.81766   0.93542   0.00000  Uiso   1.00
C1078  C     0.84829   0.82313   0.51463   0.00000  Uiso   1.00
C1079  C     0.89560   0.80661   0.98605   0.00000  Uiso   1.00
C1080  C     0.90459   0.79205   0.93404   0.00000  Uiso   1.00
C1081  C     0.86801   0.79615   0.91038   0.00000  Uiso   1.00
C1082  C     0.83956   0.83503   0.56737   0.00000  Uiso   1.00
C1083  C     0.92202   0.81514   0.56347   0.00000  Uiso   1.00
C1084  C     0.79088   0.82944   0.90768   0.00000  Uiso   1.00
H1085  H     0.80499   0.84855   0.59048   0.00000  Uiso   1.00
H1086  H     0.71774   0.85284   0.91542   0.00000  Uiso   1.00
H1087  H     0.74894   0.84655   0.55822   0.00000  Uiso   1.00
H1088  H     0.69241   0.85959   0.51075   0.00000  Uiso   1.00
H1089  H     0.87517   0.78220   0.87174   0.00000  Uiso   1.00
C1090  C     0.86624   0.97873   0.76987   0.00000  Uiso   1.00
H1091  H     0.89220   0.96256   0.78468   0.00000  Uiso   1.00
C1092  C     0.86606   0.68813   0.77031   0.00000  Uiso   1.00
H1093  H     0.89126   0.70443   0.78623   0.00000  Uiso   1.00
C1094  C     0.83293   0.70948   0.75116   0.00000  Uiso   1.00
C1095  C     0.79882   0.68800   0.73315   0.00000  Uiso   1.00
H1096  H     0.77281   0.70414   0.71838   0.00000  Uiso   1.00
C1097  C     0.79850   0.97864   0.73340   0.00000  Uiso   1.00
H1098  H     0.77229   0.96240   0.71885   0.00000  Uiso   1.00
C1099  C     0.83254   0.95724   0.75125   0.00000  Uiso   1.00
C1100  C     0.96603   0.86129   0.78030   0.00000  Uiso   1.00
H1101  H     0.94009   0.88361   0.80479   0.00000  Uiso   1.00
C1102  C     0.68216   0.86114   0.78046   0.00000  Uiso   1.00
H1103  H     0.69333   0.88338   0.80506   0.00000  Uiso   1.00
N1104  N     0.71598   0.83332   0.74998   0.00000  Uiso   1.00
C1105  C     0.70156   0.80583   0.71969   0.00000  Uiso   1.00
H1106  H     0.72859   0.78356   0.69677   0.00000  Uiso   1.00
C1107  C     0.98584   0.80497   0.71911   0.00000  Uiso   1.00
N1108  N     0.95069   0.83335   0.74999   0.00000  Uiso   1.00
S1109  S     0.97582   0.76128   0.68159   0.00000  Uiso   1.00
O1110  O     0.68794   0.75415   0.63555   0.00000  Uiso   1.00
O1111  O     0.97027   0.72456   0.71572   0.00000  Uiso   1.00
O1112  O     0.92870   0.76261   0.65729   0.00000  Uiso   1.00
H1113  H     0.92751   0.73443   0.64254   0.00000  Uiso   1.00
N1114  N     0.95075   0.77334   0.90414   0.00000  Uiso   1.00
O1115  O     0.95144   0.73952   0.87671   0.00000  Uiso   1.00
O1116  O     0.99079   0.79432   0.89526   0.00000  Uiso   1.00
loop_
_geom_bond_atom_site_label_1
_geom_bond_atom_site_label_2
_geom_bond_distance
_geom_bond_site_symmetry_2
_ccdc_geom_bond_type
O1     Cu7     1.962   .     S
O1     C3      1.295   .     A
O2     C3      1.292   .     A
O2     Cu8     1.958   .     S
C3     C45     1.447   .     S
O4     Cu7     1.950   .     S
O4     C6      1.303   .     A
O5     Cu8     1.934   .     S
O5     C6      1.297   .     A
C6     C30     1.476   .     S
Cu7    O11     1.934   .     S
Cu7    Cu8     2.688   .     S
Cu7    O9      1.958   .     S
Cu7    N50     2.020   .     S
Cu8    O12     1.950   .     S
Cu8    N54     2.020   .     S
Cu8    O10     1.962   .     S
O9     C13     1.290   .     A
O10    C13     1.297   .     A
O11    C14     1.296   .     A
O12    C14     1.302   .     A
C13    C40     1.447   .     S
C14    C18     1.469   .     S
C15    C29     1.392   .     A
C15    H575    1.081   1_554 S
C15    C583    1.411   1_554 S
H16    C29     1.082   .     S
H17    C573    1.081   .     S
C18    C29     1.396   .     A
C18    C28     1.396   .     A
C19    C20     1.386   .     A
C19    C30     1.402   .     A
C19    H32     1.083   .     S
C20    C579    1.391   .     S
C20    H592    1.083   .     S
C21    H33     1.076   .     S
C21    C578    1.391   1_554 S
C21    C580    1.420   1_554 S
C22    C23     1.416   .     A
C22    C579    1.420   .     S
C22    C582    1.426   .     S
C23    C27     1.409   .     A
C23    C30     1.422   .     A
C24    C28     1.404   .     A
C24    C580    1.426   1_554 S
C24    C583    1.426   1_554 S
C25    C26     1.408   .     A
C25    C573    1.411   .     S
C25    C582    1.426   .     S
C26    C27     1.392   .     A
C26    N60     1.437   .     S
C27    H35     1.080   .     S
C28    H31     1.075   .     S
H34    C578    1.083   1_554 S
C36    C45     1.401   .     A
C36    H37     1.084   .     S
C36    C224    1.385   .     S
C38    C40     1.398   .     A
C38    H39     1.082   .     S
C38    C408    1.385   1_545 S
C40    C41     1.401   .     A
C41    H42     1.084   .     S
C41    C415    1.384   1_545 S
C43    C45     1.399   .     A
C43    H44     1.083   .     S
C43    C227    1.384   .     S
C46    N54     1.367   .     A
C46    H47     1.082   .     S
C46    C110    1.419   .     S
C48    H49     1.082   .     S
C48    N50     1.369   .     A
C48    C170    1.419   1_455 S
N50    C51     1.344   .     A
C51    H52     1.082   .     S
C51    C177    1.412   1_455 S
C53    N54     1.405   .     A
C53    S55     1.793   .     S
C53    C113    1.412   .     S
S55    O57     1.502   .     D
S55    O58     1.673   .     S
S55    O118    1.504   .     S
O56    S179    1.504   1_455 S
O58    H59     0.991   .     S
N60    O62     1.301   .     A
N60    O61     1.301   .     A
O63    Cu69    1.962   .     S
O63    C65     1.295   .     A
O64    C65     1.292   .     A
O64    Cu70    1.958   .     S
C65    C107    1.447   .     S
O66    Cu69    1.950   .     S
O66    C68     1.303   .     A
O67    Cu70    1.934   .     S
O67    C68     1.297   .     A
C68    C92     1.476   .     S
Cu69   O73     1.934   .     S
Cu69   Cu70    2.688   .     S
Cu69   O71     1.958   .     S
Cu69   N112    2.020   .     S
Cu70   O74     1.950   .     S
Cu70   N116    2.020   .     S
Cu70   O72     1.962   .     S
O71    C75     1.290   .     A
O72    C75     1.297   .     A
O73    C76     1.296   .     A
O74    C76     1.302   .     A
C75    C102    1.447   .     S
C76    C80     1.469   .     S
C77    C91     1.392   .     A
C77    H637    1.081   1_554 S
C77    C645    1.411   1_554 S
H78    C91     1.082   .     S
H79    C635    1.081   .     S
C80    C91     1.396   .     A
C80    C90     1.396   .     A
C81    C82     1.386   .     A
C81    C92     1.402   .     A
C81    H94     1.083   .     S
C82    C641    1.391   .     S
C82    H654    1.083   .     S
C83    H95     1.076   .     S
C83    C640    1.391   1_554 S
C83    C642    1.420   1_554 S
C84    C85     1.416   .     A
C84    C641    1.420   .     S
C84    C644    1.426   .     S
C85    C89     1.409   .     A
C85    C92     1.422   .     A
C86    C90     1.404   .     A
C86    C642    1.426   1_554 S
C86    C645    1.426   1_554 S
C87    C88     1.408   .     A
C87    C635    1.411   .     S
C87    C644    1.426   .     S
C88    C89     1.392   .     A
C88    N122    1.437   .     S
C89    H97     1.080   .     S
C90    H93     1.075   .     S
H96    C640    1.083   1_554 S
C98    C107    1.401   .     A
C98    H99     1.084   .     S
C98    C286    1.385   .     S
C100   C102    1.398   .     A
C100   H101    1.082   .     S
C100   C470    1.385   1_545 S
C102   C103    1.401   .     A
C103   H104    1.084   .     S
C103   C477    1.384   1_545 S
C105   C107    1.399   .     A
C105   H106    1.083   .     S
C105   C289    1.384   .     S
C108   N116    1.367   .     A
C108   H109    1.082   .     S
C108   C172    1.419   .     S
C110   H111    1.082   .     S
C110   N112    1.369   .     A
N112   C113    1.344   .     A
C113   H114    1.082   .     S
C115   N116    1.405   .     A
C115   S117    1.793   .     S
C115   C175    1.412   .     S
S117   O119    1.502   .     D
S117   O120    1.673   .     S
S117   O180    1.504   .     S
O120   H121    0.991   .     S
N122   O124    1.301   .     A
N122   O123    1.301   .     A
O125   Cu131   1.962   .     S
O125   C127    1.295   .     A
O126   C127    1.292   .     A
O126   Cu132   1.958   .     S
C127   C169    1.447   .     S
O128   Cu131   1.950   .     S
O128   C130    1.303   .     A
O129   Cu132   1.934   .     S
O129   C130    1.297   .     A
C130   C154    1.476   .     S
Cu131  O135    1.934   .     S
Cu131  Cu132   2.688   .     S
Cu131  O133    1.958   .     S
Cu131  N174    2.020   .     S
Cu132  O136    1.950   .     S
Cu132  N178    2.020   .     S
Cu132  O134    1.962   .     S
O133   C137    1.290   .     A
O134   C137    1.297   .     A
O135   C138    1.296   .     A
O136   C138    1.302   .     A
C137   C164    1.447   .     S
C138   C142    1.469   .     S
C139   C153    1.392   .     A
C139   H699    1.081   1_554 S
C139   C707    1.411   1_554 S
H140   C153    1.082   .     S
H141   C697    1.081   .     S
C142   C153    1.396   .     A
C142   C152    1.396   .     A
C143   C144    1.386   .     A
C143   C154    1.402   .     A
C143   H156    1.083   .     S
C144   C703    1.391   .     S
C144   H716    1.083   .     S
C145   H157    1.076   .     S
C145   C702    1.391   1_554 S
C145   C704    1.420   1_554 S
C146   C147    1.416   .     A
C146   C703    1.420   .     S
C146   C706    1.426   .     S
C147   C151    1.409   .     A
C147   C154    1.422   .     A
C148   C152    1.404   .     A
C148   C704    1.426   1_554 S
C148   C707    1.426   1_554 S
C149   C150    1.408   .     A
C149   C697    1.411   .     S
C149   C706    1.426   .     S
C150   C151    1.392   .     A
C150   N184    1.437   .     S
C151   H159    1.080   .     S
C152   H155    1.075   .     S
H158   C702    1.083   1_554 S
C160   C169    1.401   .     A
C160   H161    1.084   .     S
C160   C348    1.385   .     S
C162   C164    1.398   .     A
C162   H163    1.082   .     S
C162   C532    1.385   1_545 S
C164   C165    1.401   .     A
C165   H166    1.084   .     S
C165   C539    1.384   1_545 S
C167   C169    1.399   .     A
C167   H168    1.083   .     S
C167   C351    1.384   .     S
C170   N178    1.367   .     A
C170   H171    1.082   .     S
C170   C48     1.419   1_655 S
C172   H173    1.082   .     S
C172   N174    1.369   .     A
N174   C175    1.344   .     A
C175   H176    1.082   .     S
C177   N178    1.405   .     A
C177   S179    1.793   .     S
C177   C51     1.412   1_655 S
S179   O181    1.502   .     D
S179   O182    1.673   .     S
S179   O56     1.504   1_655 S
O182   H183    0.991   .     S
N184   O186    1.301   .     A
N184   O185    1.301   .     A
O187   Cu193   1.962   .     S
O187   C189    1.295   .     A
O188   C189    1.292   .     A
O188   Cu194   1.958   .     S
C189   C231    1.447   .     S
O190   Cu193   1.950   .     S
O190   C192    1.303   .     A
O191   Cu194   1.934   .     S
O191   C192    1.297   .     A
C192   C216    1.476   .     S
Cu193  O197    1.934   .     S
Cu193  Cu194   2.688   .     S
Cu193  O195    1.958   .     S
Cu193  N236    2.020   .     S
Cu194  O198    1.950   .     S
Cu194  N240    2.020   .     S
Cu194  O196    1.962   .     S
O195   C199    1.290   .     A
O196   C199    1.297   .     A
O197   C200    1.296   .     A
O198   C200    1.302   .     A
C199   C226    1.447   .     S
C200   C204    1.469   .     S
C201   C215    1.392   .     A
C201   H761    1.081   1_554 S
C201   C769    1.411   1_554 S
H202   C215    1.082   .     S
H203   C759    1.081   .     S
C204   C215    1.396   .     A
C204   C214    1.396   .     A
C205   C206    1.386   .     A
C205   C216    1.402   .     A
C205   H218    1.083   .     S
C206   C765    1.391   .     S
C206   H778    1.083   .     S
C207   H219    1.076   .     S
C207   C764    1.391   1_554 S
C207   C766    1.420   1_554 S
C208   C209    1.416   .     A
C208   C765    1.420   .     S
C208   C768    1.426   .     S
C209   C213    1.409   .     A
C209   C216    1.422   .     A
C210   C214    1.404   .     A
C210   C766    1.426   1_554 S
C210   C769    1.426   1_554 S
C211   C212    1.408   .     A
C211   C759    1.411   .     S
C211   C768    1.426   .     S
C212   C213    1.392   .     A
C212   N246    1.437   .     S
C213   H221    1.080   .     S
C214   H217    1.075   .     S
H220   C764    1.083   1_554 S
C222   C231    1.401   .     A
C222   H223    1.084   .     S
C222   C410    1.385   .     S
C224   C226    1.398   .     A
C224   H225    1.082   .     S
C226   C227    1.401   .     A
C227   H228    1.084   .     S
C229   C231    1.399   .     A
C229   H230    1.083   .     S
C229   C413    1.384   .     S
C232   N240    1.367   .     A
C232   H233    1.082   .     S
C232   C296    1.419   .     S
C234   H235    1.082   .     S
C234   N236    1.369   .     A
C234   C356    1.419   1_455 S
N236   C237    1.344   .     A
C237   H238    1.082   .     S
C237   C363    1.412   1_455 S
C239   N240    1.405   .     A
C239   S241    1.793   .     S
C239   C299    1.412   .     S
S241   O243    1.502   .     D
S241   O244    1.673   .     S
S241   O304    1.504   .     S
O242   S365    1.504   1_455 S
O244   H245    0.991   .     S
N246   O248    1.301   .     A
N246   O247    1.301   .     A
O249   Cu255   1.962   .     S
O249   C251    1.295   .     A
O250   C251    1.292   .     A
O250   Cu256   1.958   .     S
C251   C293    1.447   .     S
O252   Cu255   1.950   .     S
O252   C254    1.303   .     A
O253   Cu256   1.934   .     S
O253   C254    1.297   .     A
C254   C278    1.476   .     S
Cu255  O259    1.934   .     S
Cu255  Cu256   2.688   .     S
Cu255  O257    1.958   .     S
Cu255  N298    2.020   .     S
Cu256  O260    1.950   .     S
Cu256  N302    2.020   .     S
Cu256  O258    1.962   .     S
O257   C261    1.290   .     A
O258   C261    1.297   .     A
O259   C262    1.296   .     A
O260   C262    1.302   .     A
C261   C288    1.447   .     S
C262   C266    1.469   .     S
C263   C277    1.392   .     A
C263   H823    1.081   1_554 S
C263   C831    1.411   1_554 S
H264   C277    1.082   .     S
H265   C821    1.081   .     S
C266   C277    1.396   .     A
C266   C276    1.396   .     A
C267   C268    1.386   .     A
C267   C278    1.402   .     A
C267   H280    1.083   .     S
C268   C827    1.391   .     S
C268   H840    1.083   .     S
C269   H281    1.076   .     S
C269   C826    1.391   1_554 S
C269   C828    1.420   1_554 S
C270   C271    1.416   .     A
C270   C827    1.420   .     S
C270   C830    1.426   .     S
C271   C275    1.409   .     A
C271   C278    1.422   .     A
C272   C276    1.404   .     A
C272   C828    1.426   1_554 S
C272   C831    1.426   1_554 S
C273   C274    1.408   .     A
C273   C821    1.411   .     S
C273   C830    1.426   .     S
C274   C275    1.392   .     A
C274   N308    1.437   .     S
C275   H283    1.080   .     S
C276   H279    1.075   .     S
H282   C826    1.083   1_554 S
C284   C293    1.401   .     A
C284   H285    1.084   .     S
C284   C472    1.385   .     S
C286   C288    1.398   .     A
C286   H287    1.082   .     S
C288   C289    1.401   .     A
C289   H290    1.084   .     S
C291   C293    1.399   .     A
C291   H292    1.083   .     S
C291   C475    1.384   .     S
C294   N302    1.367   .     A
C294   H295    1.082   .     S
C294   C358    1.419   .     S
C296   H297    1.082   .     S
C296   N298    1.369   .     A
N298   C299    1.344   .     A
C299   H300    1.082   .     S
C301   N302    1.405   .     A
C301   S303    1.793   .     S
C301   C361    1.412   .     S
S303   O305    1.502   .     D
S303   O306    1.673   .     S
S303   O366    1.504   .     S
O306   H307    0.991   .     S
N308   O310    1.301   .     A
N308   O309    1.301   .     A
O311   Cu317   1.962   .     S
O311   C313    1.295   .     A
O312   C313    1.292   .     A
O312   Cu318   1.958   .     S
C313   C355    1.447   .     S
O314   Cu317   1.950   .     S
O314   C316    1.303   .     A
O315   Cu318   1.934   .     S
O315   C316    1.297   .     A
C316   C340    1.476   .     S
Cu317  O321    1.934   .     S
Cu317  Cu318   2.688   .     S
Cu317  O319    1.958   .     S
Cu317  N360    2.020   .     S
Cu318  O322    1.950   .     S
Cu318  N364    2.020   .     S
Cu318  O320    1.962   .     S
O319   C323    1.290   .     A
O320   C323    1.297   .     A
O321   C324    1.296   .     A
O322   C324    1.302   .     A
C323   C350    1.447   .     S
C324   C328    1.469   .     S
C325   C339    1.392   .     A
C325   H885    1.081   1_554 S
C325   C893    1.411   1_554 S
H326   C339    1.082   .     S
H327   C883    1.081   .     S
C328   C339    1.396   .     A
C328   C338    1.396   .     A
C329   C330    1.386   .     A
C329   C340    1.402   .     A
C329   H342    1.083   .     S
C330   C889    1.391   .     S
C330   H902    1.083   .     S
C331   H343    1.076   .     S
C331   C888    1.391   1_554 S
C331   C890    1.420   1_554 S
C332   C333    1.416   .     A
C332   C889    1.420   .     S
C332   C892    1.426   .     S
C333   C337    1.409   .     A
C333   C340    1.422   .     A
C334   C338    1.404   .     A
C334   C890    1.426   1_554 S
C334   C893    1.426   1_554 S
C335   C336    1.408   .     A
C335   C883    1.411   .     S
C335   C892    1.426   .     S
C336   C337    1.392   .     A
C336   N370    1.437   .     S
C337   H345    1.080   .     S
C338   H341    1.075   .     S
H344   C888    1.083   1_554 S
C346   C355    1.401   .     A
C346   H347    1.084   .     S
C346   C534    1.385   .     S
C348   C350    1.398   .     A
C348   H349    1.082   .     S
C350   C351    1.401   .     A
C351   H352    1.084   .     S
C353   C355    1.399   .     A
C353   H354    1.083   .     S
C353   C537    1.384   .     S
C356   N364    1.367   .     A
C356   H357    1.082   .     S
C356   C234    1.419   1_655 S
C358   H359    1.082   .     S
C358   N360    1.369   .     A
N360   C361    1.344   .     A
C361   H362    1.082   .     S
C363   N364    1.405   .     A
C363   S365    1.793   .     S
C363   C237    1.412   1_655 S
S365   O367    1.502   .     D
S365   O368    1.673   .     S
S365   O242    1.504   1_655 S
O368   H369    0.991   .     S
N370   O372    1.301   .     A
N370   O371    1.301   .     A
O373   Cu379   1.962   .     S
O373   C375    1.295   .     A
O374   C375    1.292   .     A
O374   Cu380   1.958   .     S
C375   C417    1.447   .     S
O376   Cu379   1.950   .     S
O376   C378    1.303   .     A
O377   Cu380   1.934   .     S
O377   C378    1.297   .     A
C378   C402    1.476   .     S
Cu379  O383    1.934   .     S
Cu379  Cu380   2.688   .     S
Cu379  O381    1.958   .     S
Cu379  N422    2.020   .     S
Cu380  O384    1.950   .     S
Cu380  N426    2.020   .     S
Cu380  O382    1.962   .     S
O381   C385    1.290   .     A
O382   C385    1.297   .     A
O383   C386    1.296   .     A
O384   C386    1.302   .     A
C385   C412    1.447   .     S
C386   C390    1.469   .     S
C387   C401    1.392   .     A
C387   H947    1.081   1_554 S
C387   C955    1.411   1_554 S
H388   C401    1.082   .     S
H389   C945    1.081   .     S
C390   C401    1.396   .     A
C390   C400    1.396   .     A
C391   C392    1.386   .     A
C391   C402    1.402   .     A
C391   H404    1.083   .     S
C392   C951    1.391   .     S
C392   H964    1.083   .     S
C393   H405    1.076   .     S
C393   C950    1.391   1_554 S
C393   C952    1.420   1_554 S
C394   C395    1.416   .     A
C394   C951    1.420   .     S
C394   C954    1.426   .     S
C395   C399    1.409   .     A
C395   C402    1.422   .     A
C396   C400    1.404   .     A
C396   C952    1.426   1_554 S
C396   C955    1.426   1_554 S
C397   C398    1.408   .     A
C397   C945    1.411   .     S
C397   C954    1.426   .     S
C398   C399    1.392   .     A
C398   N432    1.437   .     S
C399   H407    1.080   .     S
C400   H403    1.075   .     S
H406   C950    1.083   1_554 S
C408   C417    1.401   .     A
C408   H409    1.084   .     S
C408   C38     1.385   1_565 S
C410   C412    1.398   .     A
C410   H411    1.082   .     S
C412   C413    1.401   .     A
C413   H414    1.084   .     S
C415   C417    1.399   .     A
C415   H416    1.083   .     S
C415   C41     1.384   1_565 S
C418   N426    1.367   .     A
C418   H419    1.082   .     S
C418   C482    1.419   .     S
C420   H421    1.082   .     S
C420   N422    1.369   .     A
C420   C542    1.419   1_455 S
N422   C423    1.344   .     A
C423   H424    1.082   .     S
C423   C549    1.412   1_455 S
C425   N426    1.405   .     A
C425   S427    1.793   .     S
C425   C485    1.412   .     S
S427   O429    1.502   .     D
S427   O430    1.673   .     S
S427   O490    1.504   .     S
O428   S551    1.504   1_455 S
O430   H431    0.991   .     S
N432   O434    1.301   .     A
N432   O433    1.301   .     A
O435   Cu441   1.962   .     S
O435   C437    1.295   .     A
O436   C437    1.292   .     A
O436   Cu442   1.958   .     S
C437   C479    1.447   .     S
O438   Cu441   1.950   .     S
O438   C440    1.303   .     A
O439   Cu442   1.934   .     S
O439   C440    1.297   .     A
C440   C464    1.476   .     S
Cu441  O445    1.934   .     S
Cu441  Cu442   2.688   .     S
Cu441  O443    1.958   .     S
Cu441  N484    2.020   .     S
Cu442  O446    1.950   .     S
Cu442  N488    2.020   .     S
Cu442  O444    1.962   .     S
O443   C447    1.290   .     A
O444   C447    1.297   .     A
O445   C448    1.296   .     A
O446   C448    1.302   .     A
C447   C474    1.447   .     S
C448   C452    1.469   .     S
C449   C463    1.392   .     A
C449   H1009   1.081   1_554 S
C449   C1017   1.411   1_554 S
H450   C463    1.082   .     S
H451   C1007   1.081   .     S
C452   C463    1.396   .     A
C452   C462    1.396   .     A
C453   C454    1.386   .     A
C453   C464    1.402   .     A
C453   H466    1.083   .     S
C454   C1013   1.391   .     S
C454   H1026   1.083   .     S
C455   H467    1.076   .     S
C455   C1012   1.391   1_554 S
C455   C1014   1.420   1_554 S
C456   C457    1.416   .     A
C456   C1013   1.420   .     S
C456   C1016   1.426   .     S
C457   C461    1.409   .     A
C457   C464    1.422   .     A
C458   C462    1.404   .     A
C458   C1014   1.426   1_554 S
C458   C1017   1.426   1_554 S
C459   C460    1.408   .     A
C459   C1007   1.411   .     S
C459   C1016   1.426   .     S
C460   C461    1.392   .     A
C460   N494    1.437   .     S
C461   H469    1.080   .     S
C462   H465    1.075   .     S
H468   C1012   1.083   1_554 S
C470   C479    1.401   .     A
C470   H471    1.084   .     S
C470   C100    1.385   1_565 S
C472   C474    1.398   .     A
C472   H473    1.082   .     S
C474   C475    1.401   .     A
C475   H476    1.084   .     S
C477   C479    1.399   .     A
C477   H478    1.083   .     S
C477   C103    1.384   1_565 S
C480   N488    1.367   .     A
C480   H481    1.082   .     S
C480   C544    1.419   .     S
C482   H483    1.082   .     S
C482   N484    1.369   .     A
N484   C485    1.344   .     A
C485   H486    1.082   .     S
C487   N488    1.405   .     A
C487   S489    1.793   .     S
C487   C547    1.412   .     S
S489   O491    1.502   .     D
S489   O492    1.673   .     S
S489   O552    1.504   .     S
O492   H493    0.991   .     S
N494   O496    1.301   .     A
N494   O495    1.301   .     A
O497   Cu503   1.962   .     S
O497   C499    1.295   .     A
O498   C499    1.292   .     A
O498   Cu504   1.958   .     S
C499   C541    1.447   .     S
O500   Cu503   1.950   .     S
O500   C502    1.303   .     A
O501   Cu504   1.934   .     S
O501   C502    1.297   .     A
C502   C526    1.476   .     S
Cu503  O507    1.934   .     S
Cu503  Cu504   2.688   .     S
Cu503  O505    1.958   .     S
Cu503  N546    2.020   .     S
Cu504  O508    1.950   .     S
Cu504  N550    2.020   .     S
Cu504  O506    1.962   .     S
O505   C509    1.290   .     A
O506   C509    1.297   .     A
O507   C510    1.296   .     A
O508   C510    1.302   .     A
C509   C536    1.447   .     S
C510   C514    1.469   .     S
C511   C525    1.392   .     A
C511   H1071   1.081   1_554 S
C511   C1079   1.411   1_554 S
H512   C525    1.082   .     S
H513   C1069   1.081   .     S
C514   C525    1.396   .     A
C514   C524    1.396   .     A
C515   C516    1.386   .     A
C515   C526    1.402   .     A
C515   H528    1.083   .     S
C516   C1075   1.391   .     S
C516   H1088   1.083   .     S
C517   H529    1.076   .     S
C517   C1074   1.391   1_554 S
C517   C1076   1.420   1_554 S
C518   C519    1.416   .     A
C518   C1075   1.420   .     S
C518   C1078   1.426   .     S
C519   C523    1.409   .     A
C519   C526    1.422   .     A
C520   C524    1.404   .     A
C520   C1076   1.426   1_554 S
C520   C1079   1.426   1_554 S
C521   C522    1.408   .     A
C521   C1069   1.411   .     S
C521   C1078   1.426   .     S
C522   C523    1.392   .     A
C522   N556    1.437   .     S
C523   H531    1.080   .     S
C524   H527    1.075   .     S
H530   C1074   1.083   1_554 S
C532   C541    1.401   .     A
C532   H533    1.084   .     S
C532   C162    1.385   1_565 S
C534   C536    1.398   .     A
C534   H535    1.082   .     S
C536   C537    1.401   .     A
C537   H538    1.084   .     S
C539   C541    1.399   .     A
C539   H540    1.083   .     S
C539   C165    1.384   1_565 S
C542   N550    1.367   .     A
C542   H543    1.082   .     S
C542   C420    1.419   1_655 S
C544   H545    1.082   .     S
C544   N546    1.369   .     A
N546   C547    1.344   .     A
C547   H548    1.082   .     S
C549   N550    1.405   .     A
C549   S551    1.793   .     S
C549   C423    1.412   1_655 S
S551   O553    1.502   .     D
S551   O554    1.673   .     S
S551   O428    1.504   1_655 S
O554   H555    0.991   .     S
N556   O558    1.301   .     A
N556   O557    1.301   .     A
O559   Cu565   1.962   .     S
O559   C561    1.295   .     A
O560   C561    1.292   .     A
O560   Cu566   1.958   .     S
C561   C603    1.447   .     S
O562   Cu565   1.950   .     S
O562   C564    1.303   .     A
O563   Cu566   1.934   .     S
O563   C564    1.297   .     A
C564   C588    1.476   .     S
Cu565  O569    1.934   .     S
Cu565  Cu566   2.688   .     S
Cu565  O567    1.958   .     S
Cu565  N608    2.020   .     S
Cu566  O570    1.950   .     S
Cu566  N612    2.020   .     S
Cu566  O568    1.962   .     S
O567   C571    1.290   .     A
O568   C571    1.297   .     A
O569   C572    1.296   .     A
O570   C572    1.302   .     A
C571   C598    1.447   .     S
C572   C576    1.469   .     S
C573   C587    1.392   .     A
H574   C587    1.082   .     S
H575   C15     1.081   1_556 S
C576   C587    1.396   .     A
C576   C586    1.396   .     A
C577   C578    1.386   .     A
C577   C588    1.402   .     A
C577   H590    1.083   .     S
C578   C21     1.391   1_556 S
C578   H34     1.083   1_556 S
C579   H591    1.076   .     S
C580   C581    1.416   .     A
C580   C21     1.420   1_556 S
C580   C24     1.426   1_556 S
C581   C585    1.409   .     A
C581   C588    1.422   .     A
C582   C586    1.404   .     A
C583   C584    1.408   .     A
C583   C15     1.411   1_556 S
C583   C24     1.426   1_556 S
C584   C585    1.392   .     A
C584   N618    1.437   .     S
C585   H593    1.080   .     S
C586   H589    1.075   .     S
C594   C603    1.401   .     A
C594   H595    1.084   .     S
C594   C782    1.385   .     S
C596   C598    1.398   .     A
C596   H597    1.082   .     S
C596   C966    1.385   1_545 S
C598   C599    1.401   .     A
C599   H600    1.084   .     S
C599   C973    1.384   1_545 S
C601   C603    1.399   .     A
C601   H602    1.083   .     S
C601   C785    1.384   .     S
C604   N612    1.367   .     A
C604   H605    1.082   .     S
C604   C668    1.419   .     S
C606   H607    1.082   .     S
C606   N608    1.369   .     A
C606   C728    1.419   1_455 S
N608   C609    1.344   .     A
C609   H610    1.082   .     S
C609   C735    1.412   1_455 S
C611   N612    1.405   .     A
C611   S613    1.793   .     S
C611   C671    1.412   .     S
S613   O615    1.502   .     D
S613   O616    1.673   .     S
S613   O676    1.504   .     S
O614   S737    1.504   1_455 S
O616   H617    0.991   .     S
N618   O620    1.301   .     A
N618   O619    1.301   .     A
O621   Cu627   1.962   .     S
O621   C623    1.295   .     A
O622   C623    1.292   .     A
O622   Cu628   1.958   .     S
C623   C665    1.447   .     S
O624   Cu627   1.950   .     S
O624   C626    1.303   .     A
O625   Cu628   1.934   .     S
O625   C626    1.297   .     A
C626   C650    1.476   .     S
Cu627  O631    1.934   .     S
Cu627  Cu628   2.688   .     S
Cu627  O629    1.958   .     S
Cu627  N670    2.020   .     S
Cu628  O632    1.950   .     S
Cu628  N674    2.020   .     S
Cu628  O630    1.962   .     S
O629   C633    1.290   .     A
O630   C633    1.297   .     A
O631   C634    1.296   .     A
O632   C634    1.302   .     A
C633   C660    1.447   .     S
C634   C638    1.469   .     S
C635   C649    1.392   .     A
H636   C649    1.082   .     S
H637   C77     1.081   1_556 S
C638   C649    1.396   .     A
C638   C648    1.396   .     A
C639   C640    1.386   .     A
C639   C650    1.402   .     A
C639   H652    1.083   .     S
C640   C83     1.391   1_556 S
C640   H96     1.083   1_556 S
C641   H653    1.076   .     S
C642   C643    1.416   .     A
C642   C83     1.420   1_556 S
C642   C86     1.426   1_556 S
C643   C647    1.409   .     A
C643   C650    1.422   .     A
C644   C648    1.404   .     A
C645   C646    1.408   .     A
C645   C77     1.411   1_556 S
C645   C86     1.426   1_556 S
C646   C647    1.392   .     A
C646   N680    1.437   .     S
C647   H655    1.080   .     S
C648   H651    1.075   .     S
C656   C665    1.401   .     A
C656   H657    1.084   .     S
C656   C844    1.385   .     S
C658   C660    1.398   .     A
C658   H659    1.082   .     S
C658   C1028   1.385   1_545 S
C660   C661    1.401   .     A
C661   H662    1.084   .     S
C661   C1035   1.384   1_545 S
C663   C665    1.399   .     A
C663   H664    1.083   .     S
C663   C847    1.384   .     S
C666   N674    1.367   .     A
C666   H667    1.082   .     S
C666   C730    1.419   .     S
C668   H669    1.082   .     S
C668   N670    1.369   .     A
N670   C671    1.344   .     A
C671   H672    1.082   .     S
C673   N674    1.405   .     A
C673   S675    1.793   .     S
C673   C733    1.412   .     S
S675   O677    1.502   .     D
S675   O678    1.673   .     S
S675   O738    1.504   .     S
O678   H679    0.991   .     S
N680   O682    1.301   .     A
N680   O681    1.301   .     A
O683   Cu689   1.962   .     S
O683   C685    1.295   .     A
O684   C685    1.292   .     A
O684   Cu690   1.958   .     S
C685   C727    1.447   .     S
O686   Cu689   1.950   .     S
O686   C688    1.303   .     A
O687   Cu690   1.934   .     S
O687   C688    1.297   .     A
C688   C712    1.476   .     S
Cu689  O693    1.934   .     S
Cu689  Cu690   2.688   .     S
Cu689  O691    1.958   .     S
Cu689  N732    2.020   .     S
Cu690  O694    1.950   .     S
Cu690  N736    2.020   .     S
Cu690  O692    1.962   .     S
O691   C695    1.290   .     A
O692   C695    1.297   .     A
O693   C696    1.296   .     A
O694   C696    1.302   .     A
C695   C722    1.447   .     S
C696   C700    1.469   .     S
C697   C711    1.392   .     A
H698   C711    1.082   .     S
H699   C139    1.081   1_556 S
C700   C711    1.396   .     A
C700   C710    1.396   .     A
C701   C702    1.386   .     A
C701   C712    1.402   .     A
C701   H714    1.083   .     S
C702   C145    1.391   1_556 S
C702   H158    1.083   1_556 S
C703   H715    1.076   .     S
C704   C705    1.416   .     A
C704   C145    1.420   1_556 S
C704   C148    1.426   1_556 S
C705   C709    1.409   .     A
C705   C712    1.422   .     A
C706   C710    1.404   .     A
C707   C708    1.408   .     A
C707   C139    1.411   1_556 S
C707   C148    1.426   1_556 S
C708   C709    1.392   .     A
C708   N742    1.437   .     S
C709   H717    1.080   .     S
C710   H713    1.075   .     S
C718   C727    1.401   .     A
C718   H719    1.084   .     S
C718   C906    1.385   .     S
C720   C722    1.398   .     A
C720   H721    1.082   .     S
C720   C1090   1.385   1_545 S
C722   C723    1.401   .     A
C723   H724    1.084   .     S
C723   C1097   1.384   1_545 S
C725   C727    1.399   .     A
C725   H726    1.083   .     S
C725   C909    1.384   .     S
C728   N736    1.367   .     A
C728   H729    1.082   .     S
C728   C606    1.419   1_655 S
C730   H731    1.082   .     S
C730   N732    1.369   .     A
N732   C733    1.344   .     A
C733   H734    1.082   .     S
C735   N736    1.405   .     A
C735   S737    1.793   .     S
C735   C609    1.412   1_655 S
S737   O739    1.502   .     D
S737   O740    1.673   .     S
S737   O614    1.504   1_655 S
O740   H741    0.991   .     S
N742   O744    1.301   .     A
N742   O743    1.301   .     A
O745   Cu751   1.962   .     S
O745   C747    1.295   .     A
O746   C747    1.292   .     A
O746   Cu752   1.958   .     S
C747   C789    1.447   .     S
O748   Cu751   1.950   .     S
O748   C750    1.303   .     A
O749   Cu752   1.934   .     S
O749   C750    1.297   .     A
C750   C774    1.476   .     S
Cu751  O755    1.934   .     S
Cu751  Cu752   2.688   .     S
Cu751  O753    1.958   .     S
Cu751  N794    2.020   .     S
Cu752  O756    1.950   .     S
Cu752  N798    2.020   .     S
Cu752  O754    1.962   .     S
O753   C757    1.290   .     A
O754   C757    1.297   .     A
O755   C758    1.296   .     A
O756   C758    1.302   .     A
C757   C784    1.447   .     S
C758   C762    1.469   .     S
C759   C773    1.392   .     A
H760   C773    1.082   .     S
H761   C201    1.081   1_556 S
C762   C773    1.396   .     A
C762   C772    1.396   .     A
C763   C764    1.386   .     A
C763   C774    1.402   .     A
C763   H776    1.083   .     S
C764   C207    1.391   1_556 S
C764   H220    1.083   1_556 S
C765   H777    1.076   .     S
C766   C767    1.416   .     A
C766   C207    1.420   1_556 S
C766   C210    1.426   1_556 S
C767   C771    1.409   .     A
C767   C774    1.422   .     A
C768   C772    1.404   .     A
C769   C770    1.408   .     A
C769   C201    1.411   1_556 S
C769   C210    1.426   1_556 S
C770   C771    1.392   .     A
C770   N804    1.437   .     S
C771   H779    1.080   .     S
C772   H775    1.075   .     S
C780   C789    1.401   .     A
C780   H781    1.084   .     S
C780   C968    1.385   .     S
C782   C784    1.398   .     A
C782   H783    1.082   .     S
C784   C785    1.401   .     A
C785   H786    1.084   .     S
C787   C789    1.399   .     A
C787   H788    1.083   .     S
C787   C971    1.384   .     S
C790   N798    1.367   .     A
C790   H791    1.082   .     S
C790   C854    1.419   .     S
C792   H793    1.082   .     S
C792   N794    1.369   .     A
C792   C914    1.419   1_455 S
N794   C795    1.344   .     A
C795   H796    1.082   .     S
C795   C921    1.412   1_455 S
C797   N798    1.405   .     A
C797   S799    1.793   .     S
C797   C857    1.412   .     S
S799   O801    1.502   .     D
S799   O802    1.673   .     S
S799   O862    1.504   .     S
O800   S923    1.504   1_455 S
O802   H803    0.991   .     S
N804   O806    1.301   .     A
N804   O805    1.301   .     A
O807   Cu813   1.962   .     S
O807   C809    1.295   .     A
O808   C809    1.292   .     A
O808   Cu814   1.958   .     S
C809   C851    1.447   .     S
O810   Cu813   1.950   .     S
O810   C812    1.303   .     A
O811   Cu814   1.934   .     S
O811   C812    1.297   .     A
C812   C836    1.476   .     S
Cu813  O817    1.934   .     S
Cu813  Cu814   2.688   .     S
Cu813  O815    1.958   .     S
Cu813  N856    2.020   .     S
Cu814  O818    1.950   .     S
Cu814  N860    2.020   .     S
Cu814  O816    1.962   .     S
O815   C819    1.290   .     A
O816   C819    1.297   .     A
O817   C820    1.296   .     A
O818   C820    1.302   .     A
C819   C846    1.447   .     S
C820   C824    1.469   .     S
C821   C835    1.392   .     A
H822   C835    1.082   .     S
H823   C263    1.081   1_556 S
C824   C835    1.396   .     A
C824   C834    1.396   .     A
C825   C826    1.386   .     A
C825   C836    1.402   .     A
C825   H838    1.083   .     S
C826   C269    1.391   1_556 S
C826   H282    1.083   1_556 S
C827   H839    1.076   .     S
C828   C829    1.416   .     A
C828   C269    1.420   1_556 S
C828   C272    1.426   1_556 S
C829   C833    1.409   .     A
C829   C836    1.422   .     A
C830   C834    1.404   .     A
C831   C832    1.408   .     A
C831   C263    1.411   1_556 S
C831   C272    1.426   1_556 S
C832   C833    1.392   .     A
C832   N866    1.437   .     S
C833   H841    1.080   .     S
C834   H837    1.075   .     S
C842   C851    1.401   .     A
C842   H843    1.084   .     S
C842   C1030   1.385   .     S
C844   C846    1.398   .     A
C844   H845    1.082   .     S
C846   C847    1.401   .     A
C847   H848    1.084   .     S
C849   C851    1.399   .     A
C849   H850    1.083   .     S
C849   C1033   1.384   .     S
C852   N860    1.367   .     A
C852   H853    1.082   .     S
C852   C916    1.419   .     S
C854   H855    1.082   .     S
C854   N856    1.369   .     A
N856   C857    1.344   .     A
C857   H858    1.082   .     S
C859   N860    1.405   .     A
C859   S861    1.793   .     S
C859   C919    1.412   .     S
S861   O863    1.502   .     D
S861   O864    1.673   .     S
S861   O924    1.504   .     S
O864   H865    0.991   .     S
N866   O868    1.301   .     A
N866   O867    1.301   .     A
O869   Cu875   1.962   .     S
O869   C871    1.295   .     A
O870   C871    1.292   .     A
O870   Cu876   1.958   .     S
C871   C913    1.447   .     S
O872   Cu875   1.950   .     S
O872   C874    1.303   .     A
O873   Cu876   1.934   .     S
O873   C874    1.297   .     A
C874   C898    1.476   .     S
Cu875  O879    1.934   .     S
Cu875  Cu876   2.688   .     S
Cu875  O877    1.958   .     S
Cu875  N918    2.020   .     S
Cu876  O880    1.950   .     S
Cu876  N922    2.020   .     S
Cu876  O878    1.962   .     S
O877   C881    1.290   .     A
O878   C881    1.297   .     A
O879   C882    1.296   .     A
O880   C882    1.302   .     A
C881   C908    1.447   .     S
C882   C886    1.469   .     S
C883   C897    1.392   .     A
H884   C897    1.082   .     S
H885   C325    1.081   1_556 S
C886   C897    1.396   .     A
C886   C896    1.396   .     A
C887   C888    1.386   .     A
C887   C898    1.402   .     A
C887   H900    1.083   .     S
C888   C331    1.391   1_556 S
C888   H344    1.083   1_556 S
C889   H901    1.076   .     S
C890   C891    1.416   .     A
C890   C331    1.420   1_556 S
C890   C334    1.426   1_556 S
C891   C895    1.409   .     A
C891   C898    1.422   .     A
C892   C896    1.404   .     A
C893   C894    1.408   .     A
C893   C325    1.411   1_556 S
C893   C334    1.426   1_556 S
C894   C895    1.392   .     A
C894   N928    1.437   .     S
C895   H903    1.080   .     S
C896   H899    1.075   .     S
C904   C913    1.401   .     A
C904   H905    1.084   .     S
C904   C1092   1.385   .     S
C906   C908    1.398   .     A
C906   H907    1.082   .     S
C908   C909    1.401   .     A
C909   H910    1.084   .     S
C911   C913    1.399   .     A
C911   H912    1.083   .     S
C911   C1095   1.384   .     S
C914   N922    1.367   .     A
C914   H915    1.082   .     S
C914   C792    1.419   1_655 S
C916   H917    1.082   .     S
C916   N918    1.369   .     A
N918   C919    1.344   .     A
C919   H920    1.082   .     S
C921   N922    1.405   .     A
C921   S923    1.793   .     S
C921   C795    1.412   1_655 S
S923   O925    1.502   .     D
S923   O926    1.673   .     S
S923   O800    1.504   1_655 S
O926   H927    0.991   .     S
N928   O930    1.301   .     A
N928   O929    1.301   .     A
O931   Cu937   1.962   .     S
O931   C933    1.295   .     A
O932   C933    1.292   .     A
O932   Cu938   1.958   .     S
C933   C975    1.447   .     S
O934   Cu937   1.950   .     S
O934   C936    1.303   .     A
O935   Cu938   1.934   .     S
O935   C936    1.297   .     A
C936   C960    1.476   .     S
Cu937  O941    1.934   .     S
Cu937  Cu938   2.688   .     S
Cu937  O939    1.958   .     S
Cu937  N980    2.020   .     S
Cu938  O942    1.950   .     S
Cu938  N984    2.020   .     S
Cu938  O940    1.962   .     S
O939   C943    1.290   .     A
O940   C943    1.297   .     A
O941   C944    1.296   .     A
O942   C944    1.302   .     A
C943   C970    1.447   .     S
C944   C948    1.469   .     S
C945   C959    1.392   .     A
H946   C959    1.082   .     S
H947   C387    1.081   1_556 S
C948   C959    1.396   .     A
C948   C958    1.396   .     A
C949   C950    1.386   .     A
C949   C960    1.402   .     A
C949   H962    1.083   .     S
C950   C393    1.391   1_556 S
C950   H406    1.083   1_556 S
C951   H963    1.076   .     S
C952   C953    1.416   .     A
C952   C393    1.420   1_556 S
C952   C396    1.426   1_556 S
C953   C957    1.409   .     A
C953   C960    1.422   .     A
C954   C958    1.404   .     A
C955   C956    1.408   .     A
C955   C387    1.411   1_556 S
C955   C396    1.426   1_556 S
C956   C957    1.392   .     A
C956   N990    1.437   .     S
C957   H965    1.080   .     S
C958   H961    1.075   .     S
C966   C975    1.401   .     A
C966   H967    1.084   .     S
C966   C596    1.385   1_565 S
C968   C970    1.398   .     A
C968   H969    1.082   .     S
C970   C971    1.401   .     A
C971   H972    1.084   .     S
C973   C975    1.399   .     A
C973   H974    1.083   .     S
C973   C599    1.384   1_565 S
C976   N984    1.367   .     A
C976   H977    1.082   .     S
C976   C1040   1.419   .     S
C978   H979    1.082   .     S
C978   N980    1.369   .     A
C978   C1100   1.419   1_455 S
N980   C981    1.344   .     A
C981   H982    1.082   .     S
C981   C1107   1.412   1_455 S
C983   N984    1.405   .     A
C983   S985    1.793   .     S
C983   C1043   1.412   .     S
S985   O987    1.502   .     D
S985   O988    1.673   .     S
S985   O1048   1.504   .     S
O986   S1109   1.504   1_455 S
O988   H989    0.991   .     S
N990   O992    1.301   .     A
N990   O991    1.301   .     A
O993   Cu999   1.962   .     S
O993   C995    1.295   .     A
O994   C995    1.292   .     A
O994   Cu1000  1.958   .     S
C995   C1037   1.447   .     S
O996   Cu999   1.950   .     S
O996   C998    1.303   .     A
O997   Cu1000  1.934   .     S
O997   C998    1.297   .     A
C998   C1022   1.476   .     S
Cu999  O1003   1.934   .     S
Cu999  Cu1000  2.688   .     S
Cu999  O1001   1.958   .     S
Cu999  N1042   2.020   .     S
Cu1000 O1004   1.950   .     S
Cu1000 N1046   2.020   .     S
Cu1000 O1002   1.962   .     S
O1001  C1005   1.290   .     A
O1002  C1005   1.297   .     A
O1003  C1006   1.296   .     A
O1004  C1006   1.302   .     A
C1005  C1032   1.447   .     S
C1006  C1010   1.469   .     S
C1007  C1021   1.392   .     A
H1008  C1021   1.082   .     S
H1009  C449    1.081   1_556 S
C1010  C1021   1.396   .     A
C1010  C1020   1.396   .     A
C1011  C1012   1.386   .     A
C1011  C1022   1.402   .     A
C1011  H1024   1.083   .     S
C1012  C455    1.391   1_556 S
C1012  H468    1.083   1_556 S
C1013  H1025   1.076   .     S
C1014  C1015   1.416   .     A
C1014  C455    1.420   1_556 S
C1014  C458    1.426   1_556 S
C1015  C1019   1.409   .     A
C1015  C1022   1.422   .     A
C1016  C1020   1.404   .     A
C1017  C1018   1.408   .     A
C1017  C449    1.411   1_556 S
C1017  C458    1.426   1_556 S
C1018  C1019   1.392   .     A
C1018  N1052   1.437   .     S
C1019  H1027   1.080   .     S
C1020  H1023   1.075   .     S
C1028  C1037   1.401   .     A
C1028  H1029   1.084   .     S
C1028  C658    1.385   1_565 S
C1030  C1032   1.398   .     A
C1030  H1031   1.082   .     S
C1032  C1033   1.401   .     A
C1033  H1034   1.084   .     S
C1035  C1037   1.399   .     A
C1035  H1036   1.083   .     S
C1035  C661    1.384   1_565 S
C1038  N1046   1.367   .     A
C1038  H1039   1.082   .     S
C1038  C1102   1.419   .     S
C1040  H1041   1.082   .     S
C1040  N1042   1.369   .     A
N1042  C1043   1.344   .     A
C1043  H1044   1.082   .     S
C1045  N1046   1.405   .     A
C1045  S1047   1.793   .     S
C1045  C1105   1.412   .     S
S1047  O1049   1.502   .     D
S1047  O1050   1.673   .     S
S1047  O1110   1.504   .     S
O1050  H1051   0.991   .     S
N1052  O1054   1.301   .     A
N1052  O1053   1.301   .     A
O1055  Cu1061  1.962   .     S
O1055  C1057   1.295   .     A
O1056  C1057   1.292   .     A
O1056  Cu1062  1.958   .     S
C1057  C1099   1.447   .     S
O1058  Cu1061  1.950   .     S
O1058  C1060   1.303   .     A
O1059  Cu1062  1.934   .     S
O1059  C1060   1.297   .     A
C1060  C1084   1.476   .     S
Cu1061 O1065   1.934   .     S
Cu1061 Cu1062  2.688   .     S
Cu1061 O1063   1.958   .     S
Cu1061 N1104   2.020   .     S
Cu1062 O1066   1.950   .     S
Cu1062 N1108   2.020   .     S
Cu1062 O1064   1.962   .     S
O1063  C1067   1.290   .     A
O1064  C1067   1.297   .     A
O1065  C1068   1.296   .     A
O1066  C1068   1.302   .     A
C1067  C1094   1.447   .     S
C1068  C1072   1.469   .     S
C1069  C1083   1.392   .     A
H1070  C1083   1.082   .     S
H1071  C511    1.081   1_556 S
C1072  C1083   1.396   .     A
C1072  C1082   1.396   .     A
C1073  C1074   1.386   .     A
C1073  C1084   1.402   .     A
C1073  H1086   1.083   .     S
C1074  C517    1.391   1_556 S
C1074  H530    1.083   1_556 S
C1075  H1087   1.076   .     S
C1076  C1077   1.416   .     A
C1076  C517    1.420   1_556 S
C1076  C520    1.426   1_556 S
C1077  C1081   1.409   .     A
C1077  C1084   1.422   .     A
C1078  C1082   1.404   .     A
C1079  C1080   1.408   .     A
C1079  C511    1.411   1_556 S
C1079  C520    1.426   1_556 S
C1080  C1081   1.392   .     A
C1080  N1114   1.437   .     S
C1081  H1089   1.080   .     S
C1082  H1085   1.075   .     S
C1090  C1099   1.401   .     A
C1090  H1091   1.084   .     S
C1090  C720    1.385   1_565 S
C1092  C1094   1.398   .     A
C1092  H1093   1.082   .     S
C1094  C1095   1.401   .     A
C1095  H1096   1.084   .     S
C1097  C1099   1.399   .     A
C1097  H1098   1.083   .     S
C1097  C723    1.384   1_565 S
C1100  N1108   1.367   .     A
C1100  H1101   1.082   .     S
C1100  C978    1.419   1_655 S
C1102  H1103   1.082   .     S
C1102  N1104   1.369   .     A
N1104  C1105   1.344   .     A
C1105  H1106   1.082   .     S
C1107  N1108   1.405   .     A
C1107  S1109   1.793   .     S
C1107  C981    1.412   1_655 S
S1109  O1111   1.502   .     D
S1109  O1112   1.673   .     S
S1109  O986    1.504   1_655 S
O1112  H1113   0.991   .     S
N1114  O1116   1.301   .     A
N1114  O1115   1.301   .     A
