data_str_m2_o1_o2_pcu_sym.59
_audit_creation_date              2020-01-03
_audit_creation_method            'Materials Studio'
_symmetry_space_group_name_H-M    'P1'
_symmetry_Int_Tables_number       1
_symmetry_cell_setting            triclinic
loop_
_symmetry_equiv_pos_as_xyz
  x,y,z
_cell_length_a                    33.0188
_cell_length_b                    28.5335
_cell_length_c                    30.2709
_cell_angle_alpha                 89.9817
_cell_angle_beta                  90.2652
_cell_angle_gamma                 90.0590
loop_
_atom_site_label
_atom_site_type_symbol
_atom_site_fract_x
_atom_site_fract_y
_atom_site_fract_z
_atom_site_U_iso_or_equiv
_atom_site_adp_type
_atom_site_occupancy
C1     C     0.08728   0.16666   0.24936   0.00000  Uiso   1.00
C2     C     0.31207   0.20982   0.25102   0.00000  Uiso   1.00
C3     C     0.31172   0.12509   0.23714   0.00000  Uiso   1.00
C4     C     0.02097   0.20965   0.25034   0.00000  Uiso   1.00
C5     C     0.17905   0.20673   0.04769   0.00000  Uiso   1.00
C6     C     0.17909   0.12661   0.45246   0.00000  Uiso   1.00
C7     C     0.15450   0.20672   0.45232   0.00000  Uiso   1.00
C8     C     0.15445   0.12657   0.04757   0.00000  Uiso   1.00
C9     C     0.17872   0.20685   0.09360   0.00000  Uiso   1.00
C10    C     0.17879   0.12650   0.40654   0.00000  Uiso   1.00
C11    C     0.15476   0.20683   0.40641   0.00000  Uiso   1.00
C12    C     0.24587   0.16680   0.24824   0.00000  Uiso   1.00
C13    C     0.15468   0.12647   0.09348   0.00000  Uiso   1.00
C14    C     0.16668   0.16667   0.11673   0.00000  Uiso   1.00
C15    C     0.16675   0.16666   0.38328   0.00000  Uiso   1.00
C16    C     0.16677   0.16665   0.02429   0.00000  Uiso   1.00
C17    C     0.16679   0.16666   0.47572   0.00000  Uiso   1.00
C18    C     0.29038   0.16731   0.24508   0.00000  Uiso   1.00
C19    C     0.04245   0.16677   0.24757   0.00000  Uiso   1.00
C20    C     0.04151   0.07868   0.23772   0.00000  Uiso   1.00
C21    C     0.29174   0.25566   0.25806   0.00000  Uiso   1.00
C22    C     0.29052   0.08151   0.22284   0.00000  Uiso   1.00
C23    C     0.16665   0.16667   0.16496   0.00000  Uiso   1.00
C24    C     0.04163   0.25566   0.24943   0.00000  Uiso   1.00
C25    C     0.16671   0.16666   0.33504   0.00000  Uiso   1.00
C26    C     0.14792   0.02478   0.21695   0.00000  Uiso   1.00
C27    C     0.18560   0.30854   0.28292   0.00000  Uiso   1.00
C28    C     0.18577   0.02481   0.28282   0.00000  Uiso   1.00
C29    C     0.14810   0.30852   0.21685   0.00000  Uiso   1.00
C30    C     0.02065   0.12436   0.24126   0.00000  Uiso   1.00
Cu31   Cu    0.16667   0.21355   0.25000   0.00000  Uiso   1.00
Cu32   Cu    0.16667   0.11978   0.25000   0.00000  Uiso   1.00
H33    H     0.13269   0.04339   0.19057   0.00000  Uiso   1.00
H34    H     0.18850   0.09525   0.38927   0.00000  Uiso   1.00
H35    H     0.14504   0.23808   0.38904   0.00000  Uiso   1.00
H36    H     0.14493   0.09521   0.11076   0.00000  Uiso   1.00
H37    H     0.07184   0.02761   0.26987   0.00000  Uiso   1.00
H38    H     0.27609   0.30611   0.30134   0.00000  Uiso   1.00
H39    H     0.25478   0.05003   0.17750   0.00000  Uiso   1.00
H40    H     0.06272   0.30828   0.21167   0.00000  Uiso   1.00
H41    H     0.20077   0.28990   0.30932   0.00000  Uiso   1.00
H42    H     0.20124   0.04345   0.30903   0.00000  Uiso   1.00
H43    H     0.13324   0.28987   0.19025   0.00000  Uiso   1.00
H44    H     0.18938   0.23780   0.03053   0.00000  Uiso   1.00
H45    H     0.18939   0.09556   0.46972   0.00000  Uiso   1.00
H46    H     0.14420   0.23776   0.46947   0.00000  Uiso   1.00
H47    H     0.14416   0.09550   0.03031   0.00000  Uiso   1.00
H48    H     0.18842   0.23813   0.11097   0.00000  Uiso   1.00
N49    N     0.16667   0.28402   0.25000   0.00000  Uiso   1.00
N50    N     0.16667   0.04931   0.25000   0.00000  Uiso   1.00
O51    O     0.10655   0.20625   0.25000   0.00000  Uiso   1.00
O52    O     0.05493   0.05635   0.27618   0.00000  Uiso   1.00
O53    O     0.27798   0.27730   0.22652   0.00000  Uiso   1.00
O54    O     0.28975   0.27435   0.30065   0.00000  Uiso   1.00
O55    O     0.29241   0.04617   0.24559   0.00000  Uiso   1.00
O56    O     0.26824   0.08137   0.18345   0.00000  Uiso   1.00
O57    O     0.05252   0.27424   0.28388   0.00000  Uiso   1.00
O58    O     0.04803   0.27739   0.20874   0.00000  Uiso   1.00
O59    O     0.22679   0.12709   0.25001   0.00000  Uiso   1.00
O60    O     0.22679   0.20625   0.25001   0.00000  Uiso   1.00
O61    O     0.10655   0.12709   0.25000   0.00000  Uiso   1.00
O62    O     0.16666   0.20626   0.18573   0.00000  Uiso   1.00
O63    O     0.16667   0.12707   0.31427   0.00000  Uiso   1.00
O64    O     0.16667   0.20626   0.31427   0.00000  Uiso   1.00
O65    O     0.16666   0.12707   0.18573   0.00000  Uiso   1.00
O66    O     0.04745   0.06139   0.20140   0.00000  Uiso   1.00
C67    C     0.42062   0.16666   0.24936   0.00000  Uiso   1.00
C68    C     0.64541   0.20982   0.25102   0.00000  Uiso   1.00
C69    C     0.64505   0.12509   0.23714   0.00000  Uiso   1.00
C70    C     0.35430   0.20965   0.25034   0.00000  Uiso   1.00
C71    C     0.51239   0.20673   0.04769   0.00000  Uiso   1.00
C72    C     0.51242   0.12661   0.45246   0.00000  Uiso   1.00
C73    C     0.48783   0.20672   0.45232   0.00000  Uiso   1.00
C74    C     0.48778   0.12657   0.04757   0.00000  Uiso   1.00
C75    C     0.51205   0.20685   0.09360   0.00000  Uiso   1.00
C76    C     0.51212   0.12650   0.40654   0.00000  Uiso   1.00
C77    C     0.48810   0.20683   0.40641   0.00000  Uiso   1.00
C78    C     0.57920   0.16680   0.24824   0.00000  Uiso   1.00
C79    C     0.48801   0.12647   0.09348   0.00000  Uiso   1.00
C80    C     0.50001   0.16667   0.11673   0.00000  Uiso   1.00
C81    C     0.50009   0.16666   0.38328   0.00000  Uiso   1.00
C82    C     0.50011   0.16665   0.02429   0.00000  Uiso   1.00
C83    C     0.50013   0.16666   0.47572   0.00000  Uiso   1.00
C84    C     0.62371   0.16731   0.24508   0.00000  Uiso   1.00
C85    C     0.37578   0.16677   0.24757   0.00000  Uiso   1.00
C86    C     0.37484   0.07868   0.23772   0.00000  Uiso   1.00
C87    C     0.62507   0.25566   0.25806   0.00000  Uiso   1.00
C88    C     0.62385   0.08151   0.22284   0.00000  Uiso   1.00
C89    C     0.49998   0.16667   0.16496   0.00000  Uiso   1.00
C90    C     0.37497   0.25566   0.24943   0.00000  Uiso   1.00
C91    C     0.50004   0.16666   0.33504   0.00000  Uiso   1.00
C92    C     0.48125   0.02478   0.21695   0.00000  Uiso   1.00
C93    C     0.51893   0.30854   0.28292   0.00000  Uiso   1.00
C94    C     0.51910   0.02481   0.28282   0.00000  Uiso   1.00
C95    C     0.48144   0.30852   0.21685   0.00000  Uiso   1.00
C96    C     0.35398   0.12436   0.24126   0.00000  Uiso   1.00
Cu97   Cu    0.50000   0.21355   0.25000   0.00000  Uiso   1.00
Cu98   Cu    0.50000   0.11978   0.25000   0.00000  Uiso   1.00
H99    H     0.46603   0.04339   0.19057   0.00000  Uiso   1.00
H100   H     0.52184   0.09525   0.38927   0.00000  Uiso   1.00
H101   H     0.47838   0.23808   0.38904   0.00000  Uiso   1.00
H102   H     0.47827   0.09521   0.11076   0.00000  Uiso   1.00
H103   H     0.40517   0.02761   0.26987   0.00000  Uiso   1.00
H104   H     0.60942   0.30611   0.30134   0.00000  Uiso   1.00
H105   H     0.58812   0.05003   0.17750   0.00000  Uiso   1.00
H106   H     0.39606   0.30828   0.21167   0.00000  Uiso   1.00
H107   H     0.53410   0.28990   0.30932   0.00000  Uiso   1.00
H108   H     0.53457   0.04345   0.30903   0.00000  Uiso   1.00
H109   H     0.46658   0.28987   0.19025   0.00000  Uiso   1.00
H110   H     0.52271   0.23780   0.03053   0.00000  Uiso   1.00
H111   H     0.52273   0.09556   0.46972   0.00000  Uiso   1.00
H112   H     0.47753   0.23776   0.46947   0.00000  Uiso   1.00
H113   H     0.47749   0.09550   0.03031   0.00000  Uiso   1.00
H114   H     0.52175   0.23813   0.11097   0.00000  Uiso   1.00
N115   N     0.50000   0.28402   0.25000   0.00000  Uiso   1.00
N116   N     0.50000   0.04931   0.25000   0.00000  Uiso   1.00
O117   O     0.43988   0.20625   0.25000   0.00000  Uiso   1.00
O118   O     0.38826   0.05635   0.27618   0.00000  Uiso   1.00
O119   O     0.61131   0.27730   0.22652   0.00000  Uiso   1.00
O120   O     0.62308   0.27435   0.30065   0.00000  Uiso   1.00
O121   O     0.62575   0.04617   0.24559   0.00000  Uiso   1.00
O122   O     0.60158   0.08137   0.18345   0.00000  Uiso   1.00
O123   O     0.38585   0.27424   0.28388   0.00000  Uiso   1.00
O124   O     0.38136   0.27739   0.20874   0.00000  Uiso   1.00
O125   O     0.56012   0.12709   0.25001   0.00000  Uiso   1.00
O126   O     0.56012   0.20625   0.25001   0.00000  Uiso   1.00
O127   O     0.43988   0.12709   0.25000   0.00000  Uiso   1.00
O128   O     0.50000   0.20626   0.18573   0.00000  Uiso   1.00
O129   O     0.50000   0.12707   0.31427   0.00000  Uiso   1.00
O130   O     0.50000   0.20626   0.31427   0.00000  Uiso   1.00
O131   O     0.50000   0.12707   0.18573   0.00000  Uiso   1.00
O132   O     0.38079   0.06139   0.20140   0.00000  Uiso   1.00
C133   C     0.75395   0.16666   0.24936   0.00000  Uiso   1.00
C134   C     0.97874   0.20982   0.25102   0.00000  Uiso   1.00
C135   C     0.97838   0.12509   0.23714   0.00000  Uiso   1.00
C136   C     0.68763   0.20965   0.25034   0.00000  Uiso   1.00
C137   C     0.84572   0.20673   0.04769   0.00000  Uiso   1.00
C138   C     0.84575   0.12661   0.45246   0.00000  Uiso   1.00
C139   C     0.82117   0.20672   0.45232   0.00000  Uiso   1.00
C140   C     0.82112   0.12657   0.04757   0.00000  Uiso   1.00
C141   C     0.84539   0.20685   0.09360   0.00000  Uiso   1.00
C142   C     0.84546   0.12650   0.40654   0.00000  Uiso   1.00
C143   C     0.82143   0.20683   0.40641   0.00000  Uiso   1.00
C144   C     0.91254   0.16680   0.24824   0.00000  Uiso   1.00
C145   C     0.82135   0.12647   0.09348   0.00000  Uiso   1.00
C146   C     0.83334   0.16667   0.11673   0.00000  Uiso   1.00
C147   C     0.83342   0.16666   0.38328   0.00000  Uiso   1.00
C148   C     0.83344   0.16665   0.02429   0.00000  Uiso   1.00
C149   C     0.83346   0.16666   0.47572   0.00000  Uiso   1.00
C150   C     0.95704   0.16731   0.24508   0.00000  Uiso   1.00
C151   C     0.70912   0.16677   0.24757   0.00000  Uiso   1.00
C152   C     0.70817   0.07868   0.23772   0.00000  Uiso   1.00
C153   C     0.95841   0.25566   0.25806   0.00000  Uiso   1.00
C154   C     0.95719   0.08151   0.22284   0.00000  Uiso   1.00
C155   C     0.83332   0.16667   0.16496   0.00000  Uiso   1.00
C156   C     0.70830   0.25566   0.24943   0.00000  Uiso   1.00
C157   C     0.83337   0.16666   0.33504   0.00000  Uiso   1.00
C158   C     0.81459   0.02478   0.21695   0.00000  Uiso   1.00
C159   C     0.85227   0.30854   0.28292   0.00000  Uiso   1.00
C160   C     0.85243   0.02481   0.28282   0.00000  Uiso   1.00
C161   C     0.81477   0.30852   0.21685   0.00000  Uiso   1.00
C162   C     0.68732   0.12436   0.24126   0.00000  Uiso   1.00
Cu163  Cu    0.83333   0.21355   0.25000   0.00000  Uiso   1.00
Cu164  Cu    0.83333   0.11978   0.25000   0.00000  Uiso   1.00
H165   H     0.79936   0.04339   0.19057   0.00000  Uiso   1.00
H166   H     0.85517   0.09525   0.38927   0.00000  Uiso   1.00
H167   H     0.81171   0.23808   0.38904   0.00000  Uiso   1.00
H168   H     0.81160   0.09521   0.11076   0.00000  Uiso   1.00
H169   H     0.73850   0.02761   0.26987   0.00000  Uiso   1.00
H170   H     0.94275   0.30611   0.30134   0.00000  Uiso   1.00
H171   H     0.92145   0.05003   0.17750   0.00000  Uiso   1.00
H172   H     0.72939   0.30828   0.21167   0.00000  Uiso   1.00
H173   H     0.86743   0.28990   0.30932   0.00000  Uiso   1.00
H174   H     0.86791   0.04345   0.30903   0.00000  Uiso   1.00
H175   H     0.79991   0.28987   0.19025   0.00000  Uiso   1.00
H176   H     0.85604   0.23780   0.03053   0.00000  Uiso   1.00
H177   H     0.85606   0.09556   0.46972   0.00000  Uiso   1.00
H178   H     0.81087   0.23776   0.46947   0.00000  Uiso   1.00
H179   H     0.81082   0.09550   0.03031   0.00000  Uiso   1.00
H180   H     0.85509   0.23813   0.11097   0.00000  Uiso   1.00
N181   N     0.83333   0.28402   0.25000   0.00000  Uiso   1.00
N182   N     0.83333   0.04931   0.25000   0.00000  Uiso   1.00
O183   O     0.77321   0.20625   0.25000   0.00000  Uiso   1.00
O184   O     0.72160   0.05635   0.27618   0.00000  Uiso   1.00
O185   O     0.94465   0.27730   0.22652   0.00000  Uiso   1.00
O186   O     0.95642   0.27435   0.30065   0.00000  Uiso   1.00
O187   O     0.95908   0.04617   0.24559   0.00000  Uiso   1.00
O188   O     0.93491   0.08137   0.18345   0.00000  Uiso   1.00
O189   O     0.71919   0.27424   0.28388   0.00000  Uiso   1.00
O190   O     0.71470   0.27739   0.20874   0.00000  Uiso   1.00
O191   O     0.89345   0.12709   0.25001   0.00000  Uiso   1.00
O192   O     0.89345   0.20625   0.25001   0.00000  Uiso   1.00
O193   O     0.77321   0.12709   0.25000   0.00000  Uiso   1.00
O194   O     0.83333   0.20626   0.18573   0.00000  Uiso   1.00
O195   O     0.83334   0.12707   0.31427   0.00000  Uiso   1.00
O196   O     0.83334   0.20626   0.31427   0.00000  Uiso   1.00
O197   O     0.83333   0.12707   0.18573   0.00000  Uiso   1.00
O198   O     0.71412   0.06139   0.20140   0.00000  Uiso   1.00
C199   C     0.08728   0.49999   0.24936   0.00000  Uiso   1.00
C200   C     0.31207   0.54315   0.25102   0.00000  Uiso   1.00
C201   C     0.31172   0.45842   0.23714   0.00000  Uiso   1.00
C202   C     0.02097   0.54298   0.25034   0.00000  Uiso   1.00
C203   C     0.17905   0.54007   0.04769   0.00000  Uiso   1.00
C204   C     0.17909   0.45994   0.45246   0.00000  Uiso   1.00
C205   C     0.15450   0.54005   0.45232   0.00000  Uiso   1.00
C206   C     0.15445   0.45991   0.04757   0.00000  Uiso   1.00
C207   C     0.17872   0.54019   0.09360   0.00000  Uiso   1.00
C208   C     0.17879   0.45983   0.40654   0.00000  Uiso   1.00
C209   C     0.15476   0.54016   0.40641   0.00000  Uiso   1.00
C210   C     0.24587   0.50013   0.24824   0.00000  Uiso   1.00
C211   C     0.15468   0.45981   0.09348   0.00000  Uiso   1.00
C212   C     0.16668   0.50000   0.11673   0.00000  Uiso   1.00
C213   C     0.16675   0.49999   0.38328   0.00000  Uiso   1.00
C214   C     0.16677   0.49998   0.02429   0.00000  Uiso   1.00
C215   C     0.16679   0.49999   0.47572   0.00000  Uiso   1.00
C216   C     0.29038   0.50065   0.24508   0.00000  Uiso   1.00
C217   C     0.04245   0.50010   0.24757   0.00000  Uiso   1.00
C218   C     0.04151   0.41202   0.23772   0.00000  Uiso   1.00
C219   C     0.29174   0.58899   0.25806   0.00000  Uiso   1.00
C220   C     0.29052   0.41485   0.22284   0.00000  Uiso   1.00
C221   C     0.16665   0.50000   0.16496   0.00000  Uiso   1.00
C222   C     0.04163   0.58899   0.24943   0.00000  Uiso   1.00
C223   C     0.16671   0.50000   0.33504   0.00000  Uiso   1.00
C224   C     0.14792   0.35811   0.21695   0.00000  Uiso   1.00
C225   C     0.18560   0.64188   0.28292   0.00000  Uiso   1.00
C226   C     0.18577   0.35814   0.28282   0.00000  Uiso   1.00
C227   C     0.14810   0.64186   0.21685   0.00000  Uiso   1.00
C228   C     0.02065   0.45769   0.24126   0.00000  Uiso   1.00
Cu229  Cu    0.16667   0.54689   0.25000   0.00000  Uiso   1.00
Cu230  Cu    0.16667   0.45311   0.25000   0.00000  Uiso   1.00
H231   H     0.13269   0.37672   0.19057   0.00000  Uiso   1.00
H232   H     0.18850   0.42858   0.38927   0.00000  Uiso   1.00
H233   H     0.14504   0.57142   0.38904   0.00000  Uiso   1.00
H234   H     0.14493   0.42854   0.11076   0.00000  Uiso   1.00
H235   H     0.07184   0.36095   0.26987   0.00000  Uiso   1.00
H236   H     0.27609   0.63945   0.30134   0.00000  Uiso   1.00
H237   H     0.25478   0.38337   0.17750   0.00000  Uiso   1.00
H238   H     0.06272   0.64161   0.21167   0.00000  Uiso   1.00
H239   H     0.20077   0.62323   0.30932   0.00000  Uiso   1.00
H240   H     0.20124   0.37678   0.30903   0.00000  Uiso   1.00
H241   H     0.13324   0.62320   0.19025   0.00000  Uiso   1.00
H242   H     0.18938   0.57114   0.03053   0.00000  Uiso   1.00
H243   H     0.18939   0.42889   0.46972   0.00000  Uiso   1.00
H244   H     0.14420   0.57110   0.46947   0.00000  Uiso   1.00
H245   H     0.14416   0.42884   0.03031   0.00000  Uiso   1.00
H246   H     0.18842   0.57146   0.11097   0.00000  Uiso   1.00
N247   N     0.16667   0.61736   0.25000   0.00000  Uiso   1.00
N248   N     0.16667   0.38264   0.25000   0.00000  Uiso   1.00
O249   O     0.10655   0.53958   0.25000   0.00000  Uiso   1.00
O250   O     0.05493   0.38968   0.27618   0.00000  Uiso   1.00
O251   O     0.27798   0.61063   0.22652   0.00000  Uiso   1.00
O252   O     0.28975   0.60768   0.30065   0.00000  Uiso   1.00
O253   O     0.29241   0.37950   0.24559   0.00000  Uiso   1.00
O254   O     0.26824   0.41470   0.18345   0.00000  Uiso   1.00
O255   O     0.05252   0.60757   0.28388   0.00000  Uiso   1.00
O256   O     0.04803   0.61072   0.20874   0.00000  Uiso   1.00
O257   O     0.22679   0.46042   0.25001   0.00000  Uiso   1.00
O258   O     0.22679   0.53958   0.25001   0.00000  Uiso   1.00
O259   O     0.10655   0.46042   0.25000   0.00000  Uiso   1.00
O260   O     0.16666   0.53959   0.18573   0.00000  Uiso   1.00
O261   O     0.16667   0.46041   0.31427   0.00000  Uiso   1.00
O262   O     0.16667   0.53959   0.31427   0.00000  Uiso   1.00
O263   O     0.16666   0.46041   0.18573   0.00000  Uiso   1.00
O264   O     0.04745   0.39472   0.20140   0.00000  Uiso   1.00
C265   C     0.42062   0.49999   0.24936   0.00000  Uiso   1.00
C266   C     0.64541   0.54315   0.25102   0.00000  Uiso   1.00
C267   C     0.64505   0.45842   0.23714   0.00000  Uiso   1.00
C268   C     0.35430   0.54298   0.25034   0.00000  Uiso   1.00
C269   C     0.51239   0.54007   0.04769   0.00000  Uiso   1.00
C270   C     0.51242   0.45994   0.45246   0.00000  Uiso   1.00
C271   C     0.48783   0.54005   0.45232   0.00000  Uiso   1.00
C272   C     0.48778   0.45991   0.04757   0.00000  Uiso   1.00
C273   C     0.51205   0.54019   0.09360   0.00000  Uiso   1.00
C274   C     0.51212   0.45983   0.40654   0.00000  Uiso   1.00
C275   C     0.48810   0.54016   0.40641   0.00000  Uiso   1.00
C276   C     0.57920   0.50013   0.24824   0.00000  Uiso   1.00
C277   C     0.48801   0.45981   0.09348   0.00000  Uiso   1.00
C278   C     0.50001   0.50000   0.11673   0.00000  Uiso   1.00
C279   C     0.50009   0.49999   0.38328   0.00000  Uiso   1.00
C280   C     0.50011   0.49998   0.02429   0.00000  Uiso   1.00
C281   C     0.50013   0.49999   0.47572   0.00000  Uiso   1.00
C282   C     0.62371   0.50065   0.24508   0.00000  Uiso   1.00
C283   C     0.37578   0.50010   0.24757   0.00000  Uiso   1.00
C284   C     0.37484   0.41202   0.23772   0.00000  Uiso   1.00
C285   C     0.62507   0.58899   0.25806   0.00000  Uiso   1.00
C286   C     0.62385   0.41485   0.22284   0.00000  Uiso   1.00
C287   C     0.49998   0.50000   0.16496   0.00000  Uiso   1.00
C288   C     0.37497   0.58899   0.24943   0.00000  Uiso   1.00
C289   C     0.50004   0.50000   0.33504   0.00000  Uiso   1.00
C290   C     0.48125   0.35811   0.21695   0.00000  Uiso   1.00
C291   C     0.51893   0.64188   0.28292   0.00000  Uiso   1.00
C292   C     0.51910   0.35814   0.28282   0.00000  Uiso   1.00
C293   C     0.48144   0.64186   0.21685   0.00000  Uiso   1.00
C294   C     0.35398   0.45769   0.24126   0.00000  Uiso   1.00
Cu295  Cu    0.50000   0.54689   0.25000   0.00000  Uiso   1.00
Cu296  Cu    0.50000   0.45311   0.25000   0.00000  Uiso   1.00
H297   H     0.46603   0.37672   0.19057   0.00000  Uiso   1.00
H298   H     0.52184   0.42858   0.38927   0.00000  Uiso   1.00
H299   H     0.47838   0.57142   0.38904   0.00000  Uiso   1.00
H300   H     0.47827   0.42854   0.11076   0.00000  Uiso   1.00
H301   H     0.40517   0.36095   0.26987   0.00000  Uiso   1.00
H302   H     0.60942   0.63945   0.30134   0.00000  Uiso   1.00
H303   H     0.58812   0.38337   0.17750   0.00000  Uiso   1.00
H304   H     0.39606   0.64161   0.21167   0.00000  Uiso   1.00
H305   H     0.53410   0.62323   0.30932   0.00000  Uiso   1.00
H306   H     0.53457   0.37678   0.30903   0.00000  Uiso   1.00
H307   H     0.46658   0.62320   0.19025   0.00000  Uiso   1.00
H308   H     0.52271   0.57114   0.03053   0.00000  Uiso   1.00
H309   H     0.52273   0.42889   0.46972   0.00000  Uiso   1.00
H310   H     0.47753   0.57110   0.46947   0.00000  Uiso   1.00
H311   H     0.47749   0.42884   0.03031   0.00000  Uiso   1.00
H312   H     0.52175   0.57146   0.11097   0.00000  Uiso   1.00
N313   N     0.50000   0.61736   0.25000   0.00000  Uiso   1.00
N314   N     0.50000   0.38264   0.25000   0.00000  Uiso   1.00
O315   O     0.43988   0.53958   0.25000   0.00000  Uiso   1.00
O316   O     0.38826   0.38968   0.27618   0.00000  Uiso   1.00
O317   O     0.61131   0.61063   0.22652   0.00000  Uiso   1.00
O318   O     0.62308   0.60768   0.30065   0.00000  Uiso   1.00
O319   O     0.62575   0.37950   0.24559   0.00000  Uiso   1.00
O320   O     0.60158   0.41470   0.18345   0.00000  Uiso   1.00
O321   O     0.38585   0.60757   0.28388   0.00000  Uiso   1.00
O322   O     0.38136   0.61072   0.20874   0.00000  Uiso   1.00
O323   O     0.56012   0.46042   0.25001   0.00000  Uiso   1.00
O324   O     0.56012   0.53958   0.25001   0.00000  Uiso   1.00
O325   O     0.43988   0.46042   0.25000   0.00000  Uiso   1.00
O326   O     0.50000   0.53959   0.18573   0.00000  Uiso   1.00
O327   O     0.50000   0.46041   0.31427   0.00000  Uiso   1.00
O328   O     0.50000   0.53959   0.31427   0.00000  Uiso   1.00
O329   O     0.50000   0.46041   0.18573   0.00000  Uiso   1.00
O330   O     0.38079   0.39472   0.20140   0.00000  Uiso   1.00
C331   C     0.75395   0.49999   0.24936   0.00000  Uiso   1.00
C332   C     0.97874   0.54315   0.25102   0.00000  Uiso   1.00
C333   C     0.97838   0.45842   0.23714   0.00000  Uiso   1.00
C334   C     0.68763   0.54298   0.25034   0.00000  Uiso   1.00
C335   C     0.84572   0.54007   0.04769   0.00000  Uiso   1.00
C336   C     0.84575   0.45994   0.45246   0.00000  Uiso   1.00
C337   C     0.82117   0.54005   0.45232   0.00000  Uiso   1.00
C338   C     0.82112   0.45991   0.04757   0.00000  Uiso   1.00
C339   C     0.84539   0.54019   0.09360   0.00000  Uiso   1.00
C340   C     0.84546   0.45983   0.40654   0.00000  Uiso   1.00
C341   C     0.82143   0.54016   0.40641   0.00000  Uiso   1.00
C342   C     0.91254   0.50013   0.24824   0.00000  Uiso   1.00
C343   C     0.82135   0.45981   0.09348   0.00000  Uiso   1.00
C344   C     0.83334   0.50000   0.11673   0.00000  Uiso   1.00
C345   C     0.83342   0.49999   0.38328   0.00000  Uiso   1.00
C346   C     0.83344   0.49998   0.02429   0.00000  Uiso   1.00
C347   C     0.83346   0.49999   0.47572   0.00000  Uiso   1.00
C348   C     0.95704   0.50065   0.24508   0.00000  Uiso   1.00
C349   C     0.70912   0.50010   0.24757   0.00000  Uiso   1.00
C350   C     0.70817   0.41202   0.23772   0.00000  Uiso   1.00
C351   C     0.95841   0.58899   0.25806   0.00000  Uiso   1.00
C352   C     0.95719   0.41485   0.22284   0.00000  Uiso   1.00
C353   C     0.83332   0.50000   0.16496   0.00000  Uiso   1.00
C354   C     0.70830   0.58899   0.24943   0.00000  Uiso   1.00
C355   C     0.83337   0.50000   0.33504   0.00000  Uiso   1.00
C356   C     0.81459   0.35811   0.21695   0.00000  Uiso   1.00
C357   C     0.85227   0.64188   0.28292   0.00000  Uiso   1.00
C358   C     0.85243   0.35814   0.28282   0.00000  Uiso   1.00
C359   C     0.81477   0.64186   0.21685   0.00000  Uiso   1.00
C360   C     0.68732   0.45769   0.24126   0.00000  Uiso   1.00
Cu361  Cu    0.83333   0.54689   0.25000   0.00000  Uiso   1.00
Cu362  Cu    0.83333   0.45311   0.25000   0.00000  Uiso   1.00
H363   H     0.79936   0.37672   0.19057   0.00000  Uiso   1.00
H364   H     0.85517   0.42858   0.38927   0.00000  Uiso   1.00
H365   H     0.81171   0.57142   0.38904   0.00000  Uiso   1.00
H366   H     0.81160   0.42854   0.11076   0.00000  Uiso   1.00
H367   H     0.73850   0.36095   0.26987   0.00000  Uiso   1.00
H368   H     0.94275   0.63945   0.30134   0.00000  Uiso   1.00
H369   H     0.92145   0.38337   0.17750   0.00000  Uiso   1.00
H370   H     0.72939   0.64161   0.21167   0.00000  Uiso   1.00
H371   H     0.86743   0.62323   0.30932   0.00000  Uiso   1.00
H372   H     0.86791   0.37678   0.30903   0.00000  Uiso   1.00
H373   H     0.79991   0.62320   0.19025   0.00000  Uiso   1.00
H374   H     0.85604   0.57114   0.03053   0.00000  Uiso   1.00
H375   H     0.85606   0.42889   0.46972   0.00000  Uiso   1.00
H376   H     0.81087   0.57110   0.46947   0.00000  Uiso   1.00
H377   H     0.81082   0.42884   0.03031   0.00000  Uiso   1.00
H378   H     0.85509   0.57146   0.11097   0.00000  Uiso   1.00
N379   N     0.83333   0.61736   0.25000   0.00000  Uiso   1.00
N380   N     0.83333   0.38264   0.25000   0.00000  Uiso   1.00
O381   O     0.77321   0.53958   0.25000   0.00000  Uiso   1.00
O382   O     0.72160   0.38968   0.27618   0.00000  Uiso   1.00
O383   O     0.94465   0.61063   0.22652   0.00000  Uiso   1.00
O384   O     0.95642   0.60768   0.30065   0.00000  Uiso   1.00
O385   O     0.95908   0.37950   0.24559   0.00000  Uiso   1.00
O386   O     0.93491   0.41470   0.18345   0.00000  Uiso   1.00
O387   O     0.71919   0.60757   0.28388   0.00000  Uiso   1.00
O388   O     0.71470   0.61072   0.20874   0.00000  Uiso   1.00
O389   O     0.89345   0.46042   0.25001   0.00000  Uiso   1.00
O390   O     0.89345   0.53958   0.25001   0.00000  Uiso   1.00
O391   O     0.77321   0.46042   0.25000   0.00000  Uiso   1.00
O392   O     0.83333   0.53959   0.18573   0.00000  Uiso   1.00
O393   O     0.83334   0.46041   0.31427   0.00000  Uiso   1.00
O394   O     0.83334   0.53959   0.31427   0.00000  Uiso   1.00
O395   O     0.83333   0.46041   0.18573   0.00000  Uiso   1.00
O396   O     0.71412   0.39472   0.20140   0.00000  Uiso   1.00
C397   C     0.08728   0.83332   0.24936   0.00000  Uiso   1.00
C398   C     0.31207   0.87648   0.25102   0.00000  Uiso   1.00
C399   C     0.31172   0.79175   0.23714   0.00000  Uiso   1.00
C400   C     0.02097   0.87632   0.25034   0.00000  Uiso   1.00
C401   C     0.17905   0.87340   0.04769   0.00000  Uiso   1.00
C402   C     0.17909   0.79328   0.45246   0.00000  Uiso   1.00
C403   C     0.15450   0.87338   0.45232   0.00000  Uiso   1.00
C404   C     0.15445   0.79324   0.04757   0.00000  Uiso   1.00
C405   C     0.17872   0.87352   0.09360   0.00000  Uiso   1.00
C406   C     0.17879   0.79317   0.40654   0.00000  Uiso   1.00
C407   C     0.15476   0.87349   0.40641   0.00000  Uiso   1.00
C408   C     0.24587   0.83347   0.24824   0.00000  Uiso   1.00
C409   C     0.15468   0.79314   0.09348   0.00000  Uiso   1.00
C410   C     0.16668   0.83334   0.11673   0.00000  Uiso   1.00
C411   C     0.16675   0.83333   0.38328   0.00000  Uiso   1.00
C412   C     0.16677   0.83332   0.02429   0.00000  Uiso   1.00
C413   C     0.16679   0.83333   0.47572   0.00000  Uiso   1.00
C414   C     0.29038   0.83398   0.24508   0.00000  Uiso   1.00
C415   C     0.04245   0.83343   0.24757   0.00000  Uiso   1.00
C416   C     0.04151   0.74535   0.23772   0.00000  Uiso   1.00
C417   C     0.29174   0.92233   0.25806   0.00000  Uiso   1.00
C418   C     0.29052   0.74818   0.22284   0.00000  Uiso   1.00
C419   C     0.16665   0.83334   0.16496   0.00000  Uiso   1.00
C420   C     0.04163   0.92232   0.24943   0.00000  Uiso   1.00
C421   C     0.16671   0.83333   0.33504   0.00000  Uiso   1.00
C422   C     0.14792   0.69145   0.21695   0.00000  Uiso   1.00
C423   C     0.18560   0.97521   0.28292   0.00000  Uiso   1.00
C424   C     0.18577   0.69148   0.28282   0.00000  Uiso   1.00
C425   C     0.14810   0.97519   0.21685   0.00000  Uiso   1.00
C426   C     0.02065   0.79103   0.24126   0.00000  Uiso   1.00
Cu427  Cu    0.16667   0.88022   0.25000   0.00000  Uiso   1.00
Cu428  Cu    0.16667   0.78645   0.25000   0.00000  Uiso   1.00
H429   H     0.13269   0.71005   0.19057   0.00000  Uiso   1.00
H430   H     0.18850   0.76192   0.38927   0.00000  Uiso   1.00
H431   H     0.14504   0.90475   0.38904   0.00000  Uiso   1.00
H432   H     0.14493   0.76187   0.11076   0.00000  Uiso   1.00
H433   H     0.07184   0.69428   0.26987   0.00000  Uiso   1.00
H434   H     0.27609   0.97278   0.30134   0.00000  Uiso   1.00
H435   H     0.25478   0.71670   0.17750   0.00000  Uiso   1.00
H436   H     0.06272   0.97495   0.21167   0.00000  Uiso   1.00
H437   H     0.20077   0.95657   0.30932   0.00000  Uiso   1.00
H438   H     0.20124   0.71012   0.30903   0.00000  Uiso   1.00
H439   H     0.13324   0.95653   0.19025   0.00000  Uiso   1.00
H440   H     0.18938   0.90447   0.03053   0.00000  Uiso   1.00
H441   H     0.18939   0.76223   0.46972   0.00000  Uiso   1.00
H442   H     0.14420   0.90443   0.46947   0.00000  Uiso   1.00
H443   H     0.14416   0.76217   0.03031   0.00000  Uiso   1.00
H444   H     0.18842   0.90480   0.11097   0.00000  Uiso   1.00
N445   N     0.16667   0.95069   0.25000   0.00000  Uiso   1.00
N446   N     0.16667   0.71598   0.25000   0.00000  Uiso   1.00
O447   O     0.10655   0.87291   0.25000   0.00000  Uiso   1.00
O448   O     0.05493   0.72302   0.27618   0.00000  Uiso   1.00
O449   O     0.27798   0.94397   0.22652   0.00000  Uiso   1.00
O450   O     0.28975   0.94101   0.30065   0.00000  Uiso   1.00
O451   O     0.29241   0.71284   0.24559   0.00000  Uiso   1.00
O452   O     0.26824   0.74804   0.18345   0.00000  Uiso   1.00
O453   O     0.05252   0.94090   0.28388   0.00000  Uiso   1.00
O454   O     0.04803   0.94405   0.20874   0.00000  Uiso   1.00
O455   O     0.22679   0.79375   0.25001   0.00000  Uiso   1.00
O456   O     0.22679   0.87291   0.25001   0.00000  Uiso   1.00
O457   O     0.10655   0.79375   0.25000   0.00000  Uiso   1.00
O458   O     0.16666   0.87293   0.18573   0.00000  Uiso   1.00
O459   O     0.16667   0.79374   0.31427   0.00000  Uiso   1.00
O460   O     0.16667   0.87293   0.31427   0.00000  Uiso   1.00
O461   O     0.16666   0.79374   0.18573   0.00000  Uiso   1.00
O462   O     0.04745   0.72806   0.20140   0.00000  Uiso   1.00
C463   C     0.42062   0.83332   0.24936   0.00000  Uiso   1.00
C464   C     0.64541   0.87648   0.25102   0.00000  Uiso   1.00
C465   C     0.64505   0.79175   0.23714   0.00000  Uiso   1.00
C466   C     0.35430   0.87632   0.25034   0.00000  Uiso   1.00
C467   C     0.51239   0.87340   0.04769   0.00000  Uiso   1.00
C468   C     0.51242   0.79328   0.45246   0.00000  Uiso   1.00
C469   C     0.48783   0.87338   0.45232   0.00000  Uiso   1.00
C470   C     0.48778   0.79324   0.04757   0.00000  Uiso   1.00
C471   C     0.51205   0.87352   0.09360   0.00000  Uiso   1.00
C472   C     0.51212   0.79317   0.40654   0.00000  Uiso   1.00
C473   C     0.48810   0.87349   0.40641   0.00000  Uiso   1.00
C474   C     0.57920   0.83347   0.24824   0.00000  Uiso   1.00
C475   C     0.48801   0.79314   0.09348   0.00000  Uiso   1.00
C476   C     0.50001   0.83334   0.11673   0.00000  Uiso   1.00
C477   C     0.50009   0.83333   0.38328   0.00000  Uiso   1.00
C478   C     0.50011   0.83332   0.02429   0.00000  Uiso   1.00
C479   C     0.50013   0.83333   0.47572   0.00000  Uiso   1.00
C480   C     0.62371   0.83398   0.24508   0.00000  Uiso   1.00
C481   C     0.37578   0.83343   0.24757   0.00000  Uiso   1.00
C482   C     0.37484   0.74535   0.23772   0.00000  Uiso   1.00
C483   C     0.62507   0.92233   0.25806   0.00000  Uiso   1.00
C484   C     0.62385   0.74818   0.22284   0.00000  Uiso   1.00
C485   C     0.49998   0.83334   0.16496   0.00000  Uiso   1.00
C486   C     0.37497   0.92232   0.24943   0.00000  Uiso   1.00
C487   C     0.50004   0.83333   0.33504   0.00000  Uiso   1.00
C488   C     0.48125   0.69145   0.21695   0.00000  Uiso   1.00
C489   C     0.51893   0.97521   0.28292   0.00000  Uiso   1.00
C490   C     0.51910   0.69148   0.28282   0.00000  Uiso   1.00
C491   C     0.48144   0.97519   0.21685   0.00000  Uiso   1.00
C492   C     0.35398   0.79103   0.24126   0.00000  Uiso   1.00
Cu493  Cu    0.50000   0.88022   0.25000   0.00000  Uiso   1.00
Cu494  Cu    0.50000   0.78645   0.25000   0.00000  Uiso   1.00
H495   H     0.46603   0.71005   0.19057   0.00000  Uiso   1.00
H496   H     0.52184   0.76192   0.38927   0.00000  Uiso   1.00
H497   H     0.47838   0.90475   0.38904   0.00000  Uiso   1.00
H498   H     0.47827   0.76187   0.11076   0.00000  Uiso   1.00
H499   H     0.40517   0.69428   0.26987   0.00000  Uiso   1.00
H500   H     0.60942   0.97278   0.30134   0.00000  Uiso   1.00
H501   H     0.58812   0.71670   0.17750   0.00000  Uiso   1.00
H502   H     0.39606   0.97495   0.21167   0.00000  Uiso   1.00
H503   H     0.53410   0.95657   0.30932   0.00000  Uiso   1.00
H504   H     0.53457   0.71012   0.30903   0.00000  Uiso   1.00
H505   H     0.46658   0.95653   0.19025   0.00000  Uiso   1.00
H506   H     0.52271   0.90447   0.03053   0.00000  Uiso   1.00
H507   H     0.52273   0.76223   0.46972   0.00000  Uiso   1.00
H508   H     0.47753   0.90443   0.46947   0.00000  Uiso   1.00
H509   H     0.47749   0.76217   0.03031   0.00000  Uiso   1.00
H510   H     0.52175   0.90480   0.11097   0.00000  Uiso   1.00
N511   N     0.50000   0.95069   0.25000   0.00000  Uiso   1.00
N512   N     0.50000   0.71598   0.25000   0.00000  Uiso   1.00
O513   O     0.43988   0.87291   0.25000   0.00000  Uiso   1.00
O514   O     0.38826   0.72302   0.27618   0.00000  Uiso   1.00
O515   O     0.61131   0.94397   0.22652   0.00000  Uiso   1.00
O516   O     0.62308   0.94101   0.30065   0.00000  Uiso   1.00
O517   O     0.62575   0.71284   0.24559   0.00000  Uiso   1.00
O518   O     0.60158   0.74804   0.18345   0.00000  Uiso   1.00
O519   O     0.38585   0.94090   0.28388   0.00000  Uiso   1.00
O520   O     0.38136   0.94405   0.20874   0.00000  Uiso   1.00
O521   O     0.56012   0.79375   0.25001   0.00000  Uiso   1.00
O522   O     0.56012   0.87291   0.25001   0.00000  Uiso   1.00
O523   O     0.43988   0.79375   0.25000   0.00000  Uiso   1.00
O524   O     0.50000   0.87293   0.18573   0.00000  Uiso   1.00
O525   O     0.50000   0.79374   0.31427   0.00000  Uiso   1.00
O526   O     0.50000   0.87293   0.31427   0.00000  Uiso   1.00
O527   O     0.50000   0.79374   0.18573   0.00000  Uiso   1.00
O528   O     0.38079   0.72806   0.20140   0.00000  Uiso   1.00
C529   C     0.75395   0.83332   0.24936   0.00000  Uiso   1.00
C530   C     0.97874   0.87648   0.25102   0.00000  Uiso   1.00
C531   C     0.97838   0.79175   0.23714   0.00000  Uiso   1.00
C532   C     0.68763   0.87632   0.25034   0.00000  Uiso   1.00
C533   C     0.84572   0.87340   0.04769   0.00000  Uiso   1.00
C534   C     0.84575   0.79328   0.45246   0.00000  Uiso   1.00
C535   C     0.82117   0.87338   0.45232   0.00000  Uiso   1.00
C536   C     0.82112   0.79324   0.04757   0.00000  Uiso   1.00
C537   C     0.84539   0.87352   0.09360   0.00000  Uiso   1.00
C538   C     0.84546   0.79317   0.40654   0.00000  Uiso   1.00
C539   C     0.82143   0.87349   0.40641   0.00000  Uiso   1.00
C540   C     0.91254   0.83347   0.24824   0.00000  Uiso   1.00
C541   C     0.82135   0.79314   0.09348   0.00000  Uiso   1.00
C542   C     0.83334   0.83334   0.11673   0.00000  Uiso   1.00
C543   C     0.83342   0.83333   0.38328   0.00000  Uiso   1.00
C544   C     0.83344   0.83332   0.02429   0.00000  Uiso   1.00
C545   C     0.83346   0.83333   0.47572   0.00000  Uiso   1.00
C546   C     0.95704   0.83398   0.24508   0.00000  Uiso   1.00
C547   C     0.70912   0.83343   0.24757   0.00000  Uiso   1.00
C548   C     0.70817   0.74535   0.23772   0.00000  Uiso   1.00
C549   C     0.95841   0.92233   0.25806   0.00000  Uiso   1.00
C550   C     0.95719   0.74818   0.22284   0.00000  Uiso   1.00
C551   C     0.83332   0.83334   0.16496   0.00000  Uiso   1.00
C552   C     0.70830   0.92232   0.24943   0.00000  Uiso   1.00
C553   C     0.83337   0.83333   0.33504   0.00000  Uiso   1.00
C554   C     0.81459   0.69145   0.21695   0.00000  Uiso   1.00
C555   C     0.85227   0.97521   0.28292   0.00000  Uiso   1.00
C556   C     0.85243   0.69148   0.28282   0.00000  Uiso   1.00
C557   C     0.81477   0.97519   0.21685   0.00000  Uiso   1.00
C558   C     0.68732   0.79103   0.24126   0.00000  Uiso   1.00
Cu559  Cu    0.83333   0.88022   0.25000   0.00000  Uiso   1.00
Cu560  Cu    0.83333   0.78645   0.25000   0.00000  Uiso   1.00
H561   H     0.79936   0.71005   0.19057   0.00000  Uiso   1.00
H562   H     0.85517   0.76192   0.38927   0.00000  Uiso   1.00
H563   H     0.81171   0.90475   0.38904   0.00000  Uiso   1.00
H564   H     0.81160   0.76187   0.11076   0.00000  Uiso   1.00
H565   H     0.73850   0.69428   0.26987   0.00000  Uiso   1.00
H566   H     0.94275   0.97278   0.30134   0.00000  Uiso   1.00
H567   H     0.92145   0.71670   0.17750   0.00000  Uiso   1.00
H568   H     0.72939   0.97495   0.21167   0.00000  Uiso   1.00
H569   H     0.86743   0.95657   0.30932   0.00000  Uiso   1.00
H570   H     0.86791   0.71012   0.30903   0.00000  Uiso   1.00
H571   H     0.79991   0.95653   0.19025   0.00000  Uiso   1.00
H572   H     0.85604   0.90447   0.03053   0.00000  Uiso   1.00
H573   H     0.85606   0.76223   0.46972   0.00000  Uiso   1.00
H574   H     0.81087   0.90443   0.46947   0.00000  Uiso   1.00
H575   H     0.81082   0.76217   0.03031   0.00000  Uiso   1.00
H576   H     0.85509   0.90480   0.11097   0.00000  Uiso   1.00
N577   N     0.83333   0.95069   0.25000   0.00000  Uiso   1.00
N578   N     0.83333   0.71598   0.25000   0.00000  Uiso   1.00
O579   O     0.77321   0.87291   0.25000   0.00000  Uiso   1.00
O580   O     0.72160   0.72302   0.27618   0.00000  Uiso   1.00
O581   O     0.94465   0.94397   0.22652   0.00000  Uiso   1.00
O582   O     0.95642   0.94101   0.30065   0.00000  Uiso   1.00
O583   O     0.95908   0.71284   0.24559   0.00000  Uiso   1.00
O584   O     0.93491   0.74804   0.18345   0.00000  Uiso   1.00
O585   O     0.71919   0.94090   0.28388   0.00000  Uiso   1.00
O586   O     0.71470   0.94405   0.20874   0.00000  Uiso   1.00
O587   O     0.89345   0.79375   0.25001   0.00000  Uiso   1.00
O588   O     0.89345   0.87291   0.25001   0.00000  Uiso   1.00
O589   O     0.77321   0.79375   0.25000   0.00000  Uiso   1.00
O590   O     0.83333   0.87293   0.18573   0.00000  Uiso   1.00
O591   O     0.83334   0.79374   0.31427   0.00000  Uiso   1.00
O592   O     0.83334   0.87293   0.31427   0.00000  Uiso   1.00
O593   O     0.83333   0.79374   0.18573   0.00000  Uiso   1.00
O594   O     0.71412   0.72806   0.20140   0.00000  Uiso   1.00
C595   C     0.08728   0.16666   0.74936   0.00000  Uiso   1.00
C596   C     0.31207   0.20982   0.75102   0.00000  Uiso   1.00
C597   C     0.31172   0.12509   0.73714   0.00000  Uiso   1.00
C598   C     0.02097   0.20965   0.75034   0.00000  Uiso   1.00
C599   C     0.17905   0.20673   0.54769   0.00000  Uiso   1.00
C600   C     0.17909   0.12661   0.95246   0.00000  Uiso   1.00
C601   C     0.15450   0.20672   0.95232   0.00000  Uiso   1.00
C602   C     0.15445   0.12657   0.54757   0.00000  Uiso   1.00
C603   C     0.17872   0.20685   0.59360   0.00000  Uiso   1.00
C604   C     0.17879   0.12650   0.90654   0.00000  Uiso   1.00
C605   C     0.15476   0.20683   0.90641   0.00000  Uiso   1.00
C606   C     0.24587   0.16680   0.74824   0.00000  Uiso   1.00
C607   C     0.15468   0.12647   0.59348   0.00000  Uiso   1.00
C608   C     0.16668   0.16667   0.61673   0.00000  Uiso   1.00
C609   C     0.16675   0.16666   0.88328   0.00000  Uiso   1.00
C610   C     0.16677   0.16665   0.52429   0.00000  Uiso   1.00
C611   C     0.16679   0.16666   0.97572   0.00000  Uiso   1.00
C612   C     0.29038   0.16731   0.74508   0.00000  Uiso   1.00
C613   C     0.04245   0.16677   0.74757   0.00000  Uiso   1.00
C614   C     0.04151   0.07868   0.73772   0.00000  Uiso   1.00
C615   C     0.29174   0.25566   0.75806   0.00000  Uiso   1.00
C616   C     0.29052   0.08151   0.72284   0.00000  Uiso   1.00
C617   C     0.16665   0.16667   0.66496   0.00000  Uiso   1.00
C618   C     0.04163   0.25566   0.74943   0.00000  Uiso   1.00
C619   C     0.16671   0.16666   0.83504   0.00000  Uiso   1.00
C620   C     0.14792   0.02478   0.71695   0.00000  Uiso   1.00
C621   C     0.18560   0.30854   0.78292   0.00000  Uiso   1.00
C622   C     0.18577   0.02481   0.78282   0.00000  Uiso   1.00
C623   C     0.14810   0.30852   0.71685   0.00000  Uiso   1.00
C624   C     0.02065   0.12436   0.74126   0.00000  Uiso   1.00
Cu625  Cu    0.16667   0.21355   0.75000   0.00000  Uiso   1.00
Cu626  Cu    0.16667   0.11978   0.75000   0.00000  Uiso   1.00
H627   H     0.13269   0.04339   0.69057   0.00000  Uiso   1.00
H628   H     0.18850   0.09525   0.88927   0.00000  Uiso   1.00
H629   H     0.14504   0.23808   0.88904   0.00000  Uiso   1.00
H630   H     0.14493   0.09521   0.61076   0.00000  Uiso   1.00
H631   H     0.07184   0.02761   0.76987   0.00000  Uiso   1.00
H632   H     0.27609   0.30611   0.80134   0.00000  Uiso   1.00
H633   H     0.25478   0.05003   0.67750   0.00000  Uiso   1.00
H634   H     0.06272   0.30828   0.71167   0.00000  Uiso   1.00
H635   H     0.20077   0.28990   0.80932   0.00000  Uiso   1.00
H636   H     0.20124   0.04345   0.80903   0.00000  Uiso   1.00
H637   H     0.13324   0.28987   0.69025   0.00000  Uiso   1.00
H638   H     0.18938   0.23780   0.53053   0.00000  Uiso   1.00
H639   H     0.18939   0.09556   0.96972   0.00000  Uiso   1.00
H640   H     0.14420   0.23776   0.96947   0.00000  Uiso   1.00
H641   H     0.14416   0.09550   0.53031   0.00000  Uiso   1.00
H642   H     0.18842   0.23813   0.61097   0.00000  Uiso   1.00
N643   N     0.16667   0.28402   0.75000   0.00000  Uiso   1.00
N644   N     0.16667   0.04931   0.75000   0.00000  Uiso   1.00
O645   O     0.10655   0.20625   0.75000   0.00000  Uiso   1.00
O646   O     0.05493   0.05635   0.77618   0.00000  Uiso   1.00
O647   O     0.27798   0.27730   0.72652   0.00000  Uiso   1.00
O648   O     0.28975   0.27435   0.80065   0.00000  Uiso   1.00
O649   O     0.29241   0.04617   0.74559   0.00000  Uiso   1.00
O650   O     0.26824   0.08137   0.68345   0.00000  Uiso   1.00
O651   O     0.05252   0.27424   0.78388   0.00000  Uiso   1.00
O652   O     0.04803   0.27739   0.70874   0.00000  Uiso   1.00
O653   O     0.22679   0.12709   0.75001   0.00000  Uiso   1.00
O654   O     0.22679   0.20625   0.75001   0.00000  Uiso   1.00
O655   O     0.10655   0.12709   0.75000   0.00000  Uiso   1.00
O656   O     0.16666   0.20626   0.68573   0.00000  Uiso   1.00
O657   O     0.16667   0.12707   0.81427   0.00000  Uiso   1.00
O658   O     0.16667   0.20626   0.81427   0.00000  Uiso   1.00
O659   O     0.16666   0.12707   0.68573   0.00000  Uiso   1.00
O660   O     0.04745   0.06139   0.70140   0.00000  Uiso   1.00
C661   C     0.42062   0.16666   0.74936   0.00000  Uiso   1.00
C662   C     0.64541   0.20982   0.75102   0.00000  Uiso   1.00
C663   C     0.64505   0.12509   0.73714   0.00000  Uiso   1.00
C664   C     0.35430   0.20965   0.75034   0.00000  Uiso   1.00
C665   C     0.51239   0.20673   0.54769   0.00000  Uiso   1.00
C666   C     0.51242   0.12661   0.95246   0.00000  Uiso   1.00
C667   C     0.48783   0.20672   0.95232   0.00000  Uiso   1.00
C668   C     0.48778   0.12657   0.54757   0.00000  Uiso   1.00
C669   C     0.51205   0.20685   0.59360   0.00000  Uiso   1.00
C670   C     0.51212   0.12650   0.90654   0.00000  Uiso   1.00
C671   C     0.48810   0.20683   0.90641   0.00000  Uiso   1.00
C672   C     0.57920   0.16680   0.74824   0.00000  Uiso   1.00
C673   C     0.48801   0.12647   0.59348   0.00000  Uiso   1.00
C674   C     0.50001   0.16667   0.61673   0.00000  Uiso   1.00
C675   C     0.50009   0.16666   0.88328   0.00000  Uiso   1.00
C676   C     0.50011   0.16665   0.52429   0.00000  Uiso   1.00
C677   C     0.50013   0.16666   0.97572   0.00000  Uiso   1.00
C678   C     0.62371   0.16731   0.74508   0.00000  Uiso   1.00
C679   C     0.37578   0.16677   0.74757   0.00000  Uiso   1.00
C680   C     0.37484   0.07868   0.73772   0.00000  Uiso   1.00
C681   C     0.62507   0.25566   0.75806   0.00000  Uiso   1.00
C682   C     0.62385   0.08151   0.72284   0.00000  Uiso   1.00
C683   C     0.49998   0.16667   0.66496   0.00000  Uiso   1.00
C684   C     0.37497   0.25566   0.74943   0.00000  Uiso   1.00
C685   C     0.50004   0.16666   0.83504   0.00000  Uiso   1.00
C686   C     0.48125   0.02478   0.71695   0.00000  Uiso   1.00
C687   C     0.51893   0.30854   0.78292   0.00000  Uiso   1.00
C688   C     0.51910   0.02481   0.78282   0.00000  Uiso   1.00
C689   C     0.48144   0.30852   0.71685   0.00000  Uiso   1.00
C690   C     0.35398   0.12436   0.74126   0.00000  Uiso   1.00
Cu691  Cu    0.50000   0.21355   0.75000   0.00000  Uiso   1.00
Cu692  Cu    0.50000   0.11978   0.75000   0.00000  Uiso   1.00
H693   H     0.46603   0.04339   0.69057   0.00000  Uiso   1.00
H694   H     0.52184   0.09525   0.88927   0.00000  Uiso   1.00
H695   H     0.47838   0.23808   0.88904   0.00000  Uiso   1.00
H696   H     0.47827   0.09521   0.61076   0.00000  Uiso   1.00
H697   H     0.40517   0.02761   0.76987   0.00000  Uiso   1.00
H698   H     0.60942   0.30611   0.80134   0.00000  Uiso   1.00
H699   H     0.58812   0.05003   0.67750   0.00000  Uiso   1.00
H700   H     0.39606   0.30828   0.71167   0.00000  Uiso   1.00
H701   H     0.53410   0.28990   0.80932   0.00000  Uiso   1.00
H702   H     0.53457   0.04345   0.80903   0.00000  Uiso   1.00
H703   H     0.46658   0.28987   0.69025   0.00000  Uiso   1.00
H704   H     0.52271   0.23780   0.53053   0.00000  Uiso   1.00
H705   H     0.52273   0.09556   0.96972   0.00000  Uiso   1.00
H706   H     0.47753   0.23776   0.96947   0.00000  Uiso   1.00
H707   H     0.47749   0.09550   0.53031   0.00000  Uiso   1.00
H708   H     0.52175   0.23813   0.61097   0.00000  Uiso   1.00
N709   N     0.50000   0.28402   0.75000   0.00000  Uiso   1.00
N710   N     0.50000   0.04931   0.75000   0.00000  Uiso   1.00
O711   O     0.43988   0.20625   0.75000   0.00000  Uiso   1.00
O712   O     0.38826   0.05635   0.77618   0.00000  Uiso   1.00
O713   O     0.61131   0.27730   0.72652   0.00000  Uiso   1.00
O714   O     0.62308   0.27435   0.80065   0.00000  Uiso   1.00
O715   O     0.62575   0.04617   0.74559   0.00000  Uiso   1.00
O716   O     0.60158   0.08137   0.68345   0.00000  Uiso   1.00
O717   O     0.38585   0.27424   0.78388   0.00000  Uiso   1.00
O718   O     0.38136   0.27739   0.70874   0.00000  Uiso   1.00
O719   O     0.56012   0.12709   0.75001   0.00000  Uiso   1.00
O720   O     0.56012   0.20625   0.75001   0.00000  Uiso   1.00
O721   O     0.43988   0.12709   0.75000   0.00000  Uiso   1.00
O722   O     0.50000   0.20626   0.68573   0.00000  Uiso   1.00
O723   O     0.50000   0.12707   0.81427   0.00000  Uiso   1.00
O724   O     0.50000   0.20626   0.81427   0.00000  Uiso   1.00
O725   O     0.50000   0.12707   0.68573   0.00000  Uiso   1.00
O726   O     0.38079   0.06139   0.70140   0.00000  Uiso   1.00
C727   C     0.75395   0.16666   0.74936   0.00000  Uiso   1.00
C728   C     0.97874   0.20982   0.75102   0.00000  Uiso   1.00
C729   C     0.97838   0.12509   0.73714   0.00000  Uiso   1.00
C730   C     0.68763   0.20965   0.75034   0.00000  Uiso   1.00
C731   C     0.84572   0.20673   0.54769   0.00000  Uiso   1.00
C732   C     0.84575   0.12661   0.95246   0.00000  Uiso   1.00
C733   C     0.82117   0.20672   0.95232   0.00000  Uiso   1.00
C734   C     0.82112   0.12657   0.54757   0.00000  Uiso   1.00
C735   C     0.84539   0.20685   0.59360   0.00000  Uiso   1.00
C736   C     0.84546   0.12650   0.90654   0.00000  Uiso   1.00
C737   C     0.82143   0.20683   0.90641   0.00000  Uiso   1.00
C738   C     0.91254   0.16680   0.74824   0.00000  Uiso   1.00
C739   C     0.82135   0.12647   0.59348   0.00000  Uiso   1.00
C740   C     0.83334   0.16667   0.61673   0.00000  Uiso   1.00
C741   C     0.83342   0.16666   0.88328   0.00000  Uiso   1.00
C742   C     0.83344   0.16665   0.52429   0.00000  Uiso   1.00
C743   C     0.83346   0.16666   0.97572   0.00000  Uiso   1.00
C744   C     0.95704   0.16731   0.74508   0.00000  Uiso   1.00
C745   C     0.70912   0.16677   0.74757   0.00000  Uiso   1.00
C746   C     0.70817   0.07868   0.73772   0.00000  Uiso   1.00
C747   C     0.95841   0.25566   0.75806   0.00000  Uiso   1.00
C748   C     0.95719   0.08151   0.72284   0.00000  Uiso   1.00
C749   C     0.83332   0.16667   0.66496   0.00000  Uiso   1.00
C750   C     0.70830   0.25566   0.74943   0.00000  Uiso   1.00
C751   C     0.83337   0.16666   0.83504   0.00000  Uiso   1.00
C752   C     0.81459   0.02478   0.71695   0.00000  Uiso   1.00
C753   C     0.85227   0.30854   0.78292   0.00000  Uiso   1.00
C754   C     0.85243   0.02481   0.78282   0.00000  Uiso   1.00
C755   C     0.81477   0.30852   0.71685   0.00000  Uiso   1.00
C756   C     0.68732   0.12436   0.74126   0.00000  Uiso   1.00
Cu757  Cu    0.83333   0.21355   0.75000   0.00000  Uiso   1.00
Cu758  Cu    0.83333   0.11978   0.75000   0.00000  Uiso   1.00
H759   H     0.79936   0.04339   0.69057   0.00000  Uiso   1.00
H760   H     0.85517   0.09525   0.88927   0.00000  Uiso   1.00
H761   H     0.81171   0.23808   0.88904   0.00000  Uiso   1.00
H762   H     0.81160   0.09521   0.61076   0.00000  Uiso   1.00
H763   H     0.73850   0.02761   0.76987   0.00000  Uiso   1.00
H764   H     0.94275   0.30611   0.80134   0.00000  Uiso   1.00
H765   H     0.92145   0.05003   0.67750   0.00000  Uiso   1.00
H766   H     0.72939   0.30828   0.71167   0.00000  Uiso   1.00
H767   H     0.86743   0.28990   0.80932   0.00000  Uiso   1.00
H768   H     0.86791   0.04345   0.80903   0.00000  Uiso   1.00
H769   H     0.79991   0.28987   0.69025   0.00000  Uiso   1.00
H770   H     0.85604   0.23780   0.53053   0.00000  Uiso   1.00
H771   H     0.85606   0.09556   0.96972   0.00000  Uiso   1.00
H772   H     0.81087   0.23776   0.96947   0.00000  Uiso   1.00
H773   H     0.81082   0.09550   0.53031   0.00000  Uiso   1.00
H774   H     0.85509   0.23813   0.61097   0.00000  Uiso   1.00
N775   N     0.83333   0.28402   0.75000   0.00000  Uiso   1.00
N776   N     0.83333   0.04931   0.75000   0.00000  Uiso   1.00
O777   O     0.77321   0.20625   0.75000   0.00000  Uiso   1.00
O778   O     0.72160   0.05635   0.77618   0.00000  Uiso   1.00
O779   O     0.94465   0.27730   0.72652   0.00000  Uiso   1.00
O780   O     0.95642   0.27435   0.80065   0.00000  Uiso   1.00
O781   O     0.95908   0.04617   0.74559   0.00000  Uiso   1.00
O782   O     0.93491   0.08137   0.68345   0.00000  Uiso   1.00
O783   O     0.71919   0.27424   0.78388   0.00000  Uiso   1.00
O784   O     0.71470   0.27739   0.70874   0.00000  Uiso   1.00
O785   O     0.89345   0.12709   0.75001   0.00000  Uiso   1.00
O786   O     0.89345   0.20625   0.75001   0.00000  Uiso   1.00
O787   O     0.77321   0.12709   0.75000   0.00000  Uiso   1.00
O788   O     0.83333   0.20626   0.68573   0.00000  Uiso   1.00
O789   O     0.83334   0.12707   0.81427   0.00000  Uiso   1.00
O790   O     0.83334   0.20626   0.81427   0.00000  Uiso   1.00
O791   O     0.83333   0.12707   0.68573   0.00000  Uiso   1.00
O792   O     0.71412   0.06139   0.70140   0.00000  Uiso   1.00
C793   C     0.08728   0.49999   0.74936   0.00000  Uiso   1.00
C794   C     0.31207   0.54315   0.75102   0.00000  Uiso   1.00
C795   C     0.31172   0.45842   0.73714   0.00000  Uiso   1.00
C796   C     0.02097   0.54298   0.75034   0.00000  Uiso   1.00
C797   C     0.17905   0.54007   0.54769   0.00000  Uiso   1.00
C798   C     0.17909   0.45994   0.95246   0.00000  Uiso   1.00
C799   C     0.15450   0.54005   0.95232   0.00000  Uiso   1.00
C800   C     0.15445   0.45991   0.54757   0.00000  Uiso   1.00
C801   C     0.17872   0.54019   0.59360   0.00000  Uiso   1.00
C802   C     0.17879   0.45983   0.90654   0.00000  Uiso   1.00
C803   C     0.15476   0.54016   0.90641   0.00000  Uiso   1.00
C804   C     0.24587   0.50013   0.74824   0.00000  Uiso   1.00
C805   C     0.15468   0.45981   0.59348   0.00000  Uiso   1.00
C806   C     0.16668   0.50000   0.61673   0.00000  Uiso   1.00
C807   C     0.16675   0.49999   0.88328   0.00000  Uiso   1.00
C808   C     0.16677   0.49998   0.52429   0.00000  Uiso   1.00
C809   C     0.16679   0.49999   0.97572   0.00000  Uiso   1.00
C810   C     0.29038   0.50065   0.74508   0.00000  Uiso   1.00
C811   C     0.04245   0.50010   0.74757   0.00000  Uiso   1.00
C812   C     0.04151   0.41202   0.73772   0.00000  Uiso   1.00
C813   C     0.29174   0.58899   0.75806   0.00000  Uiso   1.00
C814   C     0.29052   0.41485   0.72284   0.00000  Uiso   1.00
C815   C     0.16665   0.50000   0.66496   0.00000  Uiso   1.00
C816   C     0.04163   0.58899   0.74943   0.00000  Uiso   1.00
C817   C     0.16671   0.50000   0.83504   0.00000  Uiso   1.00
C818   C     0.14792   0.35811   0.71695   0.00000  Uiso   1.00
C819   C     0.18560   0.64188   0.78292   0.00000  Uiso   1.00
C820   C     0.18577   0.35814   0.78282   0.00000  Uiso   1.00
C821   C     0.14810   0.64186   0.71685   0.00000  Uiso   1.00
C822   C     0.02065   0.45769   0.74126   0.00000  Uiso   1.00
Cu823  Cu    0.16667   0.54689   0.75000   0.00000  Uiso   1.00
Cu824  Cu    0.16667   0.45311   0.75000   0.00000  Uiso   1.00
H825   H     0.13269   0.37672   0.69057   0.00000  Uiso   1.00
H826   H     0.18850   0.42858   0.88927   0.00000  Uiso   1.00
H827   H     0.14504   0.57142   0.88904   0.00000  Uiso   1.00
H828   H     0.14493   0.42854   0.61076   0.00000  Uiso   1.00
H829   H     0.07184   0.36095   0.76987   0.00000  Uiso   1.00
H830   H     0.27609   0.63945   0.80134   0.00000  Uiso   1.00
H831   H     0.25478   0.38337   0.67750   0.00000  Uiso   1.00
H832   H     0.06272   0.64161   0.71167   0.00000  Uiso   1.00
H833   H     0.20077   0.62323   0.80932   0.00000  Uiso   1.00
H834   H     0.20124   0.37678   0.80903   0.00000  Uiso   1.00
H835   H     0.13324   0.62320   0.69025   0.00000  Uiso   1.00
H836   H     0.18938   0.57114   0.53053   0.00000  Uiso   1.00
H837   H     0.18939   0.42889   0.96972   0.00000  Uiso   1.00
H838   H     0.14420   0.57110   0.96947   0.00000  Uiso   1.00
H839   H     0.14416   0.42884   0.53031   0.00000  Uiso   1.00
H840   H     0.18842   0.57146   0.61097   0.00000  Uiso   1.00
N841   N     0.16667   0.61736   0.75000   0.00000  Uiso   1.00
N842   N     0.16667   0.38264   0.75000   0.00000  Uiso   1.00
O843   O     0.10655   0.53958   0.75000   0.00000  Uiso   1.00
O844   O     0.05493   0.38968   0.77618   0.00000  Uiso   1.00
O845   O     0.27798   0.61063   0.72652   0.00000  Uiso   1.00
O846   O     0.28975   0.60768   0.80065   0.00000  Uiso   1.00
O847   O     0.29241   0.37950   0.74559   0.00000  Uiso   1.00
O848   O     0.26824   0.41470   0.68345   0.00000  Uiso   1.00
O849   O     0.05252   0.60757   0.78388   0.00000  Uiso   1.00
O850   O     0.04803   0.61072   0.70874   0.00000  Uiso   1.00
O851   O     0.22679   0.46042   0.75001   0.00000  Uiso   1.00
O852   O     0.22679   0.53958   0.75001   0.00000  Uiso   1.00
O853   O     0.10655   0.46042   0.75000   0.00000  Uiso   1.00
O854   O     0.16666   0.53959   0.68573   0.00000  Uiso   1.00
O855   O     0.16667   0.46041   0.81427   0.00000  Uiso   1.00
O856   O     0.16667   0.53959   0.81427   0.00000  Uiso   1.00
O857   O     0.16666   0.46041   0.68573   0.00000  Uiso   1.00
O858   O     0.04745   0.39472   0.70140   0.00000  Uiso   1.00
C859   C     0.42062   0.49999   0.74936   0.00000  Uiso   1.00
C860   C     0.64541   0.54315   0.75102   0.00000  Uiso   1.00
C861   C     0.64505   0.45842   0.73714   0.00000  Uiso   1.00
C862   C     0.35430   0.54298   0.75034   0.00000  Uiso   1.00
C863   C     0.51239   0.54007   0.54769   0.00000  Uiso   1.00
C864   C     0.51242   0.45994   0.95246   0.00000  Uiso   1.00
C865   C     0.48783   0.54005   0.95232   0.00000  Uiso   1.00
C866   C     0.48778   0.45991   0.54757   0.00000  Uiso   1.00
C867   C     0.51205   0.54019   0.59360   0.00000  Uiso   1.00
C868   C     0.51212   0.45983   0.90654   0.00000  Uiso   1.00
C869   C     0.48810   0.54016   0.90641   0.00000  Uiso   1.00
C870   C     0.57920   0.50013   0.74824   0.00000  Uiso   1.00
C871   C     0.48801   0.45981   0.59348   0.00000  Uiso   1.00
C872   C     0.50001   0.50000   0.61673   0.00000  Uiso   1.00
C873   C     0.50009   0.49999   0.88328   0.00000  Uiso   1.00
C874   C     0.50011   0.49998   0.52429   0.00000  Uiso   1.00
C875   C     0.50013   0.49999   0.97572   0.00000  Uiso   1.00
C876   C     0.62371   0.50065   0.74508   0.00000  Uiso   1.00
C877   C     0.37578   0.50010   0.74757   0.00000  Uiso   1.00
C878   C     0.37484   0.41202   0.73772   0.00000  Uiso   1.00
C879   C     0.62507   0.58899   0.75806   0.00000  Uiso   1.00
C880   C     0.62385   0.41485   0.72284   0.00000  Uiso   1.00
C881   C     0.49998   0.50000   0.66496   0.00000  Uiso   1.00
C882   C     0.37497   0.58899   0.74943   0.00000  Uiso   1.00
C883   C     0.50004   0.50000   0.83504   0.00000  Uiso   1.00
C884   C     0.48125   0.35811   0.71695   0.00000  Uiso   1.00
C885   C     0.51893   0.64188   0.78292   0.00000  Uiso   1.00
C886   C     0.51910   0.35814   0.78282   0.00000  Uiso   1.00
C887   C     0.48144   0.64186   0.71685   0.00000  Uiso   1.00
C888   C     0.35398   0.45769   0.74126   0.00000  Uiso   1.00
Cu889  Cu    0.50000   0.54689   0.75000   0.00000  Uiso   1.00
Cu890  Cu    0.50000   0.45311   0.75000   0.00000  Uiso   1.00
H891   H     0.46603   0.37672   0.69057   0.00000  Uiso   1.00
H892   H     0.52184   0.42858   0.88927   0.00000  Uiso   1.00
H893   H     0.47838   0.57142   0.88904   0.00000  Uiso   1.00
H894   H     0.47827   0.42854   0.61076   0.00000  Uiso   1.00
H895   H     0.40517   0.36095   0.76987   0.00000  Uiso   1.00
H896   H     0.60942   0.63945   0.80134   0.00000  Uiso   1.00
H897   H     0.58812   0.38337   0.67750   0.00000  Uiso   1.00
H898   H     0.39606   0.64161   0.71167   0.00000  Uiso   1.00
H899   H     0.53410   0.62323   0.80932   0.00000  Uiso   1.00
H900   H     0.53457   0.37678   0.80903   0.00000  Uiso   1.00
H901   H     0.46658   0.62320   0.69025   0.00000  Uiso   1.00
H902   H     0.52271   0.57114   0.53053   0.00000  Uiso   1.00
H903   H     0.52273   0.42889   0.96972   0.00000  Uiso   1.00
H904   H     0.47753   0.57110   0.96947   0.00000  Uiso   1.00
H905   H     0.47749   0.42884   0.53031   0.00000  Uiso   1.00
H906   H     0.52175   0.57146   0.61097   0.00000  Uiso   1.00
N907   N     0.50000   0.61736   0.75000   0.00000  Uiso   1.00
N908   N     0.50000   0.38264   0.75000   0.00000  Uiso   1.00
O909   O     0.43988   0.53958   0.75000   0.00000  Uiso   1.00
O910   O     0.38826   0.38968   0.77618   0.00000  Uiso   1.00
O911   O     0.61131   0.61063   0.72652   0.00000  Uiso   1.00
O912   O     0.62308   0.60768   0.80065   0.00000  Uiso   1.00
O913   O     0.62575   0.37950   0.74559   0.00000  Uiso   1.00
O914   O     0.60158   0.41470   0.68345   0.00000  Uiso   1.00
O915   O     0.38585   0.60757   0.78388   0.00000  Uiso   1.00
O916   O     0.38136   0.61072   0.70874   0.00000  Uiso   1.00
O917   O     0.56012   0.46042   0.75001   0.00000  Uiso   1.00
O918   O     0.56012   0.53958   0.75001   0.00000  Uiso   1.00
O919   O     0.43988   0.46042   0.75000   0.00000  Uiso   1.00
O920   O     0.50000   0.53959   0.68573   0.00000  Uiso   1.00
O921   O     0.50000   0.46041   0.81427   0.00000  Uiso   1.00
O922   O     0.50000   0.53959   0.81427   0.00000  Uiso   1.00
O923   O     0.50000   0.46041   0.68573   0.00000  Uiso   1.00
O924   O     0.38079   0.39472   0.70140   0.00000  Uiso   1.00
C925   C     0.75395   0.49999   0.74936   0.00000  Uiso   1.00
C926   C     0.97874   0.54315   0.75102   0.00000  Uiso   1.00
C927   C     0.97838   0.45842   0.73714   0.00000  Uiso   1.00
C928   C     0.68763   0.54298   0.75034   0.00000  Uiso   1.00
C929   C     0.84572   0.54007   0.54769   0.00000  Uiso   1.00
C930   C     0.84575   0.45994   0.95246   0.00000  Uiso   1.00
C931   C     0.82117   0.54005   0.95232   0.00000  Uiso   1.00
C932   C     0.82112   0.45991   0.54757   0.00000  Uiso   1.00
C933   C     0.84539   0.54019   0.59360   0.00000  Uiso   1.00
C934   C     0.84546   0.45983   0.90654   0.00000  Uiso   1.00
C935   C     0.82143   0.54016   0.90641   0.00000  Uiso   1.00
C936   C     0.91254   0.50013   0.74824   0.00000  Uiso   1.00
C937   C     0.82135   0.45981   0.59348   0.00000  Uiso   1.00
C938   C     0.83334   0.50000   0.61673   0.00000  Uiso   1.00
C939   C     0.83342   0.49999   0.88328   0.00000  Uiso   1.00
C940   C     0.83344   0.49998   0.52429   0.00000  Uiso   1.00
C941   C     0.83346   0.49999   0.97572   0.00000  Uiso   1.00
C942   C     0.95704   0.50065   0.74508   0.00000  Uiso   1.00
C943   C     0.70912   0.50010   0.74757   0.00000  Uiso   1.00
C944   C     0.70817   0.41202   0.73772   0.00000  Uiso   1.00
C945   C     0.95841   0.58899   0.75806   0.00000  Uiso   1.00
C946   C     0.95719   0.41485   0.72284   0.00000  Uiso   1.00
C947   C     0.83332   0.50000   0.66496   0.00000  Uiso   1.00
C948   C     0.70830   0.58899   0.74943   0.00000  Uiso   1.00
C949   C     0.83337   0.50000   0.83504   0.00000  Uiso   1.00
C950   C     0.81459   0.35811   0.71695   0.00000  Uiso   1.00
C951   C     0.85227   0.64188   0.78292   0.00000  Uiso   1.00
C952   C     0.85243   0.35814   0.78282   0.00000  Uiso   1.00
C953   C     0.81477   0.64186   0.71685   0.00000  Uiso   1.00
C954   C     0.68732   0.45769   0.74126   0.00000  Uiso   1.00
Cu955  Cu    0.83333   0.54689   0.75000   0.00000  Uiso   1.00
Cu956  Cu    0.83333   0.45311   0.75000   0.00000  Uiso   1.00
H957   H     0.79936   0.37672   0.69057   0.00000  Uiso   1.00
H958   H     0.85517   0.42858   0.88927   0.00000  Uiso   1.00
H959   H     0.81171   0.57142   0.88904   0.00000  Uiso   1.00
H960   H     0.81160   0.42854   0.61076   0.00000  Uiso   1.00
H961   H     0.73850   0.36095   0.76987   0.00000  Uiso   1.00
H962   H     0.94275   0.63945   0.80134   0.00000  Uiso   1.00
H963   H     0.92145   0.38337   0.67750   0.00000  Uiso   1.00
H964   H     0.72939   0.64161   0.71167   0.00000  Uiso   1.00
H965   H     0.86743   0.62323   0.80932   0.00000  Uiso   1.00
H966   H     0.86791   0.37678   0.80903   0.00000  Uiso   1.00
H967   H     0.79991   0.62320   0.69025   0.00000  Uiso   1.00
H968   H     0.85604   0.57114   0.53053   0.00000  Uiso   1.00
H969   H     0.85606   0.42889   0.96972   0.00000  Uiso   1.00
H970   H     0.81087   0.57110   0.96947   0.00000  Uiso   1.00
H971   H     0.81082   0.42884   0.53031   0.00000  Uiso   1.00
H972   H     0.85509   0.57146   0.61097   0.00000  Uiso   1.00
N973   N     0.83333   0.61736   0.75000   0.00000  Uiso   1.00
N974   N     0.83333   0.38264   0.75000   0.00000  Uiso   1.00
O975   O     0.77321   0.53958   0.75000   0.00000  Uiso   1.00
O976   O     0.72160   0.38968   0.77618   0.00000  Uiso   1.00
O977   O     0.94465   0.61063   0.72652   0.00000  Uiso   1.00
O978   O     0.95642   0.60768   0.80065   0.00000  Uiso   1.00
O979   O     0.95908   0.37950   0.74559   0.00000  Uiso   1.00
O980   O     0.93491   0.41470   0.68345   0.00000  Uiso   1.00
O981   O     0.71919   0.60757   0.78388   0.00000  Uiso   1.00
O982   O     0.71470   0.61072   0.70874   0.00000  Uiso   1.00
O983   O     0.89345   0.46042   0.75001   0.00000  Uiso   1.00
O984   O     0.89345   0.53958   0.75001   0.00000  Uiso   1.00
O985   O     0.77321   0.46042   0.75000   0.00000  Uiso   1.00
O986   O     0.83333   0.53959   0.68573   0.00000  Uiso   1.00
O987   O     0.83334   0.46041   0.81427   0.00000  Uiso   1.00
O988   O     0.83334   0.53959   0.81427   0.00000  Uiso   1.00
O989   O     0.83333   0.46041   0.68573   0.00000  Uiso   1.00
O990   O     0.71412   0.39472   0.70140   0.00000  Uiso   1.00
C991   C     0.08728   0.83332   0.74936   0.00000  Uiso   1.00
C992   C     0.31207   0.87648   0.75102   0.00000  Uiso   1.00
C993   C     0.31172   0.79175   0.73714   0.00000  Uiso   1.00
C994   C     0.02097   0.87632   0.75034   0.00000  Uiso   1.00
C995   C     0.17905   0.87340   0.54769   0.00000  Uiso   1.00
C996   C     0.17909   0.79328   0.95246   0.00000  Uiso   1.00
C997   C     0.15450   0.87338   0.95232   0.00000  Uiso   1.00
C998   C     0.15445   0.79324   0.54757   0.00000  Uiso   1.00
C999   C     0.17872   0.87352   0.59360   0.00000  Uiso   1.00
C1000  C     0.17879   0.79317   0.90654   0.00000  Uiso   1.00
C1001  C     0.15476   0.87349   0.90641   0.00000  Uiso   1.00
C1002  C     0.24587   0.83347   0.74824   0.00000  Uiso   1.00
C1003  C     0.15468   0.79314   0.59348   0.00000  Uiso   1.00
C1004  C     0.16668   0.83334   0.61673   0.00000  Uiso   1.00
C1005  C     0.16675   0.83333   0.88328   0.00000  Uiso   1.00
C1006  C     0.16677   0.83332   0.52429   0.00000  Uiso   1.00
C1007  C     0.16679   0.83333   0.97572   0.00000  Uiso   1.00
C1008  C     0.29038   0.83398   0.74508   0.00000  Uiso   1.00
C1009  C     0.04245   0.83343   0.74757   0.00000  Uiso   1.00
C1010  C     0.04151   0.74535   0.73772   0.00000  Uiso   1.00
C1011  C     0.29174   0.92233   0.75806   0.00000  Uiso   1.00
C1012  C     0.29052   0.74818   0.72284   0.00000  Uiso   1.00
C1013  C     0.16665   0.83334   0.66496   0.00000  Uiso   1.00
C1014  C     0.04163   0.92232   0.74943   0.00000  Uiso   1.00
C1015  C     0.16671   0.83333   0.83504   0.00000  Uiso   1.00
C1016  C     0.14792   0.69145   0.71695   0.00000  Uiso   1.00
C1017  C     0.18560   0.97521   0.78292   0.00000  Uiso   1.00
C1018  C     0.18577   0.69148   0.78282   0.00000  Uiso   1.00
C1019  C     0.14810   0.97519   0.71685   0.00000  Uiso   1.00
C1020  C     0.02065   0.79103   0.74126   0.00000  Uiso   1.00
Cu1021 Cu    0.16667   0.88022   0.75000   0.00000  Uiso   1.00
Cu1022 Cu    0.16667   0.78645   0.75000   0.00000  Uiso   1.00
H1023  H     0.13269   0.71005   0.69057   0.00000  Uiso   1.00
H1024  H     0.18850   0.76192   0.88927   0.00000  Uiso   1.00
H1025  H     0.14504   0.90475   0.88904   0.00000  Uiso   1.00
H1026  H     0.14493   0.76187   0.61076   0.00000  Uiso   1.00
H1027  H     0.07184   0.69428   0.76987   0.00000  Uiso   1.00
H1028  H     0.27609   0.97278   0.80134   0.00000  Uiso   1.00
H1029  H     0.25478   0.71670   0.67750   0.00000  Uiso   1.00
H1030  H     0.06272   0.97495   0.71167   0.00000  Uiso   1.00
H1031  H     0.20077   0.95657   0.80932   0.00000  Uiso   1.00
H1032  H     0.20124   0.71012   0.80903   0.00000  Uiso   1.00
H1033  H     0.13324   0.95653   0.69025   0.00000  Uiso   1.00
H1034  H     0.18938   0.90447   0.53053   0.00000  Uiso   1.00
H1035  H     0.18939   0.76223   0.96972   0.00000  Uiso   1.00
H1036  H     0.14420   0.90443   0.96947   0.00000  Uiso   1.00
H1037  H     0.14416   0.76217   0.53031   0.00000  Uiso   1.00
H1038  H     0.18842   0.90480   0.61097   0.00000  Uiso   1.00
N1039  N     0.16667   0.95069   0.75000   0.00000  Uiso   1.00
N1040  N     0.16667   0.71598   0.75000   0.00000  Uiso   1.00
O1041  O     0.10655   0.87291   0.75000   0.00000  Uiso   1.00
O1042  O     0.05493   0.72302   0.77618   0.00000  Uiso   1.00
O1043  O     0.27798   0.94397   0.72652   0.00000  Uiso   1.00
O1044  O     0.28975   0.94101   0.80065   0.00000  Uiso   1.00
O1045  O     0.29241   0.71284   0.74559   0.00000  Uiso   1.00
O1046  O     0.26824   0.74804   0.68345   0.00000  Uiso   1.00
O1047  O     0.05252   0.94090   0.78388   0.00000  Uiso   1.00
O1048  O     0.04803   0.94405   0.70874   0.00000  Uiso   1.00
O1049  O     0.22679   0.79375   0.75001   0.00000  Uiso   1.00
O1050  O     0.22679   0.87291   0.75001   0.00000  Uiso   1.00
O1051  O     0.10655   0.79375   0.75000   0.00000  Uiso   1.00
O1052  O     0.16666   0.87293   0.68573   0.00000  Uiso   1.00
O1053  O     0.16667   0.79374   0.81427   0.00000  Uiso   1.00
O1054  O     0.16667   0.87293   0.81427   0.00000  Uiso   1.00
O1055  O     0.16666   0.79374   0.68573   0.00000  Uiso   1.00
O1056  O     0.04745   0.72806   0.70140   0.00000  Uiso   1.00
C1057  C     0.42062   0.83332   0.74936   0.00000  Uiso   1.00
C1058  C     0.64541   0.87648   0.75102   0.00000  Uiso   1.00
C1059  C     0.64505   0.79175   0.73714   0.00000  Uiso   1.00
C1060  C     0.35430   0.87632   0.75034   0.00000  Uiso   1.00
C1061  C     0.51239   0.87340   0.54769   0.00000  Uiso   1.00
C1062  C     0.51242   0.79328   0.95246   0.00000  Uiso   1.00
C1063  C     0.48783   0.87338   0.95232   0.00000  Uiso   1.00
C1064  C     0.48778   0.79324   0.54757   0.00000  Uiso   1.00
C1065  C     0.51205   0.87352   0.59360   0.00000  Uiso   1.00
C1066  C     0.51212   0.79317   0.90654   0.00000  Uiso   1.00
C1067  C     0.48810   0.87349   0.90641   0.00000  Uiso   1.00
C1068  C     0.57920   0.83347   0.74824   0.00000  Uiso   1.00
C1069  C     0.48801   0.79314   0.59348   0.00000  Uiso   1.00
C1070  C     0.50001   0.83334   0.61673   0.00000  Uiso   1.00
C1071  C     0.50009   0.83333   0.88328   0.00000  Uiso   1.00
C1072  C     0.50011   0.83332   0.52429   0.00000  Uiso   1.00
C1073  C     0.50013   0.83333   0.97572   0.00000  Uiso   1.00
C1074  C     0.62371   0.83398   0.74508   0.00000  Uiso   1.00
C1075  C     0.37578   0.83343   0.74757   0.00000  Uiso   1.00
C1076  C     0.37484   0.74535   0.73772   0.00000  Uiso   1.00
C1077  C     0.62507   0.92233   0.75806   0.00000  Uiso   1.00
C1078  C     0.62385   0.74818   0.72284   0.00000  Uiso   1.00
C1079  C     0.49998   0.83334   0.66496   0.00000  Uiso   1.00
C1080  C     0.37497   0.92232   0.74943   0.00000  Uiso   1.00
C1081  C     0.50004   0.83333   0.83504   0.00000  Uiso   1.00
C1082  C     0.48125   0.69145   0.71695   0.00000  Uiso   1.00
C1083  C     0.51893   0.97521   0.78292   0.00000  Uiso   1.00
C1084  C     0.51910   0.69148   0.78282   0.00000  Uiso   1.00
C1085  C     0.48144   0.97519   0.71685   0.00000  Uiso   1.00
C1086  C     0.35398   0.79103   0.74126   0.00000  Uiso   1.00
Cu1087 Cu    0.50000   0.88022   0.75000   0.00000  Uiso   1.00
Cu1088 Cu    0.50000   0.78645   0.75000   0.00000  Uiso   1.00
H1089  H     0.46603   0.71005   0.69057   0.00000  Uiso   1.00
H1090  H     0.52184   0.76192   0.88927   0.00000  Uiso   1.00
H1091  H     0.47838   0.90475   0.88904   0.00000  Uiso   1.00
H1092  H     0.47827   0.76187   0.61076   0.00000  Uiso   1.00
H1093  H     0.40517   0.69428   0.76987   0.00000  Uiso   1.00
H1094  H     0.60942   0.97278   0.80134   0.00000  Uiso   1.00
H1095  H     0.58812   0.71670   0.67750   0.00000  Uiso   1.00
H1096  H     0.39606   0.97495   0.71167   0.00000  Uiso   1.00
H1097  H     0.53410   0.95657   0.80932   0.00000  Uiso   1.00
H1098  H     0.53457   0.71012   0.80903   0.00000  Uiso   1.00
H1099  H     0.46658   0.95653   0.69025   0.00000  Uiso   1.00
H1100  H     0.52271   0.90447   0.53053   0.00000  Uiso   1.00
H1101  H     0.52273   0.76223   0.96972   0.00000  Uiso   1.00
H1102  H     0.47753   0.90443   0.96947   0.00000  Uiso   1.00
H1103  H     0.47749   0.76217   0.53031   0.00000  Uiso   1.00
H1104  H     0.52175   0.90480   0.61097   0.00000  Uiso   1.00
N1105  N     0.50000   0.95069   0.75000   0.00000  Uiso   1.00
N1106  N     0.50000   0.71598   0.75000   0.00000  Uiso   1.00
O1107  O     0.43988   0.87291   0.75000   0.00000  Uiso   1.00
O1108  O     0.38826   0.72302   0.77618   0.00000  Uiso   1.00
O1109  O     0.61131   0.94397   0.72652   0.00000  Uiso   1.00
O1110  O     0.62308   0.94101   0.80065   0.00000  Uiso   1.00
O1111  O     0.62575   0.71284   0.74559   0.00000  Uiso   1.00
O1112  O     0.60158   0.74804   0.68345   0.00000  Uiso   1.00
O1113  O     0.38585   0.94090   0.78388   0.00000  Uiso   1.00
O1114  O     0.38136   0.94405   0.70874   0.00000  Uiso   1.00
O1115  O     0.56012   0.79375   0.75001   0.00000  Uiso   1.00
O1116  O     0.56012   0.87291   0.75001   0.00000  Uiso   1.00
O1117  O     0.43988   0.79375   0.75000   0.00000  Uiso   1.00
O1118  O     0.50000   0.87293   0.68573   0.00000  Uiso   1.00
O1119  O     0.50000   0.79374   0.81427   0.00000  Uiso   1.00
O1120  O     0.50000   0.87293   0.81427   0.00000  Uiso   1.00
O1121  O     0.50000   0.79374   0.68573   0.00000  Uiso   1.00
O1122  O     0.38079   0.72806   0.70140   0.00000  Uiso   1.00
C1123  C     0.75395   0.83332   0.74936   0.00000  Uiso   1.00
C1124  C     0.97874   0.87648   0.75102   0.00000  Uiso   1.00
C1125  C     0.97838   0.79175   0.73714   0.00000  Uiso   1.00
C1126  C     0.68763   0.87632   0.75034   0.00000  Uiso   1.00
C1127  C     0.84572   0.87340   0.54769   0.00000  Uiso   1.00
C1128  C     0.84575   0.79328   0.95246   0.00000  Uiso   1.00
C1129  C     0.82117   0.87338   0.95232   0.00000  Uiso   1.00
C1130  C     0.82112   0.79324   0.54757   0.00000  Uiso   1.00
C1131  C     0.84539   0.87352   0.59360   0.00000  Uiso   1.00
C1132  C     0.84546   0.79317   0.90654   0.00000  Uiso   1.00
C1133  C     0.82143   0.87349   0.90641   0.00000  Uiso   1.00
C1134  C     0.91254   0.83347   0.74824   0.00000  Uiso   1.00
C1135  C     0.82135   0.79314   0.59348   0.00000  Uiso   1.00
C1136  C     0.83334   0.83334   0.61673   0.00000  Uiso   1.00
C1137  C     0.83342   0.83333   0.88328   0.00000  Uiso   1.00
C1138  C     0.83344   0.83332   0.52429   0.00000  Uiso   1.00
C1139  C     0.83346   0.83333   0.97572   0.00000  Uiso   1.00
C1140  C     0.95704   0.83398   0.74508   0.00000  Uiso   1.00
C1141  C     0.70912   0.83343   0.74757   0.00000  Uiso   1.00
C1142  C     0.70817   0.74535   0.73772   0.00000  Uiso   1.00
C1143  C     0.95841   0.92233   0.75806   0.00000  Uiso   1.00
C1144  C     0.95719   0.74818   0.72284   0.00000  Uiso   1.00
C1145  C     0.83332   0.83334   0.66496   0.00000  Uiso   1.00
C1146  C     0.70830   0.92232   0.74943   0.00000  Uiso   1.00
C1147  C     0.83337   0.83333   0.83504   0.00000  Uiso   1.00
C1148  C     0.81459   0.69145   0.71695   0.00000  Uiso   1.00
C1149  C     0.85227   0.97521   0.78292   0.00000  Uiso   1.00
C1150  C     0.85243   0.69148   0.78282   0.00000  Uiso   1.00
C1151  C     0.81477   0.97519   0.71685   0.00000  Uiso   1.00
C1152  C     0.68732   0.79103   0.74126   0.00000  Uiso   1.00
Cu1153 Cu    0.83333   0.88022   0.75000   0.00000  Uiso   1.00
Cu1154 Cu    0.83333   0.78645   0.75000   0.00000  Uiso   1.00
H1155  H     0.79936   0.71005   0.69057   0.00000  Uiso   1.00
H1156  H     0.85517   0.76192   0.88927   0.00000  Uiso   1.00
H1157  H     0.81171   0.90475   0.88904   0.00000  Uiso   1.00
H1158  H     0.81160   0.76187   0.61076   0.00000  Uiso   1.00
H1159  H     0.73850   0.69428   0.76987   0.00000  Uiso   1.00
H1160  H     0.94275   0.97278   0.80134   0.00000  Uiso   1.00
H1161  H     0.92145   0.71670   0.67750   0.00000  Uiso   1.00
H1162  H     0.72939   0.97495   0.71167   0.00000  Uiso   1.00
H1163  H     0.86743   0.95657   0.80932   0.00000  Uiso   1.00
H1164  H     0.86791   0.71012   0.80903   0.00000  Uiso   1.00
H1165  H     0.79991   0.95653   0.69025   0.00000  Uiso   1.00
H1166  H     0.85604   0.90447   0.53053   0.00000  Uiso   1.00
H1167  H     0.85606   0.76223   0.96972   0.00000  Uiso   1.00
H1168  H     0.81087   0.90443   0.96947   0.00000  Uiso   1.00
H1169  H     0.81082   0.76217   0.53031   0.00000  Uiso   1.00
H1170  H     0.85509   0.90480   0.61097   0.00000  Uiso   1.00
N1171  N     0.83333   0.95069   0.75000   0.00000  Uiso   1.00
N1172  N     0.83333   0.71598   0.75000   0.00000  Uiso   1.00
O1173  O     0.77321   0.87291   0.75000   0.00000  Uiso   1.00
O1174  O     0.72160   0.72302   0.77618   0.00000  Uiso   1.00
O1175  O     0.94465   0.94397   0.72652   0.00000  Uiso   1.00
O1176  O     0.95642   0.94101   0.80065   0.00000  Uiso   1.00
O1177  O     0.95908   0.71284   0.74559   0.00000  Uiso   1.00
O1178  O     0.93491   0.74804   0.68345   0.00000  Uiso   1.00
O1179  O     0.71919   0.94090   0.78388   0.00000  Uiso   1.00
O1180  O     0.71470   0.94405   0.70874   0.00000  Uiso   1.00
O1181  O     0.89345   0.79375   0.75001   0.00000  Uiso   1.00
O1182  O     0.89345   0.87291   0.75001   0.00000  Uiso   1.00
O1183  O     0.77321   0.79375   0.75000   0.00000  Uiso   1.00
O1184  O     0.83333   0.87293   0.68573   0.00000  Uiso   1.00
O1185  O     0.83334   0.79374   0.81427   0.00000  Uiso   1.00
O1186  O     0.83334   0.87293   0.81427   0.00000  Uiso   1.00
O1187  O     0.83333   0.79374   0.68573   0.00000  Uiso   1.00
O1188  O     0.71412   0.72806   0.70140   0.00000  Uiso   1.00
loop_
_geom_bond_atom_site_label_1
_geom_bond_atom_site_label_2
_geom_bond_distance
_geom_bond_site_symmetry_2
_ccdc_geom_bond_type
C1     O51     1.296   .     A
C1     C19     1.481   .     S
C1     O61     1.297   .     A
C2     C18     1.419   .     A
C2     C21     1.487   .     S
C2     C70     1.395   .     S
C3     C18     1.418   .     A
C3     C22     1.490   .     S
C3     C96     1.401   .     S
C4     C24     1.479   .     S
C4     C19     1.418   .     A
C4     C134    1.395   1_455 S
C5     C9      1.390   .     A
C5     C16     1.404   .     A
C5     H44     1.083   .     S
C6     C10     1.390   .     A
C6     H45     1.083   .     S
C6     C17     1.404   .     A
C7     C11     1.390   .     A
C7     H46     1.083   .     S
C7     C17     1.404   .     A
C8     C13     1.390   .     A
C8     H47     1.083   .     S
C8     C16     1.404   .     A
C9     C14     1.402   .     A
C9     H48     1.083   .     S
C10    C15     1.402   .     A
C10    H34     1.083   .     S
C11    H35     1.083   .     S
C11    C15     1.402   .     A
C12    O59     1.297   .     A
C12    C18     1.473   .     S
C12    O60     1.292   .     A
C13    C14     1.402   .     A
C13    H36     1.083   .     S
C14    C23     1.460   .     S
C15    C25     1.460   .     S
C16    C611    1.470   1_554 S
C17    C610    1.470   .     S
C19    C30     1.420   .     A
C20    O52     1.398   .     S
C20    O66     1.222   .     D
C20    C30     1.479   .     S
C21    O53     1.223   .     D
C21    O54     1.397   .     S
C22    O56     1.398   .     S
C22    O55     1.222   .     D
C23    O65     1.293   .     A
C23    O62     1.293   .     A
C24    O58     1.396   .     S
C24    O57     1.222   .     D
C25    O63     1.293   .     A
C25    O64     1.293   .     A
C26    H33     1.081   .     S
C26    N50     1.367   .     A
C26    C425    1.415   1_545 S
C27    H41     1.081   .     S
C27    N49     1.367   .     A
C27    C226    1.415   .     S
C28    N50     1.367   .     A
C28    H42     1.081   .     S
C28    C423    1.415   1_545 S
C29    N49     1.366   .     A
C29    H43     1.081   .     S
C29    C224    1.415   .     S
C30    C135    1.401   1_455 S
Cu31   O60     1.996   .     S
Cu31   Cu32    2.676   .     S
Cu31   O62     1.957   .     S
Cu31   N49     2.011   .     S
Cu31   O64     1.957   .     S
Cu31   O51     1.996   .     S
Cu32   N50     2.011   .     S
Cu32   O61     1.996   .     S
Cu32   O59     1.996   .     S
Cu32   O63     1.957   .     S
Cu32   O65     1.957   .     S
H37    O52     1.011   .     S
H38    O54     1.013   .     S
H39    O56     1.014   .     S
H40    O58     1.009   .     S
C67    O117    1.296   .     A
C67    C85     1.481   .     S
C67    O127    1.297   .     A
C68    C84     1.419   .     A
C68    C87     1.487   .     S
C68    C136    1.395   .     S
C69    C84     1.418   .     A
C69    C88     1.490   .     S
C69    C162    1.401   .     S
C70    C90     1.479   .     S
C70    C85     1.418   .     A
C71    C75     1.390   .     A
C71    C82     1.404   .     A
C71    H110    1.083   .     S
C72    C76     1.390   .     A
C72    H111    1.083   .     S
C72    C83     1.404   .     A
C73    C77     1.390   .     A
C73    H112    1.083   .     S
C73    C83     1.404   .     A
C74    C79     1.390   .     A
C74    H113    1.083   .     S
C74    C82     1.404   .     A
C75    C80     1.402   .     A
C75    H114    1.083   .     S
C76    C81     1.402   .     A
C76    H100    1.083   .     S
C77    H101    1.083   .     S
C77    C81     1.402   .     A
C78    O125    1.297   .     A
C78    C84     1.473   .     S
C78    O126    1.292   .     A
C79    C80     1.402   .     A
C79    H102    1.083   .     S
C80    C89     1.460   .     S
C81    C91     1.460   .     S
C82    C677    1.470   1_554 S
C83    C676    1.470   .     S
C85    C96     1.420   .     A
C86    O118    1.398   .     S
C86    O132    1.222   .     D
C86    C96     1.479   .     S
C87    O119    1.223   .     D
C87    O120    1.397   .     S
C88    O122    1.398   .     S
C88    O121    1.222   .     D
C89    O131    1.293   .     A
C89    O128    1.293   .     A
C90    O124    1.396   .     S
C90    O123    1.222   .     D
C91    O129    1.293   .     A
C91    O130    1.293   .     A
C92    H99     1.081   .     S
C92    N116    1.367   .     A
C92    C491    1.415   1_545 S
C93    H107    1.081   .     S
C93    N115    1.367   .     A
C93    C292    1.415   .     S
C94    N116    1.367   .     A
C94    H108    1.081   .     S
C94    C489    1.415   1_545 S
C95    N115    1.366   .     A
C95    H109    1.081   .     S
C95    C290    1.415   .     S
Cu97   O126    1.996   .     S
Cu97   Cu98    2.676   .     S
Cu97   O128    1.957   .     S
Cu97   N115    2.011   .     S
Cu97   O130    1.957   .     S
Cu97   O117    1.996   .     S
Cu98   N116    2.011   .     S
Cu98   O127    1.996   .     S
Cu98   O125    1.996   .     S
Cu98   O129    1.957   .     S
Cu98   O131    1.957   .     S
H103   O118    1.011   .     S
H104   O120    1.013   .     S
H105   O122    1.014   .     S
H106   O124    1.009   .     S
C133   O183    1.296   .     A
C133   C151    1.481   .     S
C133   O193    1.297   .     A
C134   C150    1.419   .     A
C134   C153    1.487   .     S
C134   C4      1.395   1_655 S
C135   C150    1.418   .     A
C135   C154    1.490   .     S
C135   C30     1.401   1_655 S
C136   C156    1.479   .     S
C136   C151    1.418   .     A
C137   C141    1.390   .     A
C137   C148    1.404   .     A
C137   H176    1.083   .     S
C138   C142    1.390   .     A
C138   H177    1.083   .     S
C138   C149    1.404   .     A
C139   C143    1.390   .     A
C139   H178    1.083   .     S
C139   C149    1.404   .     A
C140   C145    1.390   .     A
C140   H179    1.083   .     S
C140   C148    1.404   .     A
C141   C146    1.402   .     A
C141   H180    1.083   .     S
C142   C147    1.402   .     A
C142   H166    1.083   .     S
C143   H167    1.083   .     S
C143   C147    1.402   .     A
C144   O191    1.297   .     A
C144   C150    1.473   .     S
C144   O192    1.292   .     A
C145   C146    1.402   .     A
C145   H168    1.083   .     S
C146   C155    1.460   .     S
C147   C157    1.460   .     S
C148   C743    1.470   1_554 S
C149   C742    1.470   .     S
C151   C162    1.420   .     A
C152   O184    1.398   .     S
C152   O198    1.222   .     D
C152   C162    1.479   .     S
C153   O185    1.223   .     D
C153   O186    1.397   .     S
C154   O188    1.398   .     S
C154   O187    1.222   .     D
C155   O197    1.293   .     A
C155   O194    1.293   .     A
C156   O190    1.396   .     S
C156   O189    1.222   .     D
C157   O195    1.293   .     A
C157   O196    1.293   .     A
C158   H165    1.081   .     S
C158   N182    1.367   .     A
C158   C557    1.415   1_545 S
C159   H173    1.081   .     S
C159   N181    1.367   .     A
C159   C358    1.415   .     S
C160   N182    1.367   .     A
C160   H174    1.081   .     S
C160   C555    1.415   1_545 S
C161   N181    1.366   .     A
C161   H175    1.081   .     S
C161   C356    1.415   .     S
Cu163  O192    1.996   .     S
Cu163  Cu164   2.676   .     S
Cu163  O194    1.957   .     S
Cu163  N181    2.011   .     S
Cu163  O196    1.957   .     S
Cu163  O183    1.996   .     S
Cu164  N182    2.011   .     S
Cu164  O193    1.996   .     S
Cu164  O191    1.996   .     S
Cu164  O195    1.957   .     S
Cu164  O197    1.957   .     S
H169   O184    1.011   .     S
H170   O186    1.013   .     S
H171   O188    1.014   .     S
H172   O190    1.009   .     S
C199   O249    1.296   .     A
C199   C217    1.481   .     S
C199   O259    1.297   .     A
C200   C216    1.419   .     A
C200   C219    1.487   .     S
C200   C268    1.395   .     S
C201   C216    1.418   .     A
C201   C220    1.490   .     S
C201   C294    1.401   .     S
C202   C222    1.479   .     S
C202   C217    1.418   .     A
C202   C332    1.395   1_455 S
C203   C207    1.390   .     A
C203   C214    1.404   .     A
C203   H242    1.083   .     S
C204   C208    1.390   .     A
C204   H243    1.083   .     S
C204   C215    1.404   .     A
C205   C209    1.390   .     A
C205   H244    1.083   .     S
C205   C215    1.404   .     A
C206   C211    1.390   .     A
C206   H245    1.083   .     S
C206   C214    1.404   .     A
C207   C212    1.402   .     A
C207   H246    1.083   .     S
C208   C213    1.402   .     A
C208   H232    1.083   .     S
C209   H233    1.083   .     S
C209   C213    1.402   .     A
C210   O257    1.297   .     A
C210   C216    1.473   .     S
C210   O258    1.292   .     A
C211   C212    1.402   .     A
C211   H234    1.083   .     S
C212   C221    1.460   .     S
C213   C223    1.460   .     S
C214   C809    1.470   1_554 S
C215   C808    1.470   .     S
C217   C228    1.420   .     A
C218   O250    1.398   .     S
C218   O264    1.222   .     D
C218   C228    1.479   .     S
C219   O251    1.223   .     D
C219   O252    1.397   .     S
C220   O254    1.398   .     S
C220   O253    1.222   .     D
C221   O263    1.293   .     A
C221   O260    1.293   .     A
C222   O256    1.396   .     S
C222   O255    1.222   .     D
C223   O261    1.293   .     A
C223   O262    1.293   .     A
C224   H231    1.081   .     S
C224   N248    1.367   .     A
C225   H239    1.081   .     S
C225   N247    1.367   .     A
C225   C424    1.415   .     S
C226   N248    1.367   .     A
C226   H240    1.081   .     S
C227   N247    1.366   .     A
C227   H241    1.081   .     S
C227   C422    1.415   .     S
C228   C333    1.401   1_455 S
Cu229  O258    1.996   .     S
Cu229  Cu230   2.676   .     S
Cu229  O260    1.957   .     S
Cu229  N247    2.011   .     S
Cu229  O262    1.957   .     S
Cu229  O249    1.996   .     S
Cu230  N248    2.011   .     S
Cu230  O259    1.996   .     S
Cu230  O257    1.996   .     S
Cu230  O261    1.957   .     S
Cu230  O263    1.957   .     S
H235   O250    1.011   .     S
H236   O252    1.013   .     S
H237   O254    1.014   .     S
H238   O256    1.009   .     S
C265   O315    1.296   .     A
C265   C283    1.481   .     S
C265   O325    1.297   .     A
C266   C282    1.419   .     A
C266   C285    1.487   .     S
C266   C334    1.395   .     S
C267   C282    1.418   .     A
C267   C286    1.490   .     S
C267   C360    1.401   .     S
C268   C288    1.479   .     S
C268   C283    1.418   .     A
C269   C273    1.390   .     A
C269   C280    1.404   .     A
C269   H308    1.083   .     S
C270   C274    1.390   .     A
C270   H309    1.083   .     S
C270   C281    1.404   .     A
C271   C275    1.390   .     A
C271   H310    1.083   .     S
C271   C281    1.404   .     A
C272   C277    1.390   .     A
C272   H311    1.083   .     S
C272   C280    1.404   .     A
C273   C278    1.402   .     A
C273   H312    1.083   .     S
C274   C279    1.402   .     A
C274   H298    1.083   .     S
C275   H299    1.083   .     S
C275   C279    1.402   .     A
C276   O323    1.297   .     A
C276   C282    1.473   .     S
C276   O324    1.292   .     A
C277   C278    1.402   .     A
C277   H300    1.083   .     S
C278   C287    1.460   .     S
C279   C289    1.460   .     S
C280   C875    1.470   1_554 S
C281   C874    1.470   .     S
C283   C294    1.420   .     A
C284   O316    1.398   .     S
C284   O330    1.222   .     D
C284   C294    1.479   .     S
C285   O317    1.223   .     D
C285   O318    1.397   .     S
C286   O320    1.398   .     S
C286   O319    1.222   .     D
C287   O329    1.293   .     A
C287   O326    1.293   .     A
C288   O322    1.396   .     S
C288   O321    1.222   .     D
C289   O327    1.293   .     A
C289   O328    1.293   .     A
C290   H297    1.081   .     S
C290   N314    1.367   .     A
C291   H305    1.081   .     S
C291   N313    1.367   .     A
C291   C490    1.415   .     S
C292   N314    1.367   .     A
C292   H306    1.081   .     S
C293   N313    1.366   .     A
C293   H307    1.081   .     S
C293   C488    1.415   .     S
Cu295  O324    1.996   .     S
Cu295  Cu296   2.676   .     S
Cu295  O326    1.957   .     S
Cu295  N313    2.011   .     S
Cu295  O328    1.957   .     S
Cu295  O315    1.996   .     S
Cu296  N314    2.011   .     S
Cu296  O325    1.996   .     S
Cu296  O323    1.996   .     S
Cu296  O327    1.957   .     S
Cu296  O329    1.957   .     S
H301   O316    1.011   .     S
H302   O318    1.013   .     S
H303   O320    1.014   .     S
H304   O322    1.009   .     S
C331   O381    1.296   .     A
C331   C349    1.481   .     S
C331   O391    1.297   .     A
C332   C348    1.419   .     A
C332   C351    1.487   .     S
C332   C202    1.395   1_655 S
C333   C348    1.418   .     A
C333   C352    1.490   .     S
C333   C228    1.401   1_655 S
C334   C354    1.479   .     S
C334   C349    1.418   .     A
C335   C339    1.390   .     A
C335   C346    1.404   .     A
C335   H374    1.083   .     S
C336   C340    1.390   .     A
C336   H375    1.083   .     S
C336   C347    1.404   .     A
C337   C341    1.390   .     A
C337   H376    1.083   .     S
C337   C347    1.404   .     A
C338   C343    1.390   .     A
C338   H377    1.083   .     S
C338   C346    1.404   .     A
C339   C344    1.402   .     A
C339   H378    1.083   .     S
C340   C345    1.402   .     A
C340   H364    1.083   .     S
C341   H365    1.083   .     S
C341   C345    1.402   .     A
C342   O389    1.297   .     A
C342   C348    1.473   .     S
C342   O390    1.292   .     A
C343   C344    1.402   .     A
C343   H366    1.083   .     S
C344   C353    1.460   .     S
C345   C355    1.460   .     S
C346   C941    1.470   1_554 S
C347   C940    1.470   .     S
C349   C360    1.420   .     A
C350   O382    1.398   .     S
C350   O396    1.222   .     D
C350   C360    1.479   .     S
C351   O383    1.223   .     D
C351   O384    1.397   .     S
C352   O386    1.398   .     S
C352   O385    1.222   .     D
C353   O395    1.293   .     A
C353   O392    1.293   .     A
C354   O388    1.396   .     S
C354   O387    1.222   .     D
C355   O393    1.293   .     A
C355   O394    1.293   .     A
C356   H363    1.081   .     S
C356   N380    1.367   .     A
C357   H371    1.081   .     S
C357   N379    1.367   .     A
C357   C556    1.415   .     S
C358   N380    1.367   .     A
C358   H372    1.081   .     S
C359   N379    1.366   .     A
C359   H373    1.081   .     S
C359   C554    1.415   .     S
Cu361  O390    1.996   .     S
Cu361  Cu362   2.676   .     S
Cu361  O392    1.957   .     S
Cu361  N379    2.011   .     S
Cu361  O394    1.957   .     S
Cu361  O381    1.996   .     S
Cu362  N380    2.011   .     S
Cu362  O391    1.996   .     S
Cu362  O389    1.996   .     S
Cu362  O393    1.957   .     S
Cu362  O395    1.957   .     S
H367   O382    1.011   .     S
H368   O384    1.013   .     S
H369   O386    1.014   .     S
H370   O388    1.009   .     S
C397   O447    1.296   .     A
C397   C415    1.481   .     S
C397   O457    1.297   .     A
C398   C414    1.419   .     A
C398   C417    1.487   .     S
C398   C466    1.395   .     S
C399   C414    1.418   .     A
C399   C418    1.490   .     S
C399   C492    1.401   .     S
C400   C420    1.479   .     S
C400   C415    1.418   .     A
C400   C530    1.395   1_455 S
C401   C405    1.390   .     A
C401   C412    1.404   .     A
C401   H440    1.083   .     S
C402   C406    1.390   .     A
C402   H441    1.083   .     S
C402   C413    1.404   .     A
C403   C407    1.390   .     A
C403   H442    1.083   .     S
C403   C413    1.404   .     A
C404   C409    1.390   .     A
C404   H443    1.083   .     S
C404   C412    1.404   .     A
C405   C410    1.402   .     A
C405   H444    1.083   .     S
C406   C411    1.402   .     A
C406   H430    1.083   .     S
C407   H431    1.083   .     S
C407   C411    1.402   .     A
C408   O455    1.297   .     A
C408   C414    1.473   .     S
C408   O456    1.292   .     A
C409   C410    1.402   .     A
C409   H432    1.083   .     S
C410   C419    1.460   .     S
C411   C421    1.460   .     S
C412   C1007   1.470   1_554 S
C413   C1006   1.470   .     S
C415   C426    1.420   .     A
C416   O448    1.398   .     S
C416   O462    1.222   .     D
C416   C426    1.479   .     S
C417   O449    1.223   .     D
C417   O450    1.397   .     S
C418   O452    1.398   .     S
C418   O451    1.222   .     D
C419   O461    1.293   .     A
C419   O458    1.293   .     A
C420   O454    1.396   .     S
C420   O453    1.222   .     D
C421   O459    1.293   .     A
C421   O460    1.293   .     A
C422   H429    1.081   .     S
C422   N446    1.367   .     A
C423   H437    1.081   .     S
C423   N445    1.367   .     A
C423   C28     1.415   1_565 S
C424   N446    1.367   .     A
C424   H438    1.081   .     S
C425   N445    1.366   .     A
C425   H439    1.081   .     S
C425   C26     1.415   1_565 S
C426   C531    1.401   1_455 S
Cu427  O456    1.996   .     S
Cu427  Cu428   2.676   .     S
Cu427  O458    1.957   .     S
Cu427  N445    2.011   .     S
Cu427  O460    1.957   .     S
Cu427  O447    1.996   .     S
Cu428  N446    2.011   .     S
Cu428  O457    1.996   .     S
Cu428  O455    1.996   .     S
Cu428  O459    1.957   .     S
Cu428  O461    1.957   .     S
H433   O448    1.011   .     S
H434   O450    1.013   .     S
H435   O452    1.014   .     S
H436   O454    1.009   .     S
C463   O513    1.296   .     A
C463   C481    1.481   .     S
C463   O523    1.297   .     A
C464   C480    1.419   .     A
C464   C483    1.487   .     S
C464   C532    1.395   .     S
C465   C480    1.418   .     A
C465   C484    1.490   .     S
C465   C558    1.401   .     S
C466   C486    1.479   .     S
C466   C481    1.418   .     A
C467   C471    1.390   .     A
C467   C478    1.404   .     A
C467   H506    1.083   .     S
C468   C472    1.390   .     A
C468   H507    1.083   .     S
C468   C479    1.404   .     A
C469   C473    1.390   .     A
C469   H508    1.083   .     S
C469   C479    1.404   .     A
C470   C475    1.390   .     A
C470   H509    1.083   .     S
C470   C478    1.404   .     A
C471   C476    1.402   .     A
C471   H510    1.083   .     S
C472   C477    1.402   .     A
C472   H496    1.083   .     S
C473   H497    1.083   .     S
C473   C477    1.402   .     A
C474   O521    1.297   .     A
C474   C480    1.473   .     S
C474   O522    1.292   .     A
C475   C476    1.402   .     A
C475   H498    1.083   .     S
C476   C485    1.460   .     S
C477   C487    1.460   .     S
C478   C1073   1.470   1_554 S
C479   C1072   1.470   .     S
C481   C492    1.420   .     A
C482   O514    1.398   .     S
C482   O528    1.222   .     D
C482   C492    1.479   .     S
C483   O515    1.223   .     D
C483   O516    1.397   .     S
C484   O518    1.398   .     S
C484   O517    1.222   .     D
C485   O527    1.293   .     A
C485   O524    1.293   .     A
C486   O520    1.396   .     S
C486   O519    1.222   .     D
C487   O525    1.293   .     A
C487   O526    1.293   .     A
C488   H495    1.081   .     S
C488   N512    1.367   .     A
C489   H503    1.081   .     S
C489   N511    1.367   .     A
C489   C94     1.415   1_565 S
C490   N512    1.367   .     A
C490   H504    1.081   .     S
C491   N511    1.366   .     A
C491   H505    1.081   .     S
C491   C92     1.415   1_565 S
Cu493  O522    1.996   .     S
Cu493  Cu494   2.676   .     S
Cu493  O524    1.957   .     S
Cu493  N511    2.011   .     S
Cu493  O526    1.957   .     S
Cu493  O513    1.996   .     S
Cu494  N512    2.011   .     S
Cu494  O523    1.996   .     S
Cu494  O521    1.996   .     S
Cu494  O525    1.957   .     S
Cu494  O527    1.957   .     S
H499   O514    1.011   .     S
H500   O516    1.013   .     S
H501   O518    1.014   .     S
H502   O520    1.009   .     S
C529   O579    1.296   .     A
C529   C547    1.481   .     S
C529   O589    1.297   .     A
C530   C546    1.419   .     A
C530   C549    1.487   .     S
C530   C400    1.395   1_655 S
C531   C546    1.418   .     A
C531   C550    1.490   .     S
C531   C426    1.401   1_655 S
C532   C552    1.479   .     S
C532   C547    1.418   .     A
C533   C537    1.390   .     A
C533   C544    1.404   .     A
C533   H572    1.083   .     S
C534   C538    1.390   .     A
C534   H573    1.083   .     S
C534   C545    1.404   .     A
C535   C539    1.390   .     A
C535   H574    1.083   .     S
C535   C545    1.404   .     A
C536   C541    1.390   .     A
C536   H575    1.083   .     S
C536   C544    1.404   .     A
C537   C542    1.402   .     A
C537   H576    1.083   .     S
C538   C543    1.402   .     A
C538   H562    1.083   .     S
C539   H563    1.083   .     S
C539   C543    1.402   .     A
C540   O587    1.297   .     A
C540   C546    1.473   .     S
C540   O588    1.292   .     A
C541   C542    1.402   .     A
C541   H564    1.083   .     S
C542   C551    1.460   .     S
C543   C553    1.460   .     S
C544   C1139   1.470   1_554 S
C545   C1138   1.470   .     S
C547   C558    1.420   .     A
C548   O580    1.398   .     S
C548   O594    1.222   .     D
C548   C558    1.479   .     S
C549   O581    1.223   .     D
C549   O582    1.397   .     S
C550   O584    1.398   .     S
C550   O583    1.222   .     D
C551   O593    1.293   .     A
C551   O590    1.293   .     A
C552   O586    1.396   .     S
C552   O585    1.222   .     D
C553   O591    1.293   .     A
C553   O592    1.293   .     A
C554   H561    1.081   .     S
C554   N578    1.367   .     A
C555   H569    1.081   .     S
C555   N577    1.367   .     A
C555   C160    1.415   1_565 S
C556   N578    1.367   .     A
C556   H570    1.081   .     S
C557   N577    1.366   .     A
C557   H571    1.081   .     S
C557   C158    1.415   1_565 S
Cu559  O588    1.996   .     S
Cu559  Cu560   2.676   .     S
Cu559  O590    1.957   .     S
Cu559  N577    2.011   .     S
Cu559  O592    1.957   .     S
Cu559  O579    1.996   .     S
Cu560  N578    2.011   .     S
Cu560  O589    1.996   .     S
Cu560  O587    1.996   .     S
Cu560  O591    1.957   .     S
Cu560  O593    1.957   .     S
H565   O580    1.011   .     S
H566   O582    1.013   .     S
H567   O584    1.014   .     S
H568   O586    1.009   .     S
C595   O645    1.296   .     A
C595   C613    1.481   .     S
C595   O655    1.297   .     A
C596   C612    1.419   .     A
C596   C615    1.487   .     S
C596   C664    1.395   .     S
C597   C612    1.418   .     A
C597   C616    1.490   .     S
C597   C690    1.401   .     S
C598   C618    1.479   .     S
C598   C613    1.418   .     A
C598   C728    1.395   1_455 S
C599   C603    1.390   .     A
C599   C610    1.404   .     A
C599   H638    1.083   .     S
C600   C604    1.390   .     A
C600   H639    1.083   .     S
C600   C611    1.404   .     A
C601   C605    1.390   .     A
C601   H640    1.083   .     S
C601   C611    1.404   .     A
C602   C607    1.390   .     A
C602   H641    1.083   .     S
C602   C610    1.404   .     A
C603   C608    1.402   .     A
C603   H642    1.083   .     S
C604   C609    1.402   .     A
C604   H628    1.083   .     S
C605   H629    1.083   .     S
C605   C609    1.402   .     A
C606   O653    1.297   .     A
C606   C612    1.473   .     S
C606   O654    1.292   .     A
C607   C608    1.402   .     A
C607   H630    1.083   .     S
C608   C617    1.460   .     S
C609   C619    1.460   .     S
C611   C16     1.470   1_556 S
C613   C624    1.420   .     A
C614   O646    1.398   .     S
C614   O660    1.222   .     D
C614   C624    1.479   .     S
C615   O647    1.223   .     D
C615   O648    1.397   .     S
C616   O650    1.398   .     S
C616   O649    1.222   .     D
C617   O659    1.293   .     A
C617   O656    1.293   .     A
C618   O652    1.396   .     S
C618   O651    1.222   .     D
C619   O657    1.293   .     A
C619   O658    1.293   .     A
C620   H627    1.081   .     S
C620   N644    1.367   .     A
C620   C1019   1.415   1_545 S
C621   H635    1.081   .     S
C621   N643    1.367   .     A
C621   C820    1.415   .     S
C622   N644    1.367   .     A
C622   H636    1.081   .     S
C622   C1017   1.415   1_545 S
C623   N643    1.366   .     A
C623   H637    1.081   .     S
C623   C818    1.415   .     S
C624   C729    1.401   1_455 S
Cu625  O654    1.996   .     S
Cu625  Cu626   2.676   .     S
Cu625  O656    1.957   .     S
Cu625  N643    2.011   .     S
Cu625  O658    1.957   .     S
Cu625  O645    1.996   .     S
Cu626  N644    2.011   .     S
Cu626  O655    1.996   .     S
Cu626  O653    1.996   .     S
Cu626  O657    1.957   .     S
Cu626  O659    1.957   .     S
H631   O646    1.011   .     S
H632   O648    1.013   .     S
H633   O650    1.014   .     S
H634   O652    1.009   .     S
C661   O711    1.296   .     A
C661   C679    1.481   .     S
C661   O721    1.297   .     A
C662   C678    1.419   .     A
C662   C681    1.487   .     S
C662   C730    1.395   .     S
C663   C678    1.418   .     A
C663   C682    1.490   .     S
C663   C756    1.401   .     S
C664   C684    1.479   .     S
C664   C679    1.418   .     A
C665   C669    1.390   .     A
C665   C676    1.404   .     A
C665   H704    1.083   .     S
C666   C670    1.390   .     A
C666   H705    1.083   .     S
C666   C677    1.404   .     A
C667   C671    1.390   .     A
C667   H706    1.083   .     S
C667   C677    1.404   .     A
C668   C673    1.390   .     A
C668   H707    1.083   .     S
C668   C676    1.404   .     A
C669   C674    1.402   .     A
C669   H708    1.083   .     S
C670   C675    1.402   .     A
C670   H694    1.083   .     S
C671   H695    1.083   .     S
C671   C675    1.402   .     A
C672   O719    1.297   .     A
C672   C678    1.473   .     S
C672   O720    1.292   .     A
C673   C674    1.402   .     A
C673   H696    1.083   .     S
C674   C683    1.460   .     S
C675   C685    1.460   .     S
C677   C82     1.470   1_556 S
C679   C690    1.420   .     A
C680   O712    1.398   .     S
C680   O726    1.222   .     D
C680   C690    1.479   .     S
C681   O713    1.223   .     D
C681   O714    1.397   .     S
C682   O716    1.398   .     S
C682   O715    1.222   .     D
C683   O725    1.293   .     A
C683   O722    1.293   .     A
C684   O718    1.396   .     S
C684   O717    1.222   .     D
C685   O723    1.293   .     A
C685   O724    1.293   .     A
C686   H693    1.081   .     S
C686   N710    1.367   .     A
C686   C1085   1.415   1_545 S
C687   H701    1.081   .     S
C687   N709    1.367   .     A
C687   C886    1.415   .     S
C688   N710    1.367   .     A
C688   H702    1.081   .     S
C688   C1083   1.415   1_545 S
C689   N709    1.366   .     A
C689   H703    1.081   .     S
C689   C884    1.415   .     S
Cu691  O720    1.996   .     S
Cu691  Cu692   2.676   .     S
Cu691  O722    1.957   .     S
Cu691  N709    2.011   .     S
Cu691  O724    1.957   .     S
Cu691  O711    1.996   .     S
Cu692  N710    2.011   .     S
Cu692  O721    1.996   .     S
Cu692  O719    1.996   .     S
Cu692  O723    1.957   .     S
Cu692  O725    1.957   .     S
H697   O712    1.011   .     S
H698   O714    1.013   .     S
H699   O716    1.014   .     S
H700   O718    1.009   .     S
C727   O777    1.296   .     A
C727   C745    1.481   .     S
C727   O787    1.297   .     A
C728   C744    1.419   .     A
C728   C747    1.487   .     S
C728   C598    1.395   1_655 S
C729   C744    1.418   .     A
C729   C748    1.490   .     S
C729   C624    1.401   1_655 S
C730   C750    1.479   .     S
C730   C745    1.418   .     A
C731   C735    1.390   .     A
C731   C742    1.404   .     A
C731   H770    1.083   .     S
C732   C736    1.390   .     A
C732   H771    1.083   .     S
C732   C743    1.404   .     A
C733   C737    1.390   .     A
C733   H772    1.083   .     S
C733   C743    1.404   .     A
C734   C739    1.390   .     A
C734   H773    1.083   .     S
C734   C742    1.404   .     A
C735   C740    1.402   .     A
C735   H774    1.083   .     S
C736   C741    1.402   .     A
C736   H760    1.083   .     S
C737   H761    1.083   .     S
C737   C741    1.402   .     A
C738   O785    1.297   .     A
C738   C744    1.473   .     S
C738   O786    1.292   .     A
C739   C740    1.402   .     A
C739   H762    1.083   .     S
C740   C749    1.460   .     S
C741   C751    1.460   .     S
C743   C148    1.470   1_556 S
C745   C756    1.420   .     A
C746   O778    1.398   .     S
C746   O792    1.222   .     D
C746   C756    1.479   .     S
C747   O779    1.223   .     D
C747   O780    1.397   .     S
C748   O782    1.398   .     S
C748   O781    1.222   .     D
C749   O791    1.293   .     A
C749   O788    1.293   .     A
C750   O784    1.396   .     S
C750   O783    1.222   .     D
C751   O789    1.293   .     A
C751   O790    1.293   .     A
C752   H759    1.081   .     S
C752   N776    1.367   .     A
C752   C1151   1.415   1_545 S
C753   H767    1.081   .     S
C753   N775    1.367   .     A
C753   C952    1.415   .     S
C754   N776    1.367   .     A
C754   H768    1.081   .     S
C754   C1149   1.415   1_545 S
C755   N775    1.366   .     A
C755   H769    1.081   .     S
C755   C950    1.415   .     S
Cu757  O786    1.996   .     S
Cu757  Cu758   2.676   .     S
Cu757  O788    1.957   .     S
Cu757  N775    2.011   .     S
Cu757  O790    1.957   .     S
Cu757  O777    1.996   .     S
Cu758  N776    2.011   .     S
Cu758  O787    1.996   .     S
Cu758  O785    1.996   .     S
Cu758  O789    1.957   .     S
Cu758  O791    1.957   .     S
H763   O778    1.011   .     S
H764   O780    1.013   .     S
H765   O782    1.014   .     S
H766   O784    1.009   .     S
C793   O843    1.296   .     A
C793   C811    1.481   .     S
C793   O853    1.297   .     A
C794   C810    1.419   .     A
C794   C813    1.487   .     S
C794   C862    1.395   .     S
C795   C810    1.418   .     A
C795   C814    1.490   .     S
C795   C888    1.401   .     S
C796   C816    1.479   .     S
C796   C811    1.418   .     A
C796   C926    1.395   1_455 S
C797   C801    1.390   .     A
C797   C808    1.404   .     A
C797   H836    1.083   .     S
C798   C802    1.390   .     A
C798   H837    1.083   .     S
C798   C809    1.404   .     A
C799   C803    1.390   .     A
C799   H838    1.083   .     S
C799   C809    1.404   .     A
C800   C805    1.390   .     A
C800   H839    1.083   .     S
C800   C808    1.404   .     A
C801   C806    1.402   .     A
C801   H840    1.083   .     S
C802   C807    1.402   .     A
C802   H826    1.083   .     S
C803   H827    1.083   .     S
C803   C807    1.402   .     A
C804   O851    1.297   .     A
C804   C810    1.473   .     S
C804   O852    1.292   .     A
C805   C806    1.402   .     A
C805   H828    1.083   .     S
C806   C815    1.460   .     S
C807   C817    1.460   .     S
C809   C214    1.470   1_556 S
C811   C822    1.420   .     A
C812   O844    1.398   .     S
C812   O858    1.222   .     D
C812   C822    1.479   .     S
C813   O845    1.223   .     D
C813   O846    1.397   .     S
C814   O848    1.398   .     S
C814   O847    1.222   .     D
C815   O857    1.293   .     A
C815   O854    1.293   .     A
C816   O850    1.396   .     S
C816   O849    1.222   .     D
C817   O855    1.293   .     A
C817   O856    1.293   .     A
C818   H825    1.081   .     S
C818   N842    1.367   .     A
C819   H833    1.081   .     S
C819   N841    1.367   .     A
C819   C1018   1.415   .     S
C820   N842    1.367   .     A
C820   H834    1.081   .     S
C821   N841    1.366   .     A
C821   H835    1.081   .     S
C821   C1016   1.415   .     S
C822   C927    1.401   1_455 S
Cu823  O852    1.996   .     S
Cu823  Cu824   2.676   .     S
Cu823  O854    1.957   .     S
Cu823  N841    2.011   .     S
Cu823  O856    1.957   .     S
Cu823  O843    1.996   .     S
Cu824  N842    2.011   .     S
Cu824  O853    1.996   .     S
Cu824  O851    1.996   .     S
Cu824  O855    1.957   .     S
Cu824  O857    1.957   .     S
H829   O844    1.011   .     S
H830   O846    1.013   .     S
H831   O848    1.014   .     S
H832   O850    1.009   .     S
C859   O909    1.296   .     A
C859   C877    1.481   .     S
C859   O919    1.297   .     A
C860   C876    1.419   .     A
C860   C879    1.487   .     S
C860   C928    1.395   .     S
C861   C876    1.418   .     A
C861   C880    1.490   .     S
C861   C954    1.401   .     S
C862   C882    1.479   .     S
C862   C877    1.418   .     A
C863   C867    1.390   .     A
C863   C874    1.404   .     A
C863   H902    1.083   .     S
C864   C868    1.390   .     A
C864   H903    1.083   .     S
C864   C875    1.404   .     A
C865   C869    1.390   .     A
C865   H904    1.083   .     S
C865   C875    1.404   .     A
C866   C871    1.390   .     A
C866   H905    1.083   .     S
C866   C874    1.404   .     A
C867   C872    1.402   .     A
C867   H906    1.083   .     S
C868   C873    1.402   .     A
C868   H892    1.083   .     S
C869   H893    1.083   .     S
C869   C873    1.402   .     A
C870   O917    1.297   .     A
C870   C876    1.473   .     S
C870   O918    1.292   .     A
C871   C872    1.402   .     A
C871   H894    1.083   .     S
C872   C881    1.460   .     S
C873   C883    1.460   .     S
C875   C280    1.470   1_556 S
C877   C888    1.420   .     A
C878   O910    1.398   .     S
C878   O924    1.222   .     D
C878   C888    1.479   .     S
C879   O911    1.223   .     D
C879   O912    1.397   .     S
C880   O914    1.398   .     S
C880   O913    1.222   .     D
C881   O923    1.293   .     A
C881   O920    1.293   .     A
C882   O916    1.396   .     S
C882   O915    1.222   .     D
C883   O921    1.293   .     A
C883   O922    1.293   .     A
C884   H891    1.081   .     S
C884   N908    1.367   .     A
C885   H899    1.081   .     S
C885   N907    1.367   .     A
C885   C1084   1.415   .     S
C886   N908    1.367   .     A
C886   H900    1.081   .     S
C887   N907    1.366   .     A
C887   H901    1.081   .     S
C887   C1082   1.415   .     S
Cu889  O918    1.996   .     S
Cu889  Cu890   2.676   .     S
Cu889  O920    1.957   .     S
Cu889  N907    2.011   .     S
Cu889  O922    1.957   .     S
Cu889  O909    1.996   .     S
Cu890  N908    2.011   .     S
Cu890  O919    1.996   .     S
Cu890  O917    1.996   .     S
Cu890  O921    1.957   .     S
Cu890  O923    1.957   .     S
H895   O910    1.011   .     S
H896   O912    1.013   .     S
H897   O914    1.014   .     S
H898   O916    1.009   .     S
C925   O975    1.296   .     A
C925   C943    1.481   .     S
C925   O985    1.297   .     A
C926   C942    1.419   .     A
C926   C945    1.487   .     S
C926   C796    1.395   1_655 S
C927   C942    1.418   .     A
C927   C946    1.490   .     S
C927   C822    1.401   1_655 S
C928   C948    1.479   .     S
C928   C943    1.418   .     A
C929   C933    1.390   .     A
C929   C940    1.404   .     A
C929   H968    1.083   .     S
C930   C934    1.390   .     A
C930   H969    1.083   .     S
C930   C941    1.404   .     A
C931   C935    1.390   .     A
C931   H970    1.083   .     S
C931   C941    1.404   .     A
C932   C937    1.390   .     A
C932   H971    1.083   .     S
C932   C940    1.404   .     A
C933   C938    1.402   .     A
C933   H972    1.083   .     S
C934   C939    1.402   .     A
C934   H958    1.083   .     S
C935   H959    1.083   .     S
C935   C939    1.402   .     A
C936   O983    1.297   .     A
C936   C942    1.473   .     S
C936   O984    1.292   .     A
C937   C938    1.402   .     A
C937   H960    1.083   .     S
C938   C947    1.460   .     S
C939   C949    1.460   .     S
C941   C346    1.470   1_556 S
C943   C954    1.420   .     A
C944   O976    1.398   .     S
C944   O990    1.222   .     D
C944   C954    1.479   .     S
C945   O977    1.223   .     D
C945   O978    1.397   .     S
C946   O980    1.398   .     S
C946   O979    1.222   .     D
C947   O989    1.293   .     A
C947   O986    1.293   .     A
C948   O982    1.396   .     S
C948   O981    1.222   .     D
C949   O987    1.293   .     A
C949   O988    1.293   .     A
C950   H957    1.081   .     S
C950   N974    1.367   .     A
C951   H965    1.081   .     S
C951   N973    1.367   .     A
C951   C1150   1.415   .     S
C952   N974    1.367   .     A
C952   H966    1.081   .     S
C953   N973    1.366   .     A
C953   H967    1.081   .     S
C953   C1148   1.415   .     S
Cu955  O984    1.996   .     S
Cu955  Cu956   2.676   .     S
Cu955  O986    1.957   .     S
Cu955  N973    2.011   .     S
Cu955  O988    1.957   .     S
Cu955  O975    1.996   .     S
Cu956  N974    2.011   .     S
Cu956  O985    1.996   .     S
Cu956  O983    1.996   .     S
Cu956  O987    1.957   .     S
Cu956  O989    1.957   .     S
H961   O976    1.011   .     S
H962   O978    1.013   .     S
H963   O980    1.014   .     S
H964   O982    1.009   .     S
C991   O1041   1.296   .     A
C991   C1009   1.481   .     S
C991   O1051   1.297   .     A
C992   C1008   1.419   .     A
C992   C1011   1.487   .     S
C992   C1060   1.395   .     S
C993   C1008   1.418   .     A
C993   C1012   1.490   .     S
C993   C1086   1.401   .     S
C994   C1014   1.479   .     S
C994   C1009   1.418   .     A
C994   C1124   1.395   1_455 S
C995   C999    1.390   .     A
C995   C1006   1.404   .     A
C995   H1034   1.083   .     S
C996   C1000   1.390   .     A
C996   H1035   1.083   .     S
C996   C1007   1.404   .     A
C997   C1001   1.390   .     A
C997   H1036   1.083   .     S
C997   C1007   1.404   .     A
C998   C1003   1.390   .     A
C998   H1037   1.083   .     S
C998   C1006   1.404   .     A
C999   C1004   1.402   .     A
C999   H1038   1.083   .     S
C1000  C1005   1.402   .     A
C1000  H1024   1.083   .     S
C1001  H1025   1.083   .     S
C1001  C1005   1.402   .     A
C1002  O1049   1.297   .     A
C1002  C1008   1.473   .     S
C1002  O1050   1.292   .     A
C1003  C1004   1.402   .     A
C1003  H1026   1.083   .     S
C1004  C1013   1.460   .     S
C1005  C1015   1.460   .     S
C1007  C412    1.470   1_556 S
C1009  C1020   1.420   .     A
C1010  O1042   1.398   .     S
C1010  O1056   1.222   .     D
C1010  C1020   1.479   .     S
C1011  O1043   1.223   .     D
C1011  O1044   1.397   .     S
C1012  O1046   1.398   .     S
C1012  O1045   1.222   .     D
C1013  O1055   1.293   .     A
C1013  O1052   1.293   .     A
C1014  O1048   1.396   .     S
C1014  O1047   1.222   .     D
C1015  O1053   1.293   .     A
C1015  O1054   1.293   .     A
C1016  H1023   1.081   .     S
C1016  N1040   1.367   .     A
C1017  H1031   1.081   .     S
C1017  N1039   1.367   .     A
C1017  C622    1.415   1_565 S
C1018  N1040   1.367   .     A
C1018  H1032   1.081   .     S
C1019  N1039   1.366   .     A
C1019  H1033   1.081   .     S
C1019  C620    1.415   1_565 S
C1020  C1125   1.401   1_455 S
Cu1021 O1050   1.996   .     S
Cu1021 Cu1022  2.676   .     S
Cu1021 O1052   1.957   .     S
Cu1021 N1039   2.011   .     S
Cu1021 O1054   1.957   .     S
Cu1021 O1041   1.996   .     S
Cu1022 N1040   2.011   .     S
Cu1022 O1051   1.996   .     S
Cu1022 O1049   1.996   .     S
Cu1022 O1053   1.957   .     S
Cu1022 O1055   1.957   .     S
H1027  O1042   1.011   .     S
H1028  O1044   1.013   .     S
H1029  O1046   1.014   .     S
H1030  O1048   1.009   .     S
C1057  O1107   1.296   .     A
C1057  C1075   1.481   .     S
C1057  O1117   1.297   .     A
C1058  C1074   1.419   .     A
C1058  C1077   1.487   .     S
C1058  C1126   1.395   .     S
C1059  C1074   1.418   .     A
C1059  C1078   1.490   .     S
C1059  C1152   1.401   .     S
C1060  C1080   1.479   .     S
C1060  C1075   1.418   .     A
C1061  C1065   1.390   .     A
C1061  C1072   1.404   .     A
C1061  H1100   1.083   .     S
C1062  C1066   1.390   .     A
C1062  H1101   1.083   .     S
C1062  C1073   1.404   .     A
C1063  C1067   1.390   .     A
C1063  H1102   1.083   .     S
C1063  C1073   1.404   .     A
C1064  C1069   1.390   .     A
C1064  H1103   1.083   .     S
C1064  C1072   1.404   .     A
C1065  C1070   1.402   .     A
C1065  H1104   1.083   .     S
C1066  C1071   1.402   .     A
C1066  H1090   1.083   .     S
C1067  H1091   1.083   .     S
C1067  C1071   1.402   .     A
C1068  O1115   1.297   .     A
C1068  C1074   1.473   .     S
C1068  O1116   1.292   .     A
C1069  C1070   1.402   .     A
C1069  H1092   1.083   .     S
C1070  C1079   1.460   .     S
C1071  C1081   1.460   .     S
C1073  C478    1.470   1_556 S
C1075  C1086   1.420   .     A
C1076  O1108   1.398   .     S
C1076  O1122   1.222   .     D
C1076  C1086   1.479   .     S
C1077  O1109   1.223   .     D
C1077  O1110   1.397   .     S
C1078  O1112   1.398   .     S
C1078  O1111   1.222   .     D
C1079  O1121   1.293   .     A
C1079  O1118   1.293   .     A
C1080  O1114   1.396   .     S
C1080  O1113   1.222   .     D
C1081  O1119   1.293   .     A
C1081  O1120   1.293   .     A
C1082  H1089   1.081   .     S
C1082  N1106   1.367   .     A
C1083  H1097   1.081   .     S
C1083  N1105   1.367   .     A
C1083  C688    1.415   1_565 S
C1084  N1106   1.367   .     A
C1084  H1098   1.081   .     S
C1085  N1105   1.366   .     A
C1085  H1099   1.081   .     S
C1085  C686    1.415   1_565 S
Cu1087 O1116   1.996   .     S
Cu1087 Cu1088  2.676   .     S
Cu1087 O1118   1.957   .     S
Cu1087 N1105   2.011   .     S
Cu1087 O1120   1.957   .     S
Cu1087 O1107   1.996   .     S
Cu1088 N1106   2.011   .     S
Cu1088 O1117   1.996   .     S
Cu1088 O1115   1.996   .     S
Cu1088 O1119   1.957   .     S
Cu1088 O1121   1.957   .     S
H1093  O1108   1.011   .     S
H1094  O1110   1.013   .     S
H1095  O1112   1.014   .     S
H1096  O1114   1.009   .     S
C1123  O1173   1.296   .     A
C1123  C1141   1.481   .     S
C1123  O1183   1.297   .     A
C1124  C1140   1.419   .     A
C1124  C1143   1.487   .     S
C1124  C994    1.395   1_655 S
C1125  C1140   1.418   .     A
C1125  C1144   1.490   .     S
C1125  C1020   1.401   1_655 S
C1126  C1146   1.479   .     S
C1126  C1141   1.418   .     A
C1127  C1131   1.390   .     A
C1127  C1138   1.404   .     A
C1127  H1166   1.083   .     S
C1128  C1132   1.390   .     A
C1128  H1167   1.083   .     S
C1128  C1139   1.404   .     A
C1129  C1133   1.390   .     A
C1129  H1168   1.083   .     S
C1129  C1139   1.404   .     A
C1130  C1135   1.390   .     A
C1130  H1169   1.083   .     S
C1130  C1138   1.404   .     A
C1131  C1136   1.402   .     A
C1131  H1170   1.083   .     S
C1132  C1137   1.402   .     A
C1132  H1156   1.083   .     S
C1133  H1157   1.083   .     S
C1133  C1137   1.402   .     A
C1134  O1181   1.297   .     A
C1134  C1140   1.473   .     S
C1134  O1182   1.292   .     A
C1135  C1136   1.402   .     A
C1135  H1158   1.083   .     S
C1136  C1145   1.460   .     S
C1137  C1147   1.460   .     S
C1139  C544    1.470   1_556 S
C1141  C1152   1.420   .     A
C1142  O1174   1.398   .     S
C1142  O1188   1.222   .     D
C1142  C1152   1.479   .     S
C1143  O1175   1.223   .     D
C1143  O1176   1.397   .     S
C1144  O1178   1.398   .     S
C1144  O1177   1.222   .     D
C1145  O1187   1.293   .     A
C1145  O1184   1.293   .     A
C1146  O1180   1.396   .     S
C1146  O1179   1.222   .     D
C1147  O1185   1.293   .     A
C1147  O1186   1.293   .     A
C1148  H1155   1.081   .     S
C1148  N1172   1.367   .     A
C1149  H1163   1.081   .     S
C1149  N1171   1.367   .     A
C1149  C754    1.415   1_565 S
C1150  N1172   1.367   .     A
C1150  H1164   1.081   .     S
C1151  N1171   1.366   .     A
C1151  H1165   1.081   .     S
C1151  C752    1.415   1_565 S
Cu1153 O1182   1.996   .     S
Cu1153 Cu1154  2.676   .     S
Cu1153 O1184   1.957   .     S
Cu1153 N1171   2.011   .     S
Cu1153 O1186   1.957   .     S
Cu1153 O1173   1.996   .     S
Cu1154 N1172   2.011   .     S
Cu1154 O1183   1.996   .     S
Cu1154 O1181   1.996   .     S
Cu1154 O1185   1.957   .     S
Cu1154 O1187   1.957   .     S
H1159  O1174   1.011   .     S
H1160  O1176   1.013   .     S
H1161  O1178   1.014   .     S
H1162  O1180   1.009   .     S
