data_str_m2_o10_o16_pcu_sym.192
_audit_creation_date              2020-01-03
_audit_creation_method            'Materials Studio'
_symmetry_space_group_name_H-M    'P1'
_symmetry_Int_Tables_number       1
_symmetry_cell_setting            triclinic
loop_
_symmetry_equiv_pos_as_xyz
  x,y,z
_cell_length_a                    22.3907
_cell_length_b                    26.1276
_cell_length_c                    26.9648
_cell_angle_alpha                 94.6953
_cell_angle_beta                  77.6586
_cell_angle_gamma                 103.2752
loop_
_atom_site_label
_atom_site_type_symbol
_atom_site_fract_x
_atom_site_fract_y
_atom_site_fract_z
_atom_site_U_iso_or_equiv
_atom_site_adp_type
_atom_site_occupancy
C1     C     0.18255   0.26651   0.24960   0.00000  Uiso   1.00
C2     C     0.14541   0.14254   0.47985   0.00000  Uiso   1.00
C3     C     0.15243   0.17049   0.43528   0.00000  Uiso   1.00
C4     C     0.18658   0.16215   0.01450   0.00000  Uiso   1.00
C5     C     0.24088   0.20207   0.49792   0.00000  Uiso   1.00
C6     C     0.24718   0.22842   0.45361   0.00000  Uiso   1.00
C7     C     0.20139   0.21518   0.42467   0.00000  Uiso   1.00
C8     C     0.17413   0.14715   0.06600   0.00000  Uiso   1.00
C9     C     0.27619   0.20056   0.07623   0.00000  Uiso   1.00
C10    C     0.11216   0.15167   0.40073   0.00000  Uiso   1.00
C11    C     0.19376   0.32217   0.24452   0.00000  Uiso   1.00
C12    C     0.13303   0.16365   0.34683   0.00000  Uiso   1.00
C13    C     0.14457   0.01076   0.24700   0.00000  Uiso   1.00
C14    C     0.15202   0.06667   0.24775   0.00000  Uiso   1.00
C15    C     0.19974   0.16734   0.15298   0.00000  Uiso   1.00
C16    C     0.28683   0.21792   0.02727   0.00000  Uiso   1.00
C17    C     0.21841   0.16889   0.09720   0.00000  Uiso   1.00
C18    C     0.06024   0.11020   0.41388   0.00000  Uiso   1.00
C19    C     0.05375   0.08170   0.45692   0.00000  Uiso   1.00
C20    C     0.09980   0.09472   0.48616   0.00000  Uiso   1.00
Cu21   Cu    0.10710   0.16105   0.24436   0.00000  Uiso   1.00
Cu22   Cu    0.22623   0.17228   0.25565   0.00000  Uiso   1.00
H23    H     0.31049   0.21669   0.09947   0.00000  Uiso   1.00
H24    H     0.09730   0.32045   0.24965   0.00000  Uiso   1.00
H25    H     0.33271   0.13268   0.20601   0.00000  Uiso   1.00
H26    H     0.28654   0.26094   0.44229   0.00000  Uiso   1.00
H27    H     0.32948   0.24657   0.01353   0.00000  Uiso   1.00
H28    H     0.02894   0.09575   0.38778   0.00000  Uiso   1.00
H29    H     0.09950   0.06603   0.01278   0.00000  Uiso   1.00
H30    H     0.20603   0.23924   0.39266   0.00000  Uiso   1.00
N31    N     0.31574   0.18074   0.26416   0.00000  Uiso   1.00
N32    N     0.01759   0.15259   0.23584   0.00000  Uiso   1.00
O33    O     0.12797   0.23807   0.24633   0.00000  Uiso   1.00
O34    O     0.22858   0.24755   0.25587   0.00000  Uiso   1.00
O35    O     0.09181   0.15960   0.31840   0.00000  Uiso   1.00
O36    O     0.19242   0.16908   0.32793   0.00000  Uiso   1.00
O37    O     0.10476   0.08578   0.24414   0.00000  Uiso   1.00
O38    O     0.20536   0.09526   0.25367   0.00000  Uiso   1.00
O39    O     0.14092   0.16425   0.17207   0.00000  Uiso   1.00
O40    O     0.24152   0.17373   0.18161   0.00000  Uiso   1.00
C41    C     0.00112   0.20625   0.30832   0.00000  Uiso   1.00
H42    H     0.03283   0.24445   0.30643   0.00000  Uiso   1.00
O43    O     0.31240   0.18637   0.34947   0.00000  Uiso   1.00
C44    C     0.11238   0.11519   0.09029   0.00000  Uiso   1.00
H45    H     0.11036   0.08109   0.11156   0.00000  Uiso   1.00
O46    O     0.06392   0.12874   0.08934   0.00000  Uiso   1.00
O47    O     0.00759   0.03646   0.46673   0.00000  Uiso   1.00
C48    C     0.28303   0.05087   0.48547   0.00000  Uiso   1.00
H49    H     0.26834   0.06973   0.45590   0.00000  Uiso   1.00
H50    H     0.28463   0.07729   0.01999   0.00000  Uiso   1.00
H51    H     0.24671   0.01475   0.49653   0.00000  Uiso   1.00
O52    O     0.25474   0.01814   0.23999   0.00000  Uiso   1.00
C53    C     0.28563   0.01525   0.18873   0.00000  Uiso   1.00
H54    H     0.26326   0.03349   0.16372   0.00000  Uiso   1.00
H55    H     0.28719   0.30735   0.17544   0.00000  Uiso   1.00
H56    H     0.00144   0.03760   0.18524   0.00000  Uiso   1.00
C57    C     0.51588   0.26651   0.24960   0.00000  Uiso   1.00
C58    C     0.47874   0.14254   0.47985   0.00000  Uiso   1.00
C59    C     0.48577   0.17049   0.43528   0.00000  Uiso   1.00
C60    C     0.51991   0.16215   0.01450   0.00000  Uiso   1.00
C61    C     0.57421   0.20207   0.49792   0.00000  Uiso   1.00
C62    C     0.58051   0.22842   0.45361   0.00000  Uiso   1.00
C63    C     0.53472   0.21518   0.42467   0.00000  Uiso   1.00
C64    C     0.50747   0.14715   0.06600   0.00000  Uiso   1.00
C65    C     0.60952   0.20056   0.07623   0.00000  Uiso   1.00
C66    C     0.44550   0.15167   0.40073   0.00000  Uiso   1.00
C67    C     0.52709   0.32217   0.24452   0.00000  Uiso   1.00
C68    C     0.46636   0.16365   0.34683   0.00000  Uiso   1.00
C69    C     0.47791   0.01076   0.24700   0.00000  Uiso   1.00
C70    C     0.48535   0.06667   0.24775   0.00000  Uiso   1.00
C71    C     0.53307   0.16734   0.15298   0.00000  Uiso   1.00
C72    C     0.62016   0.21792   0.02727   0.00000  Uiso   1.00
C73    C     0.55174   0.16889   0.09720   0.00000  Uiso   1.00
C74    C     0.39357   0.11020   0.41388   0.00000  Uiso   1.00
C75    C     0.38708   0.08170   0.45692   0.00000  Uiso   1.00
C76    C     0.43314   0.09472   0.48616   0.00000  Uiso   1.00
Cu77   Cu    0.44043   0.16105   0.24436   0.00000  Uiso   1.00
Cu78   Cu    0.55957   0.17228   0.25565   0.00000  Uiso   1.00
H79    H     0.64383   0.21669   0.09947   0.00000  Uiso   1.00
H80    H     0.43063   0.32045   0.24965   0.00000  Uiso   1.00
H81    H     0.66604   0.13268   0.20601   0.00000  Uiso   1.00
H82    H     0.61987   0.26094   0.44229   0.00000  Uiso   1.00
H83    H     0.66282   0.24657   0.01353   0.00000  Uiso   1.00
H84    H     0.36227   0.09575   0.38778   0.00000  Uiso   1.00
H85    H     0.43283   0.06603   0.01278   0.00000  Uiso   1.00
H86    H     0.53936   0.23924   0.39266   0.00000  Uiso   1.00
N87    N     0.64908   0.18074   0.26416   0.00000  Uiso   1.00
N88    N     0.35092   0.15259   0.23584   0.00000  Uiso   1.00
O89    O     0.46131   0.23807   0.24633   0.00000  Uiso   1.00
O90    O     0.56191   0.24755   0.25587   0.00000  Uiso   1.00
O91    O     0.42515   0.15960   0.31840   0.00000  Uiso   1.00
O92    O     0.52575   0.16908   0.32793   0.00000  Uiso   1.00
O93    O     0.43809   0.08578   0.24414   0.00000  Uiso   1.00
O94    O     0.53869   0.09526   0.25367   0.00000  Uiso   1.00
O95    O     0.47425   0.16425   0.17207   0.00000  Uiso   1.00
O96    O     0.57485   0.17373   0.18161   0.00000  Uiso   1.00
C97    C     0.33445   0.20625   0.30832   0.00000  Uiso   1.00
H98    H     0.36616   0.24445   0.30643   0.00000  Uiso   1.00
O99    O     0.64574   0.18637   0.34947   0.00000  Uiso   1.00
C100   C     0.44571   0.11519   0.09029   0.00000  Uiso   1.00
H101   H     0.44370   0.08109   0.11156   0.00000  Uiso   1.00
O102   O     0.39725   0.12874   0.08934   0.00000  Uiso   1.00
O103   O     0.34093   0.03646   0.46673   0.00000  Uiso   1.00
C104   C     0.61636   0.05087   0.48547   0.00000  Uiso   1.00
H105   H     0.60167   0.06973   0.45590   0.00000  Uiso   1.00
H106   H     0.61796   0.07729   0.01999   0.00000  Uiso   1.00
H107   H     0.58004   0.01475   0.49653   0.00000  Uiso   1.00
O108   O     0.58808   0.01814   0.23999   0.00000  Uiso   1.00
C109   C     0.61897   0.01525   0.18873   0.00000  Uiso   1.00
H110   H     0.59659   0.03349   0.16372   0.00000  Uiso   1.00
H111   H     0.62053   0.30735   0.17544   0.00000  Uiso   1.00
H112   H     0.33478   0.03760   0.18524   0.00000  Uiso   1.00
C113   C     0.84922   0.26651   0.24960   0.00000  Uiso   1.00
C114   C     0.81207   0.14254   0.47985   0.00000  Uiso   1.00
C115   C     0.81910   0.17049   0.43528   0.00000  Uiso   1.00
C116   C     0.85324   0.16215   0.01450   0.00000  Uiso   1.00
C117   C     0.90754   0.20207   0.49792   0.00000  Uiso   1.00
C118   C     0.91384   0.22842   0.45361   0.00000  Uiso   1.00
C119   C     0.86806   0.21518   0.42467   0.00000  Uiso   1.00
C120   C     0.84080   0.14715   0.06600   0.00000  Uiso   1.00
C121   C     0.94286   0.20056   0.07623   0.00000  Uiso   1.00
C122   C     0.77883   0.15167   0.40073   0.00000  Uiso   1.00
C123   C     0.86043   0.32217   0.24452   0.00000  Uiso   1.00
C124   C     0.79969   0.16365   0.34683   0.00000  Uiso   1.00
C125   C     0.81124   0.01076   0.24700   0.00000  Uiso   1.00
C126   C     0.81869   0.06667   0.24775   0.00000  Uiso   1.00
C127   C     0.86641   0.16734   0.15298   0.00000  Uiso   1.00
C128   C     0.95350   0.21792   0.02727   0.00000  Uiso   1.00
C129   C     0.88507   0.16889   0.09720   0.00000  Uiso   1.00
C130   C     0.72691   0.11020   0.41388   0.00000  Uiso   1.00
C131   C     0.72042   0.08170   0.45692   0.00000  Uiso   1.00
C132   C     0.76647   0.09472   0.48616   0.00000  Uiso   1.00
Cu133  Cu    0.77377   0.16105   0.24436   0.00000  Uiso   1.00
Cu134  Cu    0.89290   0.17228   0.25565   0.00000  Uiso   1.00
H135   H     0.97716   0.21669   0.09947   0.00000  Uiso   1.00
H136   H     0.76396   0.32045   0.24965   0.00000  Uiso   1.00
H137   H     0.99938   0.13268   0.20601   0.00000  Uiso   1.00
H138   H     0.95320   0.26094   0.44229   0.00000  Uiso   1.00
H139   H     0.99615   0.24657   0.01353   0.00000  Uiso   1.00
H140   H     0.69561   0.09575   0.38778   0.00000  Uiso   1.00
H141   H     0.76616   0.06603   0.01278   0.00000  Uiso   1.00
H142   H     0.87270   0.23924   0.39266   0.00000  Uiso   1.00
N143   N     0.98241   0.18074   0.26416   0.00000  Uiso   1.00
N144   N     0.68426   0.15259   0.23584   0.00000  Uiso   1.00
O145   O     0.79464   0.23807   0.24633   0.00000  Uiso   1.00
O146   O     0.89524   0.24755   0.25587   0.00000  Uiso   1.00
O147   O     0.75848   0.15960   0.31840   0.00000  Uiso   1.00
O148   O     0.85908   0.16908   0.32793   0.00000  Uiso   1.00
O149   O     0.77142   0.08578   0.24414   0.00000  Uiso   1.00
O150   O     0.87203   0.09526   0.25367   0.00000  Uiso   1.00
O151   O     0.80758   0.16425   0.17207   0.00000  Uiso   1.00
O152   O     0.90819   0.17373   0.18161   0.00000  Uiso   1.00
C153   C     0.66779   0.20625   0.30832   0.00000  Uiso   1.00
H154   H     0.69950   0.24445   0.30643   0.00000  Uiso   1.00
O155   O     0.97907   0.18637   0.34947   0.00000  Uiso   1.00
C156   C     0.77905   0.11519   0.09029   0.00000  Uiso   1.00
H157   H     0.77703   0.08109   0.11156   0.00000  Uiso   1.00
O158   O     0.73059   0.12874   0.08934   0.00000  Uiso   1.00
O159   O     0.67426   0.03646   0.46673   0.00000  Uiso   1.00
C160   C     0.94970   0.05087   0.48547   0.00000  Uiso   1.00
H161   H     0.93500   0.06973   0.45590   0.00000  Uiso   1.00
H162   H     0.95130   0.07729   0.01999   0.00000  Uiso   1.00
H163   H     0.91337   0.01475   0.49653   0.00000  Uiso   1.00
O164   O     0.92141   0.01814   0.23999   0.00000  Uiso   1.00
C165   C     0.95230   0.01525   0.18873   0.00000  Uiso   1.00
H166   H     0.92993   0.03349   0.16372   0.00000  Uiso   1.00
H167   H     0.95386   0.30735   0.17544   0.00000  Uiso   1.00
H168   H     0.66811   0.03760   0.18524   0.00000  Uiso   1.00
C169   C     0.18255   0.59984   0.24960   0.00000  Uiso   1.00
C170   C     0.14541   0.47587   0.47985   0.00000  Uiso   1.00
C171   C     0.15243   0.50382   0.43528   0.00000  Uiso   1.00
C172   C     0.18658   0.49549   0.01450   0.00000  Uiso   1.00
C173   C     0.24088   0.53540   0.49792   0.00000  Uiso   1.00
C174   C     0.24718   0.56175   0.45361   0.00000  Uiso   1.00
C175   C     0.20139   0.54851   0.42467   0.00000  Uiso   1.00
C176   C     0.17413   0.48048   0.06600   0.00000  Uiso   1.00
C177   C     0.27619   0.53389   0.07623   0.00000  Uiso   1.00
C178   C     0.11216   0.48500   0.40073   0.00000  Uiso   1.00
C179   C     0.19376   0.65551   0.24452   0.00000  Uiso   1.00
C180   C     0.13303   0.49698   0.34683   0.00000  Uiso   1.00
C181   C     0.14457   0.34410   0.24700   0.00000  Uiso   1.00
C182   C     0.15202   0.40000   0.24775   0.00000  Uiso   1.00
C183   C     0.19974   0.50067   0.15298   0.00000  Uiso   1.00
C184   C     0.28683   0.55125   0.02727   0.00000  Uiso   1.00
C185   C     0.21841   0.50223   0.09720   0.00000  Uiso   1.00
C186   C     0.06024   0.44353   0.41388   0.00000  Uiso   1.00
C187   C     0.05375   0.41504   0.45692   0.00000  Uiso   1.00
C188   C     0.09980   0.42805   0.48616   0.00000  Uiso   1.00
Cu189  Cu    0.10710   0.49439   0.24436   0.00000  Uiso   1.00
Cu190  Cu    0.22623   0.50561   0.25565   0.00000  Uiso   1.00
H191   H     0.31049   0.55003   0.09947   0.00000  Uiso   1.00
H192   H     0.09730   0.65378   0.24965   0.00000  Uiso   1.00
H193   H     0.33271   0.46601   0.20601   0.00000  Uiso   1.00
H194   H     0.28654   0.59427   0.44229   0.00000  Uiso   1.00
H195   H     0.32948   0.57991   0.01353   0.00000  Uiso   1.00
H196   H     0.02894   0.42908   0.38778   0.00000  Uiso   1.00
H197   H     0.09950   0.39936   0.01278   0.00000  Uiso   1.00
H198   H     0.20603   0.57257   0.39266   0.00000  Uiso   1.00
N199   N     0.31574   0.51407   0.26416   0.00000  Uiso   1.00
N200   N     0.01759   0.48593   0.23584   0.00000  Uiso   1.00
O201   O     0.12797   0.57141   0.24633   0.00000  Uiso   1.00
O202   O     0.22858   0.58089   0.25587   0.00000  Uiso   1.00
O203   O     0.09181   0.49293   0.31840   0.00000  Uiso   1.00
O204   O     0.19242   0.50241   0.32793   0.00000  Uiso   1.00
O205   O     0.10476   0.41911   0.24414   0.00000  Uiso   1.00
O206   O     0.20536   0.42859   0.25367   0.00000  Uiso   1.00
O207   O     0.14092   0.49759   0.17207   0.00000  Uiso   1.00
O208   O     0.24152   0.50707   0.18161   0.00000  Uiso   1.00
C209   C     0.00112   0.53958   0.30832   0.00000  Uiso   1.00
H210   H     0.03283   0.57779   0.30643   0.00000  Uiso   1.00
O211   O     0.31240   0.51971   0.34947   0.00000  Uiso   1.00
C212   C     0.11238   0.44853   0.09029   0.00000  Uiso   1.00
H213   H     0.11036   0.41442   0.11156   0.00000  Uiso   1.00
O214   O     0.06392   0.46208   0.08934   0.00000  Uiso   1.00
O215   O     0.00759   0.36979   0.46673   0.00000  Uiso   1.00
C216   C     0.28303   0.38420   0.48547   0.00000  Uiso   1.00
H217   H     0.26834   0.40306   0.45590   0.00000  Uiso   1.00
H218   H     0.28463   0.41062   0.01999   0.00000  Uiso   1.00
H219   H     0.24671   0.34809   0.49653   0.00000  Uiso   1.00
O220   O     0.25474   0.35148   0.23999   0.00000  Uiso   1.00
C221   C     0.28563   0.34859   0.18873   0.00000  Uiso   1.00
H222   H     0.26326   0.36682   0.16372   0.00000  Uiso   1.00
H223   H     0.28719   0.64068   0.17544   0.00000  Uiso   1.00
H224   H     0.00144   0.37094   0.18524   0.00000  Uiso   1.00
C225   C     0.51588   0.59984   0.24960   0.00000  Uiso   1.00
C226   C     0.47874   0.47587   0.47985   0.00000  Uiso   1.00
C227   C     0.48577   0.50382   0.43528   0.00000  Uiso   1.00
C228   C     0.51991   0.49549   0.01450   0.00000  Uiso   1.00
C229   C     0.57421   0.53540   0.49792   0.00000  Uiso   1.00
C230   C     0.58051   0.56175   0.45361   0.00000  Uiso   1.00
C231   C     0.53472   0.54851   0.42467   0.00000  Uiso   1.00
C232   C     0.50747   0.48048   0.06600   0.00000  Uiso   1.00
C233   C     0.60952   0.53389   0.07623   0.00000  Uiso   1.00
C234   C     0.44550   0.48500   0.40073   0.00000  Uiso   1.00
C235   C     0.52709   0.65551   0.24452   0.00000  Uiso   1.00
C236   C     0.46636   0.49698   0.34683   0.00000  Uiso   1.00
C237   C     0.47791   0.34410   0.24700   0.00000  Uiso   1.00
C238   C     0.48535   0.40000   0.24775   0.00000  Uiso   1.00
C239   C     0.53307   0.50067   0.15298   0.00000  Uiso   1.00
C240   C     0.62016   0.55125   0.02727   0.00000  Uiso   1.00
C241   C     0.55174   0.50223   0.09720   0.00000  Uiso   1.00
C242   C     0.39357   0.44353   0.41388   0.00000  Uiso   1.00
C243   C     0.38708   0.41504   0.45692   0.00000  Uiso   1.00
C244   C     0.43314   0.42805   0.48616   0.00000  Uiso   1.00
Cu245  Cu    0.44043   0.49439   0.24436   0.00000  Uiso   1.00
Cu246  Cu    0.55957   0.50561   0.25565   0.00000  Uiso   1.00
H247   H     0.64383   0.55003   0.09947   0.00000  Uiso   1.00
H248   H     0.43063   0.65378   0.24965   0.00000  Uiso   1.00
H249   H     0.66604   0.46601   0.20601   0.00000  Uiso   1.00
H250   H     0.61987   0.59427   0.44229   0.00000  Uiso   1.00
H251   H     0.66282   0.57991   0.01353   0.00000  Uiso   1.00
H252   H     0.36227   0.42908   0.38778   0.00000  Uiso   1.00
H253   H     0.43283   0.39936   0.01278   0.00000  Uiso   1.00
H254   H     0.53936   0.57257   0.39266   0.00000  Uiso   1.00
N255   N     0.64908   0.51407   0.26416   0.00000  Uiso   1.00
N256   N     0.35092   0.48593   0.23584   0.00000  Uiso   1.00
O257   O     0.46131   0.57141   0.24633   0.00000  Uiso   1.00
O258   O     0.56191   0.58089   0.25587   0.00000  Uiso   1.00
O259   O     0.42515   0.49293   0.31840   0.00000  Uiso   1.00
O260   O     0.52575   0.50241   0.32793   0.00000  Uiso   1.00
O261   O     0.43809   0.41911   0.24414   0.00000  Uiso   1.00
O262   O     0.53869   0.42859   0.25367   0.00000  Uiso   1.00
O263   O     0.47425   0.49759   0.17207   0.00000  Uiso   1.00
O264   O     0.57485   0.50707   0.18161   0.00000  Uiso   1.00
C265   C     0.33445   0.53958   0.30832   0.00000  Uiso   1.00
H266   H     0.36616   0.57779   0.30643   0.00000  Uiso   1.00
O267   O     0.64574   0.51971   0.34947   0.00000  Uiso   1.00
C268   C     0.44571   0.44853   0.09029   0.00000  Uiso   1.00
H269   H     0.44370   0.41442   0.11156   0.00000  Uiso   1.00
O270   O     0.39725   0.46208   0.08934   0.00000  Uiso   1.00
O271   O     0.34093   0.36979   0.46673   0.00000  Uiso   1.00
C272   C     0.61636   0.38420   0.48547   0.00000  Uiso   1.00
H273   H     0.60167   0.40306   0.45590   0.00000  Uiso   1.00
H274   H     0.61796   0.41062   0.01999   0.00000  Uiso   1.00
H275   H     0.58004   0.34809   0.49653   0.00000  Uiso   1.00
O276   O     0.58808   0.35148   0.23999   0.00000  Uiso   1.00
C277   C     0.61897   0.34859   0.18873   0.00000  Uiso   1.00
H278   H     0.59659   0.36682   0.16372   0.00000  Uiso   1.00
H279   H     0.62053   0.64068   0.17544   0.00000  Uiso   1.00
H280   H     0.33478   0.37094   0.18524   0.00000  Uiso   1.00
C281   C     0.84922   0.59984   0.24960   0.00000  Uiso   1.00
C282   C     0.81207   0.47587   0.47985   0.00000  Uiso   1.00
C283   C     0.81910   0.50382   0.43528   0.00000  Uiso   1.00
C284   C     0.85324   0.49549   0.01450   0.00000  Uiso   1.00
C285   C     0.90754   0.53540   0.49792   0.00000  Uiso   1.00
C286   C     0.91384   0.56175   0.45361   0.00000  Uiso   1.00
C287   C     0.86806   0.54851   0.42467   0.00000  Uiso   1.00
C288   C     0.84080   0.48048   0.06600   0.00000  Uiso   1.00
C289   C     0.94286   0.53389   0.07623   0.00000  Uiso   1.00
C290   C     0.77883   0.48500   0.40073   0.00000  Uiso   1.00
C291   C     0.86043   0.65551   0.24452   0.00000  Uiso   1.00
C292   C     0.79969   0.49698   0.34683   0.00000  Uiso   1.00
C293   C     0.81124   0.34410   0.24700   0.00000  Uiso   1.00
C294   C     0.81869   0.40000   0.24775   0.00000  Uiso   1.00
C295   C     0.86641   0.50067   0.15298   0.00000  Uiso   1.00
C296   C     0.95350   0.55125   0.02727   0.00000  Uiso   1.00
C297   C     0.88507   0.50223   0.09720   0.00000  Uiso   1.00
C298   C     0.72691   0.44353   0.41388   0.00000  Uiso   1.00
C299   C     0.72042   0.41504   0.45692   0.00000  Uiso   1.00
C300   C     0.76647   0.42805   0.48616   0.00000  Uiso   1.00
Cu301  Cu    0.77377   0.49439   0.24436   0.00000  Uiso   1.00
Cu302  Cu    0.89290   0.50561   0.25565   0.00000  Uiso   1.00
H303   H     0.97716   0.55003   0.09947   0.00000  Uiso   1.00
H304   H     0.76396   0.65378   0.24965   0.00000  Uiso   1.00
H305   H     0.99938   0.46601   0.20601   0.00000  Uiso   1.00
H306   H     0.95320   0.59427   0.44229   0.00000  Uiso   1.00
H307   H     0.99615   0.57991   0.01353   0.00000  Uiso   1.00
H308   H     0.69561   0.42908   0.38778   0.00000  Uiso   1.00
H309   H     0.76616   0.39936   0.01278   0.00000  Uiso   1.00
H310   H     0.87270   0.57257   0.39266   0.00000  Uiso   1.00
N311   N     0.98241   0.51407   0.26416   0.00000  Uiso   1.00
N312   N     0.68426   0.48593   0.23584   0.00000  Uiso   1.00
O313   O     0.79464   0.57141   0.24633   0.00000  Uiso   1.00
O314   O     0.89524   0.58089   0.25587   0.00000  Uiso   1.00
O315   O     0.75848   0.49293   0.31840   0.00000  Uiso   1.00
O316   O     0.85908   0.50241   0.32793   0.00000  Uiso   1.00
O317   O     0.77142   0.41911   0.24414   0.00000  Uiso   1.00
O318   O     0.87203   0.42859   0.25367   0.00000  Uiso   1.00
O319   O     0.80758   0.49759   0.17207   0.00000  Uiso   1.00
O320   O     0.90819   0.50707   0.18161   0.00000  Uiso   1.00
C321   C     0.66779   0.53958   0.30832   0.00000  Uiso   1.00
H322   H     0.69950   0.57779   0.30643   0.00000  Uiso   1.00
O323   O     0.97907   0.51971   0.34947   0.00000  Uiso   1.00
C324   C     0.77905   0.44853   0.09029   0.00000  Uiso   1.00
H325   H     0.77703   0.41442   0.11156   0.00000  Uiso   1.00
O326   O     0.73059   0.46208   0.08934   0.00000  Uiso   1.00
O327   O     0.67426   0.36979   0.46673   0.00000  Uiso   1.00
C328   C     0.94970   0.38420   0.48547   0.00000  Uiso   1.00
H329   H     0.93500   0.40306   0.45590   0.00000  Uiso   1.00
H330   H     0.95130   0.41062   0.01999   0.00000  Uiso   1.00
H331   H     0.91337   0.34809   0.49653   0.00000  Uiso   1.00
O332   O     0.92141   0.35148   0.23999   0.00000  Uiso   1.00
C333   C     0.95230   0.34859   0.18873   0.00000  Uiso   1.00
H334   H     0.92993   0.36682   0.16372   0.00000  Uiso   1.00
H335   H     0.95386   0.64068   0.17544   0.00000  Uiso   1.00
H336   H     0.66811   0.37094   0.18524   0.00000  Uiso   1.00
C337   C     0.18255   0.93317   0.24960   0.00000  Uiso   1.00
C338   C     0.14541   0.80921   0.47985   0.00000  Uiso   1.00
C339   C     0.15243   0.83715   0.43528   0.00000  Uiso   1.00
C340   C     0.18658   0.82882   0.01450   0.00000  Uiso   1.00
C341   C     0.24088   0.86874   0.49792   0.00000  Uiso   1.00
C342   C     0.24718   0.89508   0.45361   0.00000  Uiso   1.00
C343   C     0.20139   0.88184   0.42467   0.00000  Uiso   1.00
C344   C     0.17413   0.81382   0.06600   0.00000  Uiso   1.00
C345   C     0.27619   0.86723   0.07623   0.00000  Uiso   1.00
C346   C     0.11216   0.81833   0.40073   0.00000  Uiso   1.00
C347   C     0.19376   0.98884   0.24452   0.00000  Uiso   1.00
C348   C     0.13303   0.83032   0.34683   0.00000  Uiso   1.00
C349   C     0.14457   0.67743   0.24700   0.00000  Uiso   1.00
C350   C     0.15202   0.73334   0.24775   0.00000  Uiso   1.00
C351   C     0.19974   0.83400   0.15298   0.00000  Uiso   1.00
C352   C     0.28683   0.88458   0.02727   0.00000  Uiso   1.00
C353   C     0.21841   0.83556   0.09720   0.00000  Uiso   1.00
C354   C     0.06024   0.77686   0.41388   0.00000  Uiso   1.00
C355   C     0.05375   0.74837   0.45692   0.00000  Uiso   1.00
C356   C     0.09980   0.76139   0.48616   0.00000  Uiso   1.00
Cu357  Cu    0.10710   0.82772   0.24436   0.00000  Uiso   1.00
Cu358  Cu    0.22623   0.83895   0.25565   0.00000  Uiso   1.00
H359   H     0.31049   0.88336   0.09947   0.00000  Uiso   1.00
H360   H     0.09730   0.98712   0.24965   0.00000  Uiso   1.00
H361   H     0.33271   0.79935   0.20601   0.00000  Uiso   1.00
H362   H     0.28654   0.92760   0.44229   0.00000  Uiso   1.00
H363   H     0.32948   0.91324   0.01353   0.00000  Uiso   1.00
H364   H     0.02894   0.76242   0.38778   0.00000  Uiso   1.00
H365   H     0.09950   0.73269   0.01278   0.00000  Uiso   1.00
H366   H     0.20603   0.90591   0.39266   0.00000  Uiso   1.00
N367   N     0.31574   0.84741   0.26416   0.00000  Uiso   1.00
N368   N     0.01759   0.81926   0.23584   0.00000  Uiso   1.00
O369   O     0.12797   0.90474   0.24633   0.00000  Uiso   1.00
O370   O     0.22858   0.91422   0.25587   0.00000  Uiso   1.00
O371   O     0.09181   0.82627   0.31840   0.00000  Uiso   1.00
O372   O     0.19242   0.83575   0.32793   0.00000  Uiso   1.00
O373   O     0.10476   0.75245   0.24414   0.00000  Uiso   1.00
O374   O     0.20536   0.76193   0.25367   0.00000  Uiso   1.00
O375   O     0.14092   0.83092   0.17207   0.00000  Uiso   1.00
O376   O     0.24152   0.84040   0.18161   0.00000  Uiso   1.00
C377   C     0.00112   0.87292   0.30832   0.00000  Uiso   1.00
H378   H     0.03283   0.91112   0.30643   0.00000  Uiso   1.00
O379   O     0.31240   0.85304   0.34947   0.00000  Uiso   1.00
C380   C     0.11238   0.78186   0.09029   0.00000  Uiso   1.00
H381   H     0.11036   0.74776   0.11156   0.00000  Uiso   1.00
O382   O     0.06392   0.79541   0.08934   0.00000  Uiso   1.00
O383   O     0.00759   0.70313   0.46673   0.00000  Uiso   1.00
C384   C     0.28303   0.71754   0.48547   0.00000  Uiso   1.00
H385   H     0.26834   0.73639   0.45590   0.00000  Uiso   1.00
H386   H     0.28463   0.74395   0.01999   0.00000  Uiso   1.00
H387   H     0.24671   0.68142   0.49653   0.00000  Uiso   1.00
O388   O     0.25474   0.68481   0.23999   0.00000  Uiso   1.00
C389   C     0.28563   0.68192   0.18873   0.00000  Uiso   1.00
H390   H     0.26326   0.70016   0.16372   0.00000  Uiso   1.00
H391   H     0.28719   0.97401   0.17544   0.00000  Uiso   1.00
H392   H     0.00144   0.70427   0.18524   0.00000  Uiso   1.00
C393   C     0.51588   0.93317   0.24960   0.00000  Uiso   1.00
C394   C     0.47874   0.80921   0.47985   0.00000  Uiso   1.00
C395   C     0.48577   0.83715   0.43528   0.00000  Uiso   1.00
C396   C     0.51991   0.82882   0.01450   0.00000  Uiso   1.00
C397   C     0.57421   0.86874   0.49792   0.00000  Uiso   1.00
C398   C     0.58051   0.89508   0.45361   0.00000  Uiso   1.00
C399   C     0.53472   0.88184   0.42467   0.00000  Uiso   1.00
C400   C     0.50747   0.81382   0.06600   0.00000  Uiso   1.00
C401   C     0.60952   0.86723   0.07623   0.00000  Uiso   1.00
C402   C     0.44550   0.81833   0.40073   0.00000  Uiso   1.00
C403   C     0.52709   0.98884   0.24452   0.00000  Uiso   1.00
C404   C     0.46636   0.83032   0.34683   0.00000  Uiso   1.00
C405   C     0.47791   0.67743   0.24700   0.00000  Uiso   1.00
C406   C     0.48535   0.73334   0.24775   0.00000  Uiso   1.00
C407   C     0.53307   0.83400   0.15298   0.00000  Uiso   1.00
C408   C     0.62016   0.88458   0.02727   0.00000  Uiso   1.00
C409   C     0.55174   0.83556   0.09720   0.00000  Uiso   1.00
C410   C     0.39357   0.77686   0.41388   0.00000  Uiso   1.00
C411   C     0.38708   0.74837   0.45692   0.00000  Uiso   1.00
C412   C     0.43314   0.76139   0.48616   0.00000  Uiso   1.00
Cu413  Cu    0.44043   0.82772   0.24436   0.00000  Uiso   1.00
Cu414  Cu    0.55957   0.83895   0.25565   0.00000  Uiso   1.00
H415   H     0.64383   0.88336   0.09947   0.00000  Uiso   1.00
H416   H     0.43063   0.98712   0.24965   0.00000  Uiso   1.00
H417   H     0.66604   0.79935   0.20601   0.00000  Uiso   1.00
H418   H     0.61987   0.92760   0.44229   0.00000  Uiso   1.00
H419   H     0.66282   0.91324   0.01353   0.00000  Uiso   1.00
H420   H     0.36227   0.76242   0.38778   0.00000  Uiso   1.00
H421   H     0.43283   0.73269   0.01278   0.00000  Uiso   1.00
H422   H     0.53936   0.90591   0.39266   0.00000  Uiso   1.00
N423   N     0.64908   0.84741   0.26416   0.00000  Uiso   1.00
N424   N     0.35092   0.81926   0.23584   0.00000  Uiso   1.00
O425   O     0.46131   0.90474   0.24633   0.00000  Uiso   1.00
O426   O     0.56191   0.91422   0.25587   0.00000  Uiso   1.00
O427   O     0.42515   0.82627   0.31840   0.00000  Uiso   1.00
O428   O     0.52575   0.83575   0.32793   0.00000  Uiso   1.00
O429   O     0.43809   0.75245   0.24414   0.00000  Uiso   1.00
O430   O     0.53869   0.76193   0.25367   0.00000  Uiso   1.00
O431   O     0.47425   0.83092   0.17207   0.00000  Uiso   1.00
O432   O     0.57485   0.84040   0.18161   0.00000  Uiso   1.00
C433   C     0.33445   0.87292   0.30832   0.00000  Uiso   1.00
H434   H     0.36616   0.91112   0.30643   0.00000  Uiso   1.00
O435   O     0.64574   0.85304   0.34947   0.00000  Uiso   1.00
C436   C     0.44571   0.78186   0.09029   0.00000  Uiso   1.00
H437   H     0.44370   0.74776   0.11156   0.00000  Uiso   1.00
O438   O     0.39725   0.79541   0.08934   0.00000  Uiso   1.00
O439   O     0.34093   0.70313   0.46673   0.00000  Uiso   1.00
C440   C     0.61636   0.71754   0.48547   0.00000  Uiso   1.00
H441   H     0.60167   0.73639   0.45590   0.00000  Uiso   1.00
H442   H     0.61796   0.74395   0.01999   0.00000  Uiso   1.00
H443   H     0.58004   0.68142   0.49653   0.00000  Uiso   1.00
O444   O     0.58808   0.68481   0.23999   0.00000  Uiso   1.00
C445   C     0.61897   0.68192   0.18873   0.00000  Uiso   1.00
H446   H     0.59659   0.70016   0.16372   0.00000  Uiso   1.00
H447   H     0.62053   0.97401   0.17544   0.00000  Uiso   1.00
H448   H     0.33478   0.70427   0.18524   0.00000  Uiso   1.00
C449   C     0.84922   0.93317   0.24960   0.00000  Uiso   1.00
C450   C     0.81207   0.80921   0.47985   0.00000  Uiso   1.00
C451   C     0.81910   0.83715   0.43528   0.00000  Uiso   1.00
C452   C     0.85324   0.82882   0.01450   0.00000  Uiso   1.00
C453   C     0.90754   0.86874   0.49792   0.00000  Uiso   1.00
C454   C     0.91384   0.89508   0.45361   0.00000  Uiso   1.00
C455   C     0.86806   0.88184   0.42467   0.00000  Uiso   1.00
C456   C     0.84080   0.81382   0.06600   0.00000  Uiso   1.00
C457   C     0.94286   0.86723   0.07623   0.00000  Uiso   1.00
C458   C     0.77883   0.81833   0.40073   0.00000  Uiso   1.00
C459   C     0.86043   0.98884   0.24452   0.00000  Uiso   1.00
C460   C     0.79969   0.83032   0.34683   0.00000  Uiso   1.00
C461   C     0.81124   0.67743   0.24700   0.00000  Uiso   1.00
C462   C     0.81869   0.73334   0.24775   0.00000  Uiso   1.00
C463   C     0.86641   0.83400   0.15298   0.00000  Uiso   1.00
C464   C     0.95350   0.88458   0.02727   0.00000  Uiso   1.00
C465   C     0.88507   0.83556   0.09720   0.00000  Uiso   1.00
C466   C     0.72691   0.77686   0.41388   0.00000  Uiso   1.00
C467   C     0.72042   0.74837   0.45692   0.00000  Uiso   1.00
C468   C     0.76647   0.76139   0.48616   0.00000  Uiso   1.00
Cu469  Cu    0.77377   0.82772   0.24436   0.00000  Uiso   1.00
Cu470  Cu    0.89290   0.83895   0.25565   0.00000  Uiso   1.00
H471   H     0.97716   0.88336   0.09947   0.00000  Uiso   1.00
H472   H     0.76396   0.98712   0.24965   0.00000  Uiso   1.00
H473   H     0.99938   0.79935   0.20601   0.00000  Uiso   1.00
H474   H     0.95320   0.92760   0.44229   0.00000  Uiso   1.00
H475   H     0.99615   0.91324   0.01353   0.00000  Uiso   1.00
H476   H     0.69561   0.76242   0.38778   0.00000  Uiso   1.00
H477   H     0.76616   0.73269   0.01278   0.00000  Uiso   1.00
H478   H     0.87270   0.90591   0.39266   0.00000  Uiso   1.00
N479   N     0.98241   0.84741   0.26416   0.00000  Uiso   1.00
N480   N     0.68426   0.81926   0.23584   0.00000  Uiso   1.00
O481   O     0.79464   0.90474   0.24633   0.00000  Uiso   1.00
O482   O     0.89524   0.91422   0.25587   0.00000  Uiso   1.00
O483   O     0.75848   0.82627   0.31840   0.00000  Uiso   1.00
O484   O     0.85908   0.83575   0.32793   0.00000  Uiso   1.00
O485   O     0.77142   0.75245   0.24414   0.00000  Uiso   1.00
O486   O     0.87203   0.76193   0.25367   0.00000  Uiso   1.00
O487   O     0.80758   0.83092   0.17207   0.00000  Uiso   1.00
O488   O     0.90819   0.84040   0.18161   0.00000  Uiso   1.00
C489   C     0.66779   0.87292   0.30832   0.00000  Uiso   1.00
H490   H     0.69950   0.91112   0.30643   0.00000  Uiso   1.00
O491   O     0.97907   0.85304   0.34947   0.00000  Uiso   1.00
C492   C     0.77905   0.78186   0.09029   0.00000  Uiso   1.00
H493   H     0.77703   0.74776   0.11156   0.00000  Uiso   1.00
O494   O     0.73059   0.79541   0.08934   0.00000  Uiso   1.00
O495   O     0.67426   0.70313   0.46673   0.00000  Uiso   1.00
C496   C     0.94970   0.71754   0.48547   0.00000  Uiso   1.00
H497   H     0.93500   0.73639   0.45590   0.00000  Uiso   1.00
H498   H     0.95130   0.74395   0.01999   0.00000  Uiso   1.00
H499   H     0.91337   0.68142   0.49653   0.00000  Uiso   1.00
O500   O     0.92141   0.68481   0.23999   0.00000  Uiso   1.00
C501   C     0.95230   0.68192   0.18873   0.00000  Uiso   1.00
H502   H     0.92993   0.70016   0.16372   0.00000  Uiso   1.00
H503   H     0.95386   0.97401   0.17544   0.00000  Uiso   1.00
H504   H     0.66811   0.70427   0.18524   0.00000  Uiso   1.00
C505   C     0.18255   0.26651   0.74960   0.00000  Uiso   1.00
C506   C     0.14541   0.14254   0.97985   0.00000  Uiso   1.00
C507   C     0.15243   0.17049   0.93528   0.00000  Uiso   1.00
C508   C     0.18658   0.16215   0.51450   0.00000  Uiso   1.00
C509   C     0.24088   0.20207   0.99792   0.00000  Uiso   1.00
C510   C     0.24718   0.22842   0.95361   0.00000  Uiso   1.00
C511   C     0.20139   0.21518   0.92467   0.00000  Uiso   1.00
C512   C     0.17413   0.14715   0.56600   0.00000  Uiso   1.00
C513   C     0.27619   0.20056   0.57623   0.00000  Uiso   1.00
C514   C     0.11216   0.15167   0.90073   0.00000  Uiso   1.00
C515   C     0.19376   0.32217   0.74452   0.00000  Uiso   1.00
C516   C     0.13303   0.16365   0.84683   0.00000  Uiso   1.00
C517   C     0.14457   0.01076   0.74700   0.00000  Uiso   1.00
C518   C     0.15202   0.06667   0.74775   0.00000  Uiso   1.00
C519   C     0.19974   0.16734   0.65298   0.00000  Uiso   1.00
C520   C     0.28683   0.21792   0.52727   0.00000  Uiso   1.00
C521   C     0.21841   0.16889   0.59720   0.00000  Uiso   1.00
C522   C     0.06024   0.11020   0.91388   0.00000  Uiso   1.00
C523   C     0.05375   0.08170   0.95692   0.00000  Uiso   1.00
C524   C     0.09980   0.09472   0.98616   0.00000  Uiso   1.00
Cu525  Cu    0.10710   0.16105   0.74436   0.00000  Uiso   1.00
Cu526  Cu    0.22623   0.17228   0.75565   0.00000  Uiso   1.00
H527   H     0.31049   0.21669   0.59947   0.00000  Uiso   1.00
H528   H     0.09730   0.32045   0.74965   0.00000  Uiso   1.00
H529   H     0.33271   0.13268   0.70601   0.00000  Uiso   1.00
H530   H     0.28654   0.26094   0.94229   0.00000  Uiso   1.00
H531   H     0.32948   0.24657   0.51353   0.00000  Uiso   1.00
H532   H     0.02894   0.09575   0.88778   0.00000  Uiso   1.00
H533   H     0.09950   0.06603   0.51278   0.00000  Uiso   1.00
H534   H     0.20603   0.23924   0.89266   0.00000  Uiso   1.00
N535   N     0.31574   0.18074   0.76416   0.00000  Uiso   1.00
N536   N     0.01759   0.15259   0.73584   0.00000  Uiso   1.00
O537   O     0.12797   0.23807   0.74633   0.00000  Uiso   1.00
O538   O     0.22858   0.24755   0.75587   0.00000  Uiso   1.00
O539   O     0.09181   0.15960   0.81840   0.00000  Uiso   1.00
O540   O     0.19242   0.16908   0.82793   0.00000  Uiso   1.00
O541   O     0.10476   0.08578   0.74414   0.00000  Uiso   1.00
O542   O     0.20536   0.09526   0.75367   0.00000  Uiso   1.00
O543   O     0.14092   0.16425   0.67207   0.00000  Uiso   1.00
O544   O     0.24152   0.17373   0.68161   0.00000  Uiso   1.00
C545   C     0.00112   0.20625   0.80832   0.00000  Uiso   1.00
H546   H     0.03283   0.24445   0.80643   0.00000  Uiso   1.00
O547   O     0.31240   0.18637   0.84947   0.00000  Uiso   1.00
C548   C     0.11238   0.11519   0.59029   0.00000  Uiso   1.00
H549   H     0.11036   0.08109   0.61156   0.00000  Uiso   1.00
O550   O     0.06392   0.12874   0.58934   0.00000  Uiso   1.00
O551   O     0.00759   0.03646   0.96673   0.00000  Uiso   1.00
C552   C     0.28303   0.05087   0.98547   0.00000  Uiso   1.00
H553   H     0.26834   0.06973   0.95590   0.00000  Uiso   1.00
H554   H     0.28463   0.07729   0.51999   0.00000  Uiso   1.00
H555   H     0.24671   0.01475   0.99653   0.00000  Uiso   1.00
O556   O     0.25474   0.01814   0.73999   0.00000  Uiso   1.00
C557   C     0.28563   0.01525   0.68873   0.00000  Uiso   1.00
H558   H     0.26326   0.03349   0.66372   0.00000  Uiso   1.00
H559   H     0.28719   0.30735   0.67544   0.00000  Uiso   1.00
H560   H     0.00144   0.03760   0.68524   0.00000  Uiso   1.00
C561   C     0.51588   0.26651   0.74960   0.00000  Uiso   1.00
C562   C     0.47874   0.14254   0.97985   0.00000  Uiso   1.00
C563   C     0.48577   0.17049   0.93528   0.00000  Uiso   1.00
C564   C     0.51991   0.16215   0.51450   0.00000  Uiso   1.00
C565   C     0.57421   0.20207   0.99792   0.00000  Uiso   1.00
C566   C     0.58051   0.22842   0.95361   0.00000  Uiso   1.00
C567   C     0.53472   0.21518   0.92467   0.00000  Uiso   1.00
C568   C     0.50747   0.14715   0.56600   0.00000  Uiso   1.00
C569   C     0.60952   0.20056   0.57623   0.00000  Uiso   1.00
C570   C     0.44550   0.15167   0.90073   0.00000  Uiso   1.00
C571   C     0.52709   0.32217   0.74452   0.00000  Uiso   1.00
C572   C     0.46636   0.16365   0.84683   0.00000  Uiso   1.00
C573   C     0.47791   0.01076   0.74700   0.00000  Uiso   1.00
C574   C     0.48535   0.06667   0.74775   0.00000  Uiso   1.00
C575   C     0.53307   0.16734   0.65298   0.00000  Uiso   1.00
C576   C     0.62016   0.21792   0.52727   0.00000  Uiso   1.00
C577   C     0.55174   0.16889   0.59720   0.00000  Uiso   1.00
C578   C     0.39357   0.11020   0.91388   0.00000  Uiso   1.00
C579   C     0.38708   0.08170   0.95692   0.00000  Uiso   1.00
C580   C     0.43314   0.09472   0.98616   0.00000  Uiso   1.00
Cu581  Cu    0.44043   0.16105   0.74436   0.00000  Uiso   1.00
Cu582  Cu    0.55957   0.17228   0.75565   0.00000  Uiso   1.00
H583   H     0.64383   0.21669   0.59947   0.00000  Uiso   1.00
H584   H     0.43063   0.32045   0.74965   0.00000  Uiso   1.00
H585   H     0.66604   0.13268   0.70601   0.00000  Uiso   1.00
H586   H     0.61987   0.26094   0.94229   0.00000  Uiso   1.00
H587   H     0.66282   0.24657   0.51353   0.00000  Uiso   1.00
H588   H     0.36227   0.09575   0.88778   0.00000  Uiso   1.00
H589   H     0.43283   0.06603   0.51278   0.00000  Uiso   1.00
H590   H     0.53936   0.23924   0.89266   0.00000  Uiso   1.00
N591   N     0.64908   0.18074   0.76416   0.00000  Uiso   1.00
N592   N     0.35092   0.15259   0.73584   0.00000  Uiso   1.00
O593   O     0.46131   0.23807   0.74633   0.00000  Uiso   1.00
O594   O     0.56191   0.24755   0.75587   0.00000  Uiso   1.00
O595   O     0.42515   0.15960   0.81840   0.00000  Uiso   1.00
O596   O     0.52575   0.16908   0.82793   0.00000  Uiso   1.00
O597   O     0.43809   0.08578   0.74414   0.00000  Uiso   1.00
O598   O     0.53869   0.09526   0.75367   0.00000  Uiso   1.00
O599   O     0.47425   0.16425   0.67207   0.00000  Uiso   1.00
O600   O     0.57485   0.17373   0.68161   0.00000  Uiso   1.00
C601   C     0.33445   0.20625   0.80832   0.00000  Uiso   1.00
H602   H     0.36616   0.24445   0.80643   0.00000  Uiso   1.00
O603   O     0.64574   0.18637   0.84947   0.00000  Uiso   1.00
C604   C     0.44571   0.11519   0.59029   0.00000  Uiso   1.00
H605   H     0.44370   0.08109   0.61156   0.00000  Uiso   1.00
O606   O     0.39725   0.12874   0.58934   0.00000  Uiso   1.00
O607   O     0.34093   0.03646   0.96673   0.00000  Uiso   1.00
C608   C     0.61636   0.05087   0.98547   0.00000  Uiso   1.00
H609   H     0.60167   0.06973   0.95590   0.00000  Uiso   1.00
H610   H     0.61796   0.07729   0.51999   0.00000  Uiso   1.00
H611   H     0.58004   0.01475   0.99653   0.00000  Uiso   1.00
O612   O     0.58808   0.01814   0.73999   0.00000  Uiso   1.00
C613   C     0.61897   0.01525   0.68873   0.00000  Uiso   1.00
H614   H     0.59659   0.03349   0.66372   0.00000  Uiso   1.00
H615   H     0.62053   0.30735   0.67544   0.00000  Uiso   1.00
H616   H     0.33478   0.03760   0.68524   0.00000  Uiso   1.00
C617   C     0.84922   0.26651   0.74960   0.00000  Uiso   1.00
C618   C     0.81207   0.14254   0.97985   0.00000  Uiso   1.00
C619   C     0.81910   0.17049   0.93528   0.00000  Uiso   1.00
C620   C     0.85324   0.16215   0.51450   0.00000  Uiso   1.00
C621   C     0.90754   0.20207   0.99792   0.00000  Uiso   1.00
C622   C     0.91384   0.22842   0.95361   0.00000  Uiso   1.00
C623   C     0.86806   0.21518   0.92467   0.00000  Uiso   1.00
C624   C     0.84080   0.14715   0.56600   0.00000  Uiso   1.00
C625   C     0.94286   0.20056   0.57623   0.00000  Uiso   1.00
C626   C     0.77883   0.15167   0.90073   0.00000  Uiso   1.00
C627   C     0.86043   0.32217   0.74452   0.00000  Uiso   1.00
C628   C     0.79969   0.16365   0.84683   0.00000  Uiso   1.00
C629   C     0.81124   0.01076   0.74700   0.00000  Uiso   1.00
C630   C     0.81869   0.06667   0.74775   0.00000  Uiso   1.00
C631   C     0.86641   0.16734   0.65298   0.00000  Uiso   1.00
C632   C     0.95350   0.21792   0.52727   0.00000  Uiso   1.00
C633   C     0.88507   0.16889   0.59720   0.00000  Uiso   1.00
C634   C     0.72691   0.11020   0.91388   0.00000  Uiso   1.00
C635   C     0.72042   0.08170   0.95692   0.00000  Uiso   1.00
C636   C     0.76647   0.09472   0.98616   0.00000  Uiso   1.00
Cu637  Cu    0.77377   0.16105   0.74436   0.00000  Uiso   1.00
Cu638  Cu    0.89290   0.17228   0.75565   0.00000  Uiso   1.00
H639   H     0.97716   0.21669   0.59947   0.00000  Uiso   1.00
H640   H     0.76396   0.32045   0.74965   0.00000  Uiso   1.00
H641   H     0.99938   0.13268   0.70601   0.00000  Uiso   1.00
H642   H     0.95320   0.26094   0.94229   0.00000  Uiso   1.00
H643   H     0.99615   0.24657   0.51353   0.00000  Uiso   1.00
H644   H     0.69561   0.09575   0.88778   0.00000  Uiso   1.00
H645   H     0.76616   0.06603   0.51278   0.00000  Uiso   1.00
H646   H     0.87270   0.23924   0.89266   0.00000  Uiso   1.00
N647   N     0.98241   0.18074   0.76416   0.00000  Uiso   1.00
N648   N     0.68426   0.15259   0.73584   0.00000  Uiso   1.00
O649   O     0.79464   0.23807   0.74633   0.00000  Uiso   1.00
O650   O     0.89524   0.24755   0.75587   0.00000  Uiso   1.00
O651   O     0.75848   0.15960   0.81840   0.00000  Uiso   1.00
O652   O     0.85908   0.16908   0.82793   0.00000  Uiso   1.00
O653   O     0.77142   0.08578   0.74414   0.00000  Uiso   1.00
O654   O     0.87203   0.09526   0.75367   0.00000  Uiso   1.00
O655   O     0.80758   0.16425   0.67207   0.00000  Uiso   1.00
O656   O     0.90819   0.17373   0.68161   0.00000  Uiso   1.00
C657   C     0.66779   0.20625   0.80832   0.00000  Uiso   1.00
H658   H     0.69950   0.24445   0.80643   0.00000  Uiso   1.00
O659   O     0.97907   0.18637   0.84947   0.00000  Uiso   1.00
C660   C     0.77905   0.11519   0.59029   0.00000  Uiso   1.00
H661   H     0.77703   0.08109   0.61156   0.00000  Uiso   1.00
O662   O     0.73059   0.12874   0.58934   0.00000  Uiso   1.00
O663   O     0.67426   0.03646   0.96673   0.00000  Uiso   1.00
C664   C     0.94970   0.05087   0.98547   0.00000  Uiso   1.00
H665   H     0.93500   0.06973   0.95590   0.00000  Uiso   1.00
H666   H     0.95130   0.07729   0.51999   0.00000  Uiso   1.00
H667   H     0.91337   0.01475   0.99653   0.00000  Uiso   1.00
O668   O     0.92141   0.01814   0.73999   0.00000  Uiso   1.00
C669   C     0.95230   0.01525   0.68873   0.00000  Uiso   1.00
H670   H     0.92993   0.03349   0.66372   0.00000  Uiso   1.00
H671   H     0.95386   0.30735   0.67544   0.00000  Uiso   1.00
H672   H     0.66811   0.03760   0.68524   0.00000  Uiso   1.00
C673   C     0.18255   0.59984   0.74960   0.00000  Uiso   1.00
C674   C     0.14541   0.47587   0.97985   0.00000  Uiso   1.00
C675   C     0.15243   0.50382   0.93528   0.00000  Uiso   1.00
C676   C     0.18658   0.49549   0.51450   0.00000  Uiso   1.00
C677   C     0.24088   0.53540   0.99792   0.00000  Uiso   1.00
C678   C     0.24718   0.56175   0.95361   0.00000  Uiso   1.00
C679   C     0.20139   0.54851   0.92467   0.00000  Uiso   1.00
C680   C     0.17413   0.48048   0.56600   0.00000  Uiso   1.00
C681   C     0.27619   0.53389   0.57623   0.00000  Uiso   1.00
C682   C     0.11216   0.48500   0.90073   0.00000  Uiso   1.00
C683   C     0.19376   0.65551   0.74452   0.00000  Uiso   1.00
C684   C     0.13303   0.49698   0.84683   0.00000  Uiso   1.00
C685   C     0.14457   0.34410   0.74700   0.00000  Uiso   1.00
C686   C     0.15202   0.40000   0.74775   0.00000  Uiso   1.00
C687   C     0.19974   0.50067   0.65298   0.00000  Uiso   1.00
C688   C     0.28683   0.55125   0.52727   0.00000  Uiso   1.00
C689   C     0.21841   0.50223   0.59720   0.00000  Uiso   1.00
C690   C     0.06024   0.44353   0.91388   0.00000  Uiso   1.00
C691   C     0.05375   0.41504   0.95692   0.00000  Uiso   1.00
C692   C     0.09980   0.42805   0.98616   0.00000  Uiso   1.00
Cu693  Cu    0.10710   0.49439   0.74436   0.00000  Uiso   1.00
Cu694  Cu    0.22623   0.50561   0.75565   0.00000  Uiso   1.00
H695   H     0.31049   0.55003   0.59947   0.00000  Uiso   1.00
H696   H     0.09730   0.65378   0.74965   0.00000  Uiso   1.00
H697   H     0.33271   0.46601   0.70601   0.00000  Uiso   1.00
H698   H     0.28654   0.59427   0.94229   0.00000  Uiso   1.00
H699   H     0.32948   0.57991   0.51353   0.00000  Uiso   1.00
H700   H     0.02894   0.42908   0.88778   0.00000  Uiso   1.00
H701   H     0.09950   0.39936   0.51278   0.00000  Uiso   1.00
H702   H     0.20603   0.57257   0.89266   0.00000  Uiso   1.00
N703   N     0.31574   0.51407   0.76416   0.00000  Uiso   1.00
N704   N     0.01759   0.48593   0.73584   0.00000  Uiso   1.00
O705   O     0.12797   0.57141   0.74633   0.00000  Uiso   1.00
O706   O     0.22858   0.58089   0.75587   0.00000  Uiso   1.00
O707   O     0.09181   0.49293   0.81840   0.00000  Uiso   1.00
O708   O     0.19242   0.50241   0.82793   0.00000  Uiso   1.00
O709   O     0.10476   0.41911   0.74414   0.00000  Uiso   1.00
O710   O     0.20536   0.42859   0.75367   0.00000  Uiso   1.00
O711   O     0.14092   0.49759   0.67207   0.00000  Uiso   1.00
O712   O     0.24152   0.50707   0.68161   0.00000  Uiso   1.00
C713   C     0.00112   0.53958   0.80832   0.00000  Uiso   1.00
H714   H     0.03283   0.57779   0.80643   0.00000  Uiso   1.00
O715   O     0.31240   0.51971   0.84947   0.00000  Uiso   1.00
C716   C     0.11238   0.44853   0.59029   0.00000  Uiso   1.00
H717   H     0.11036   0.41442   0.61156   0.00000  Uiso   1.00
O718   O     0.06392   0.46208   0.58934   0.00000  Uiso   1.00
O719   O     0.00759   0.36979   0.96673   0.00000  Uiso   1.00
C720   C     0.28303   0.38420   0.98547   0.00000  Uiso   1.00
H721   H     0.26834   0.40306   0.95590   0.00000  Uiso   1.00
H722   H     0.28463   0.41062   0.51999   0.00000  Uiso   1.00
H723   H     0.24671   0.34809   0.99653   0.00000  Uiso   1.00
O724   O     0.25474   0.35148   0.73999   0.00000  Uiso   1.00
C725   C     0.28563   0.34859   0.68873   0.00000  Uiso   1.00
H726   H     0.26326   0.36682   0.66372   0.00000  Uiso   1.00
H727   H     0.28719   0.64068   0.67544   0.00000  Uiso   1.00
H728   H     0.00144   0.37094   0.68524   0.00000  Uiso   1.00
C729   C     0.51588   0.59984   0.74960   0.00000  Uiso   1.00
C730   C     0.47874   0.47587   0.97985   0.00000  Uiso   1.00
C731   C     0.48577   0.50382   0.93528   0.00000  Uiso   1.00
C732   C     0.51991   0.49549   0.51450   0.00000  Uiso   1.00
C733   C     0.57421   0.53540   0.99792   0.00000  Uiso   1.00
C734   C     0.58051   0.56175   0.95361   0.00000  Uiso   1.00
C735   C     0.53472   0.54851   0.92467   0.00000  Uiso   1.00
C736   C     0.50747   0.48048   0.56600   0.00000  Uiso   1.00
C737   C     0.60952   0.53389   0.57623   0.00000  Uiso   1.00
C738   C     0.44550   0.48500   0.90073   0.00000  Uiso   1.00
C739   C     0.52709   0.65551   0.74452   0.00000  Uiso   1.00
C740   C     0.46636   0.49698   0.84683   0.00000  Uiso   1.00
C741   C     0.47791   0.34410   0.74700   0.00000  Uiso   1.00
C742   C     0.48535   0.40000   0.74775   0.00000  Uiso   1.00
C743   C     0.53307   0.50067   0.65298   0.00000  Uiso   1.00
C744   C     0.62016   0.55125   0.52727   0.00000  Uiso   1.00
C745   C     0.55174   0.50223   0.59720   0.00000  Uiso   1.00
C746   C     0.39357   0.44353   0.91388   0.00000  Uiso   1.00
C747   C     0.38708   0.41504   0.95692   0.00000  Uiso   1.00
C748   C     0.43314   0.42805   0.98616   0.00000  Uiso   1.00
Cu749  Cu    0.44043   0.49439   0.74436   0.00000  Uiso   1.00
Cu750  Cu    0.55957   0.50561   0.75565   0.00000  Uiso   1.00
H751   H     0.64383   0.55003   0.59947   0.00000  Uiso   1.00
H752   H     0.43063   0.65378   0.74965   0.00000  Uiso   1.00
H753   H     0.66604   0.46601   0.70601   0.00000  Uiso   1.00
H754   H     0.61987   0.59427   0.94229   0.00000  Uiso   1.00
H755   H     0.66282   0.57991   0.51353   0.00000  Uiso   1.00
H756   H     0.36227   0.42908   0.88778   0.00000  Uiso   1.00
H757   H     0.43283   0.39936   0.51278   0.00000  Uiso   1.00
H758   H     0.53936   0.57257   0.89266   0.00000  Uiso   1.00
N759   N     0.64908   0.51407   0.76416   0.00000  Uiso   1.00
N760   N     0.35092   0.48593   0.73584   0.00000  Uiso   1.00
O761   O     0.46131   0.57141   0.74633   0.00000  Uiso   1.00
O762   O     0.56191   0.58089   0.75587   0.00000  Uiso   1.00
O763   O     0.42515   0.49293   0.81840   0.00000  Uiso   1.00
O764   O     0.52575   0.50241   0.82793   0.00000  Uiso   1.00
O765   O     0.43809   0.41911   0.74414   0.00000  Uiso   1.00
O766   O     0.53869   0.42859   0.75367   0.00000  Uiso   1.00
O767   O     0.47425   0.49759   0.67207   0.00000  Uiso   1.00
O768   O     0.57485   0.50707   0.68161   0.00000  Uiso   1.00
C769   C     0.33445   0.53958   0.80832   0.00000  Uiso   1.00
H770   H     0.36616   0.57779   0.80643   0.00000  Uiso   1.00
O771   O     0.64574   0.51971   0.84947   0.00000  Uiso   1.00
C772   C     0.44571   0.44853   0.59029   0.00000  Uiso   1.00
H773   H     0.44370   0.41442   0.61156   0.00000  Uiso   1.00
O774   O     0.39725   0.46208   0.58934   0.00000  Uiso   1.00
O775   O     0.34093   0.36979   0.96673   0.00000  Uiso   1.00
C776   C     0.61636   0.38420   0.98547   0.00000  Uiso   1.00
H777   H     0.60167   0.40306   0.95590   0.00000  Uiso   1.00
H778   H     0.61796   0.41062   0.51999   0.00000  Uiso   1.00
H779   H     0.58004   0.34809   0.99653   0.00000  Uiso   1.00
O780   O     0.58808   0.35148   0.73999   0.00000  Uiso   1.00
C781   C     0.61897   0.34859   0.68873   0.00000  Uiso   1.00
H782   H     0.59659   0.36682   0.66372   0.00000  Uiso   1.00
H783   H     0.62053   0.64068   0.67544   0.00000  Uiso   1.00
H784   H     0.33478   0.37094   0.68524   0.00000  Uiso   1.00
C785   C     0.84922   0.59984   0.74960   0.00000  Uiso   1.00
C786   C     0.81207   0.47587   0.97985   0.00000  Uiso   1.00
C787   C     0.81910   0.50382   0.93528   0.00000  Uiso   1.00
C788   C     0.85324   0.49549   0.51450   0.00000  Uiso   1.00
C789   C     0.90754   0.53540   0.99792   0.00000  Uiso   1.00
C790   C     0.91384   0.56175   0.95361   0.00000  Uiso   1.00
C791   C     0.86806   0.54851   0.92467   0.00000  Uiso   1.00
C792   C     0.84080   0.48048   0.56600   0.00000  Uiso   1.00
C793   C     0.94286   0.53389   0.57623   0.00000  Uiso   1.00
C794   C     0.77883   0.48500   0.90073   0.00000  Uiso   1.00
C795   C     0.86043   0.65551   0.74452   0.00000  Uiso   1.00
C796   C     0.79969   0.49698   0.84683   0.00000  Uiso   1.00
C797   C     0.81124   0.34410   0.74700   0.00000  Uiso   1.00
C798   C     0.81869   0.40000   0.74775   0.00000  Uiso   1.00
C799   C     0.86641   0.50067   0.65298   0.00000  Uiso   1.00
C800   C     0.95350   0.55125   0.52727   0.00000  Uiso   1.00
C801   C     0.88507   0.50223   0.59720   0.00000  Uiso   1.00
C802   C     0.72691   0.44353   0.91388   0.00000  Uiso   1.00
C803   C     0.72042   0.41504   0.95692   0.00000  Uiso   1.00
C804   C     0.76647   0.42805   0.98616   0.00000  Uiso   1.00
Cu805  Cu    0.77377   0.49439   0.74436   0.00000  Uiso   1.00
Cu806  Cu    0.89290   0.50561   0.75565   0.00000  Uiso   1.00
H807   H     0.97716   0.55003   0.59947   0.00000  Uiso   1.00
H808   H     0.76396   0.65378   0.74965   0.00000  Uiso   1.00
H809   H     0.99938   0.46601   0.70601   0.00000  Uiso   1.00
H810   H     0.95320   0.59427   0.94229   0.00000  Uiso   1.00
H811   H     0.99615   0.57991   0.51353   0.00000  Uiso   1.00
H812   H     0.69561   0.42908   0.88778   0.00000  Uiso   1.00
H813   H     0.76616   0.39936   0.51278   0.00000  Uiso   1.00
H814   H     0.87270   0.57257   0.89266   0.00000  Uiso   1.00
N815   N     0.98241   0.51407   0.76416   0.00000  Uiso   1.00
N816   N     0.68426   0.48593   0.73584   0.00000  Uiso   1.00
O817   O     0.79464   0.57141   0.74633   0.00000  Uiso   1.00
O818   O     0.89524   0.58089   0.75587   0.00000  Uiso   1.00
O819   O     0.75848   0.49293   0.81840   0.00000  Uiso   1.00
O820   O     0.85908   0.50241   0.82793   0.00000  Uiso   1.00
O821   O     0.77142   0.41911   0.74414   0.00000  Uiso   1.00
O822   O     0.87203   0.42859   0.75367   0.00000  Uiso   1.00
O823   O     0.80758   0.49759   0.67207   0.00000  Uiso   1.00
O824   O     0.90819   0.50707   0.68161   0.00000  Uiso   1.00
C825   C     0.66779   0.53958   0.80832   0.00000  Uiso   1.00
H826   H     0.69950   0.57779   0.80643   0.00000  Uiso   1.00
O827   O     0.97907   0.51971   0.84947   0.00000  Uiso   1.00
C828   C     0.77905   0.44853   0.59029   0.00000  Uiso   1.00
H829   H     0.77703   0.41442   0.61156   0.00000  Uiso   1.00
O830   O     0.73059   0.46208   0.58934   0.00000  Uiso   1.00
O831   O     0.67426   0.36979   0.96673   0.00000  Uiso   1.00
C832   C     0.94970   0.38420   0.98547   0.00000  Uiso   1.00
H833   H     0.93500   0.40306   0.95590   0.00000  Uiso   1.00
H834   H     0.95130   0.41062   0.51999   0.00000  Uiso   1.00
H835   H     0.91337   0.34809   0.99653   0.00000  Uiso   1.00
O836   O     0.92141   0.35148   0.73999   0.00000  Uiso   1.00
C837   C     0.95230   0.34859   0.68873   0.00000  Uiso   1.00
H838   H     0.92993   0.36682   0.66372   0.00000  Uiso   1.00
H839   H     0.95386   0.64068   0.67544   0.00000  Uiso   1.00
H840   H     0.66811   0.37094   0.68524   0.00000  Uiso   1.00
C841   C     0.18255   0.93317   0.74960   0.00000  Uiso   1.00
C842   C     0.14541   0.80921   0.97985   0.00000  Uiso   1.00
C843   C     0.15243   0.83715   0.93528   0.00000  Uiso   1.00
C844   C     0.18658   0.82882   0.51450   0.00000  Uiso   1.00
C845   C     0.24088   0.86874   0.99792   0.00000  Uiso   1.00
C846   C     0.24718   0.89508   0.95361   0.00000  Uiso   1.00
C847   C     0.20139   0.88184   0.92467   0.00000  Uiso   1.00
C848   C     0.17413   0.81382   0.56600   0.00000  Uiso   1.00
C849   C     0.27619   0.86723   0.57623   0.00000  Uiso   1.00
C850   C     0.11216   0.81833   0.90073   0.00000  Uiso   1.00
C851   C     0.19376   0.98884   0.74452   0.00000  Uiso   1.00
C852   C     0.13303   0.83032   0.84683   0.00000  Uiso   1.00
C853   C     0.14457   0.67743   0.74700   0.00000  Uiso   1.00
C854   C     0.15202   0.73334   0.74775   0.00000  Uiso   1.00
C855   C     0.19974   0.83400   0.65298   0.00000  Uiso   1.00
C856   C     0.28683   0.88458   0.52727   0.00000  Uiso   1.00
C857   C     0.21841   0.83556   0.59720   0.00000  Uiso   1.00
C858   C     0.06024   0.77686   0.91388   0.00000  Uiso   1.00
C859   C     0.05375   0.74837   0.95692   0.00000  Uiso   1.00
C860   C     0.09980   0.76139   0.98616   0.00000  Uiso   1.00
Cu861  Cu    0.10710   0.82772   0.74436   0.00000  Uiso   1.00
Cu862  Cu    0.22623   0.83895   0.75565   0.00000  Uiso   1.00
H863   H     0.31049   0.88336   0.59947   0.00000  Uiso   1.00
H864   H     0.09730   0.98712   0.74965   0.00000  Uiso   1.00
H865   H     0.33271   0.79935   0.70601   0.00000  Uiso   1.00
H866   H     0.28654   0.92760   0.94229   0.00000  Uiso   1.00
H867   H     0.32948   0.91324   0.51353   0.00000  Uiso   1.00
H868   H     0.02894   0.76242   0.88778   0.00000  Uiso   1.00
H869   H     0.09950   0.73269   0.51278   0.00000  Uiso   1.00
H870   H     0.20603   0.90591   0.89266   0.00000  Uiso   1.00
N871   N     0.31574   0.84741   0.76416   0.00000  Uiso   1.00
N872   N     0.01759   0.81926   0.73584   0.00000  Uiso   1.00
O873   O     0.12797   0.90474   0.74633   0.00000  Uiso   1.00
O874   O     0.22858   0.91422   0.75587   0.00000  Uiso   1.00
O875   O     0.09181   0.82627   0.81840   0.00000  Uiso   1.00
O876   O     0.19242   0.83575   0.82793   0.00000  Uiso   1.00
O877   O     0.10476   0.75245   0.74414   0.00000  Uiso   1.00
O878   O     0.20536   0.76193   0.75367   0.00000  Uiso   1.00
O879   O     0.14092   0.83092   0.67207   0.00000  Uiso   1.00
O880   O     0.24152   0.84040   0.68161   0.00000  Uiso   1.00
C881   C     0.00112   0.87292   0.80832   0.00000  Uiso   1.00
H882   H     0.03283   0.91112   0.80643   0.00000  Uiso   1.00
O883   O     0.31240   0.85304   0.84947   0.00000  Uiso   1.00
C884   C     0.11238   0.78186   0.59029   0.00000  Uiso   1.00
H885   H     0.11036   0.74776   0.61156   0.00000  Uiso   1.00
O886   O     0.06392   0.79541   0.58934   0.00000  Uiso   1.00
O887   O     0.00759   0.70313   0.96673   0.00000  Uiso   1.00
C888   C     0.28303   0.71754   0.98547   0.00000  Uiso   1.00
H889   H     0.26834   0.73639   0.95590   0.00000  Uiso   1.00
H890   H     0.28463   0.74395   0.51999   0.00000  Uiso   1.00
H891   H     0.24671   0.68142   0.99653   0.00000  Uiso   1.00
O892   O     0.25474   0.68481   0.73999   0.00000  Uiso   1.00
C893   C     0.28563   0.68192   0.68873   0.00000  Uiso   1.00
H894   H     0.26326   0.70016   0.66372   0.00000  Uiso   1.00
H895   H     0.28719   0.97401   0.67544   0.00000  Uiso   1.00
H896   H     0.00144   0.70427   0.68524   0.00000  Uiso   1.00
C897   C     0.51588   0.93317   0.74960   0.00000  Uiso   1.00
C898   C     0.47874   0.80921   0.97985   0.00000  Uiso   1.00
C899   C     0.48577   0.83715   0.93528   0.00000  Uiso   1.00
C900   C     0.51991   0.82882   0.51450   0.00000  Uiso   1.00
C901   C     0.57421   0.86874   0.99792   0.00000  Uiso   1.00
C902   C     0.58051   0.89508   0.95361   0.00000  Uiso   1.00
C903   C     0.53472   0.88184   0.92467   0.00000  Uiso   1.00
C904   C     0.50747   0.81382   0.56600   0.00000  Uiso   1.00
C905   C     0.60952   0.86723   0.57623   0.00000  Uiso   1.00
C906   C     0.44550   0.81833   0.90073   0.00000  Uiso   1.00
C907   C     0.52709   0.98884   0.74452   0.00000  Uiso   1.00
C908   C     0.46636   0.83032   0.84683   0.00000  Uiso   1.00
C909   C     0.47791   0.67743   0.74700   0.00000  Uiso   1.00
C910   C     0.48535   0.73334   0.74775   0.00000  Uiso   1.00
C911   C     0.53307   0.83400   0.65298   0.00000  Uiso   1.00
C912   C     0.62016   0.88458   0.52727   0.00000  Uiso   1.00
C913   C     0.55174   0.83556   0.59720   0.00000  Uiso   1.00
C914   C     0.39357   0.77686   0.91388   0.00000  Uiso   1.00
C915   C     0.38708   0.74837   0.95692   0.00000  Uiso   1.00
C916   C     0.43314   0.76139   0.98616   0.00000  Uiso   1.00
Cu917  Cu    0.44043   0.82772   0.74436   0.00000  Uiso   1.00
Cu918  Cu    0.55957   0.83895   0.75565   0.00000  Uiso   1.00
H919   H     0.64383   0.88336   0.59947   0.00000  Uiso   1.00
H920   H     0.43063   0.98712   0.74965   0.00000  Uiso   1.00
H921   H     0.66604   0.79935   0.70601   0.00000  Uiso   1.00
H922   H     0.61987   0.92760   0.94229   0.00000  Uiso   1.00
H923   H     0.66282   0.91324   0.51353   0.00000  Uiso   1.00
H924   H     0.36227   0.76242   0.88778   0.00000  Uiso   1.00
H925   H     0.43283   0.73269   0.51278   0.00000  Uiso   1.00
H926   H     0.53936   0.90591   0.89266   0.00000  Uiso   1.00
N927   N     0.64908   0.84741   0.76416   0.00000  Uiso   1.00
N928   N     0.35092   0.81926   0.73584   0.00000  Uiso   1.00
O929   O     0.46131   0.90474   0.74633   0.00000  Uiso   1.00
O930   O     0.56191   0.91422   0.75587   0.00000  Uiso   1.00
O931   O     0.42515   0.82627   0.81840   0.00000  Uiso   1.00
O932   O     0.52575   0.83575   0.82793   0.00000  Uiso   1.00
O933   O     0.43809   0.75245   0.74414   0.00000  Uiso   1.00
O934   O     0.53869   0.76193   0.75367   0.00000  Uiso   1.00
O935   O     0.47425   0.83092   0.67207   0.00000  Uiso   1.00
O936   O     0.57485   0.84040   0.68161   0.00000  Uiso   1.00
C937   C     0.33445   0.87292   0.80832   0.00000  Uiso   1.00
H938   H     0.36616   0.91112   0.80643   0.00000  Uiso   1.00
O939   O     0.64574   0.85304   0.84947   0.00000  Uiso   1.00
C940   C     0.44571   0.78186   0.59029   0.00000  Uiso   1.00
H941   H     0.44370   0.74776   0.61156   0.00000  Uiso   1.00
O942   O     0.39725   0.79541   0.58934   0.00000  Uiso   1.00
O943   O     0.34093   0.70313   0.96673   0.00000  Uiso   1.00
C944   C     0.61636   0.71754   0.98547   0.00000  Uiso   1.00
H945   H     0.60167   0.73639   0.95590   0.00000  Uiso   1.00
H946   H     0.61796   0.74395   0.51999   0.00000  Uiso   1.00
H947   H     0.58004   0.68142   0.99653   0.00000  Uiso   1.00
O948   O     0.58808   0.68481   0.73999   0.00000  Uiso   1.00
C949   C     0.61897   0.68192   0.68873   0.00000  Uiso   1.00
H950   H     0.59659   0.70016   0.66372   0.00000  Uiso   1.00
H951   H     0.62053   0.97401   0.67544   0.00000  Uiso   1.00
H952   H     0.33478   0.70427   0.68524   0.00000  Uiso   1.00
C953   C     0.84922   0.93317   0.74960   0.00000  Uiso   1.00
C954   C     0.81207   0.80921   0.97985   0.00000  Uiso   1.00
C955   C     0.81910   0.83715   0.93528   0.00000  Uiso   1.00
C956   C     0.85324   0.82882   0.51450   0.00000  Uiso   1.00
C957   C     0.90754   0.86874   0.99792   0.00000  Uiso   1.00
C958   C     0.91384   0.89508   0.95361   0.00000  Uiso   1.00
C959   C     0.86806   0.88184   0.92467   0.00000  Uiso   1.00
C960   C     0.84080   0.81382   0.56600   0.00000  Uiso   1.00
C961   C     0.94286   0.86723   0.57623   0.00000  Uiso   1.00
C962   C     0.77883   0.81833   0.90073   0.00000  Uiso   1.00
C963   C     0.86043   0.98884   0.74452   0.00000  Uiso   1.00
C964   C     0.79969   0.83032   0.84683   0.00000  Uiso   1.00
C965   C     0.81124   0.67743   0.74700   0.00000  Uiso   1.00
C966   C     0.81869   0.73334   0.74775   0.00000  Uiso   1.00
C967   C     0.86641   0.83400   0.65298   0.00000  Uiso   1.00
C968   C     0.95350   0.88458   0.52727   0.00000  Uiso   1.00
C969   C     0.88507   0.83556   0.59720   0.00000  Uiso   1.00
C970   C     0.72691   0.77686   0.91388   0.00000  Uiso   1.00
C971   C     0.72042   0.74837   0.95692   0.00000  Uiso   1.00
C972   C     0.76647   0.76139   0.98616   0.00000  Uiso   1.00
Cu973  Cu    0.77377   0.82772   0.74436   0.00000  Uiso   1.00
Cu974  Cu    0.89290   0.83895   0.75565   0.00000  Uiso   1.00
H975   H     0.97716   0.88336   0.59947   0.00000  Uiso   1.00
H976   H     0.76396   0.98712   0.74965   0.00000  Uiso   1.00
H977   H     0.99938   0.79935   0.70601   0.00000  Uiso   1.00
H978   H     0.95320   0.92760   0.94229   0.00000  Uiso   1.00
H979   H     0.99615   0.91324   0.51353   0.00000  Uiso   1.00
H980   H     0.69561   0.76242   0.88778   0.00000  Uiso   1.00
H981   H     0.76616   0.73269   0.51278   0.00000  Uiso   1.00
H982   H     0.87270   0.90591   0.89266   0.00000  Uiso   1.00
N983   N     0.98241   0.84741   0.76416   0.00000  Uiso   1.00
N984   N     0.68426   0.81926   0.73584   0.00000  Uiso   1.00
O985   O     0.79464   0.90474   0.74633   0.00000  Uiso   1.00
O986   O     0.89524   0.91422   0.75587   0.00000  Uiso   1.00
O987   O     0.75848   0.82627   0.81840   0.00000  Uiso   1.00
O988   O     0.85908   0.83575   0.82793   0.00000  Uiso   1.00
O989   O     0.77142   0.75245   0.74414   0.00000  Uiso   1.00
O990   O     0.87203   0.76193   0.75367   0.00000  Uiso   1.00
O991   O     0.80758   0.83092   0.67207   0.00000  Uiso   1.00
O992   O     0.90819   0.84040   0.68161   0.00000  Uiso   1.00
C993   C     0.66779   0.87292   0.80832   0.00000  Uiso   1.00
H994   H     0.69950   0.91112   0.80643   0.00000  Uiso   1.00
O995   O     0.97907   0.85304   0.84947   0.00000  Uiso   1.00
C996   C     0.77905   0.78186   0.59029   0.00000  Uiso   1.00
H997   H     0.77703   0.74776   0.61156   0.00000  Uiso   1.00
O998   O     0.73059   0.79541   0.58934   0.00000  Uiso   1.00
O999   O     0.67426   0.70313   0.96673   0.00000  Uiso   1.00
C1000  C     0.94970   0.71754   0.98547   0.00000  Uiso   1.00
H1001  H     0.93500   0.73639   0.95590   0.00000  Uiso   1.00
H1002  H     0.95130   0.74395   0.51999   0.00000  Uiso   1.00
H1003  H     0.91337   0.68142   0.99653   0.00000  Uiso   1.00
O1004  O     0.92141   0.68481   0.73999   0.00000  Uiso   1.00
C1005  C     0.95230   0.68192   0.68873   0.00000  Uiso   1.00
H1006  H     0.92993   0.70016   0.66372   0.00000  Uiso   1.00
H1007  H     0.95386   0.97401   0.67544   0.00000  Uiso   1.00
H1008  H     0.66811   0.70427   0.68524   0.00000  Uiso   1.00
loop_
_geom_bond_atom_site_label_1
_geom_bond_atom_site_label_2
_geom_bond_distance
_geom_bond_site_symmetry_2
_ccdc_geom_bond_type
C1     O33     1.293   .     A
C1     O34     1.288   .     A
C1     C11     1.431   .     S
C2     C3      1.419   .     A
C2     C20     1.417   .     A
C2     C508    1.435   .     S
C3     C10     1.415   .     A
C3     C7      1.407   .     A
C4     C8      1.426   .     A
C4     C506    1.435   1_554 S
C4     C509    1.424   1_554 S
C5     C6      1.393   .     A
C5     C508    1.424   .     S
C5     C520    1.398   .     S
C6     C7      1.384   .     A
C6     H26     1.084   .     S
C7     H30     1.083   .     S
C8     C17     1.426   .     A
C8     C44     1.487   .     S
C9     C17     1.397   .     A
C9     C16     1.385   .     A
C9     H23     1.084   .     S
C10    C12     1.465   .     S
C10    C18     1.400   .     A
C11    C181    1.341   .     S
C11    O220    1.389   .     S
C12    O36     1.298   .     A
C12    O35     1.302   .     A
C13    C14     1.431   .     S
C13    C347    1.341   1_545 S
C13    H360    1.087   1_545 S
C14    O37     1.294   .     A
C14    O38     1.289   .     A
C15    O39     1.294   .     A
C15    O40     1.309   .     A
C15    C17     1.474   .     S
C16    H27     1.084   .     S
C16    C509    1.398   1_554 S
C18    H28     1.084   .     S
C18    C19     1.393   .     A
C19    C20     1.394   .     A
C19    O47     1.382   .     S
C20    H533    1.078   .     S
Cu21   O35     1.954   .     S
Cu21   O39     1.936   .     S
Cu21   Cu22    2.696   .     S
Cu21   N32     2.026   .     S
Cu21   O33     1.958   .     S
Cu21   O37     1.955   .     S
Cu22   O40     1.954   .     S
Cu22   O34     1.955   .     S
Cu22   N31     2.026   .     S
Cu22   O38     1.958   .     S
Cu22   O36     1.936   .     S
H24    C181    1.087   .     S
H25    N88     1.029   .     S
H29    C524    1.078   1_554 S
N31    N88     1.289   .     S
N31    C97     1.412   .     S
N32    N143    1.289   1_455 S
N32    H137    1.029   1_455 S
C41    H42     1.082   .     S
C41    N143    1.412   1_455 S
C41    O155    1.219   1_455 S
O43    C97     1.219   .     S
C44    H45     1.086   .     S
C44    O46     1.222   .     D
O47    C160    1.411   1_455 S
C48    H49     1.113   .     S
C48    H51     1.109   .     S
C48    O103    1.411   .     S
C48    H554    1.114   .     S
H50    C552    1.114   1_554 S
O52    C53     1.412   .     S
O52    C347    1.389   1_545 S
C53    H54     1.113   .     S
C53    H391    1.113   1_545 S
C53    H112    1.109   .     S
H55    C221    1.113   .     S
H56    C165    1.109   1_455 S
C57    O89     1.293   .     A
C57    O90     1.288   .     A
C57    C67     1.431   .     S
C58    C59     1.419   .     A
C58    C76     1.417   .     A
C58    C564    1.435   .     S
C59    C66     1.415   .     A
C59    C63     1.407   .     A
C60    C64     1.426   .     A
C60    C562    1.435   1_554 S
C60    C565    1.424   1_554 S
C61    C62     1.393   .     A
C61    C564    1.424   .     S
C61    C576    1.398   .     S
C62    C63     1.384   .     A
C62    H82     1.084   .     S
C63    H86     1.083   .     S
C64    C73     1.426   .     A
C64    C100    1.487   .     S
C65    C73     1.397   .     A
C65    C72     1.385   .     A
C65    H79     1.084   .     S
C66    C68     1.465   .     S
C66    C74     1.400   .     A
C67    C237    1.341   .     S
C67    O276    1.389   .     S
C68    O92     1.298   .     A
C68    O91     1.302   .     A
C69    C70     1.431   .     S
C69    C403    1.341   1_545 S
C69    H416    1.087   1_545 S
C70    O93     1.294   .     A
C70    O94     1.289   .     A
C71    O95     1.294   .     A
C71    O96     1.309   .     A
C71    C73     1.474   .     S
C72    H83     1.084   .     S
C72    C565    1.398   1_554 S
C74    H84     1.084   .     S
C74    C75     1.393   .     A
C75    C76     1.394   .     A
C75    O103    1.382   .     S
C76    H589    1.078   .     S
Cu77   O91     1.954   .     S
Cu77   O95     1.936   .     S
Cu77   Cu78    2.696   .     S
Cu77   N88     2.026   .     S
Cu77   O89     1.958   .     S
Cu77   O93     1.955   .     S
Cu78   O96     1.954   .     S
Cu78   O90     1.955   .     S
Cu78   N87     2.026   .     S
Cu78   O94     1.958   .     S
Cu78   O92     1.936   .     S
H80    C237    1.087   .     S
H81    N144    1.029   .     S
H85    C580    1.078   1_554 S
N87    N144    1.289   .     S
N87    C153    1.412   .     S
C97    H98     1.082   .     S
O99    C153    1.219   .     S
C100   H101    1.086   .     S
C100   O102    1.222   .     D
C104   H105    1.113   .     S
C104   H107    1.109   .     S
C104   O159    1.411   .     S
C104   H610    1.114   .     S
H106   C608    1.114   1_554 S
O108   C109    1.412   .     S
O108   C403    1.389   1_545 S
C109   H110    1.113   .     S
C109   H447    1.113   1_545 S
C109   H168    1.109   .     S
H111   C277    1.113   .     S
C113   O145    1.293   .     A
C113   O146    1.288   .     A
C113   C123    1.431   .     S
C114   C115    1.419   .     A
C114   C132    1.417   .     A
C114   C620    1.435   .     S
C115   C122    1.415   .     A
C115   C119    1.407   .     A
C116   C120    1.426   .     A
C116   C618    1.435   1_554 S
C116   C621    1.424   1_554 S
C117   C118    1.393   .     A
C117   C620    1.424   .     S
C117   C632    1.398   .     S
C118   C119    1.384   .     A
C118   H138    1.084   .     S
C119   H142    1.083   .     S
C120   C129    1.426   .     A
C120   C156    1.487   .     S
C121   C129    1.397   .     A
C121   C128    1.385   .     A
C121   H135    1.084   .     S
C122   C124    1.465   .     S
C122   C130    1.400   .     A
C123   C293    1.341   .     S
C123   O332    1.389   .     S
C124   O148    1.298   .     A
C124   O147    1.302   .     A
C125   C126    1.431   .     S
C125   C459    1.341   1_545 S
C125   H472    1.087   1_545 S
C126   O149    1.294   .     A
C126   O150    1.289   .     A
C127   O151    1.294   .     A
C127   O152    1.309   .     A
C127   C129    1.474   .     S
C128   H139    1.084   .     S
C128   C621    1.398   1_554 S
C130   H140    1.084   .     S
C130   C131    1.393   .     A
C131   C132    1.394   .     A
C131   O159    1.382   .     S
C132   H645    1.078   .     S
Cu133  O147    1.954   .     S
Cu133  O151    1.936   .     S
Cu133  Cu134   2.696   .     S
Cu133  N144    2.026   .     S
Cu133  O145    1.958   .     S
Cu133  O149    1.955   .     S
Cu134  O152    1.954   .     S
Cu134  O146    1.955   .     S
Cu134  N143    2.026   .     S
Cu134  O150    1.958   .     S
Cu134  O148    1.936   .     S
H136   C293    1.087   .     S
H137   N32     1.029   1_655 S
H141   C636    1.078   1_554 S
N143   N32     1.289   1_655 S
N143   C41     1.412   1_655 S
C153   H154    1.082   .     S
O155   C41     1.219   1_655 S
C156   H157    1.086   .     S
C156   O158    1.222   .     D
C160   H161    1.113   .     S
C160   H163    1.109   .     S
C160   O47     1.411   1_655 S
C160   H666    1.114   .     S
H162   C664    1.114   1_554 S
O164   C165    1.412   .     S
O164   C459    1.389   1_545 S
C165   H166    1.113   .     S
C165   H503    1.113   1_545 S
C165   H56     1.109   1_655 S
H167   C333    1.113   .     S
C169   O201    1.293   .     A
C169   O202    1.288   .     A
C169   C179    1.431   .     S
C170   C171    1.419   .     A
C170   C188    1.417   .     A
C170   C676    1.435   .     S
C171   C178    1.415   .     A
C171   C175    1.407   .     A
C172   C176    1.426   .     A
C172   C674    1.435   1_554 S
C172   C677    1.424   1_554 S
C173   C174    1.393   .     A
C173   C676    1.424   .     S
C173   C688    1.398   .     S
C174   C175    1.384   .     A
C174   H194    1.084   .     S
C175   H198    1.083   .     S
C176   C185    1.426   .     A
C176   C212    1.487   .     S
C177   C185    1.397   .     A
C177   C184    1.385   .     A
C177   H191    1.084   .     S
C178   C180    1.465   .     S
C178   C186    1.400   .     A
C179   C349    1.341   .     S
C179   O388    1.389   .     S
C180   O204    1.298   .     A
C180   O203    1.302   .     A
C181   C182    1.431   .     S
C182   O205    1.294   .     A
C182   O206    1.289   .     A
C183   O207    1.294   .     A
C183   O208    1.309   .     A
C183   C185    1.474   .     S
C184   H195    1.084   .     S
C184   C677    1.398   1_554 S
C186   H196    1.084   .     S
C186   C187    1.393   .     A
C187   C188    1.394   .     A
C187   O215    1.382   .     S
C188   H701    1.078   .     S
Cu189  O203    1.954   .     S
Cu189  O207    1.936   .     S
Cu189  Cu190   2.696   .     S
Cu189  N200    2.026   .     S
Cu189  O201    1.958   .     S
Cu189  O205    1.955   .     S
Cu190  O208    1.954   .     S
Cu190  O202    1.955   .     S
Cu190  N199    2.026   .     S
Cu190  O206    1.958   .     S
Cu190  O204    1.936   .     S
H192   C349    1.087   .     S
H193   N256    1.029   .     S
H197   C692    1.078   1_554 S
N199   N256    1.289   .     S
N199   C265    1.412   .     S
N200   N311    1.289   1_455 S
N200   H305    1.029   1_455 S
C209   H210    1.082   .     S
C209   N311    1.412   1_455 S
C209   O323    1.219   1_455 S
O211   C265    1.219   .     S
C212   H213    1.086   .     S
C212   O214    1.222   .     D
O215   C328    1.411   1_455 S
C216   H217    1.113   .     S
C216   H219    1.109   .     S
C216   O271    1.411   .     S
C216   H722    1.114   .     S
H218   C720    1.114   1_554 S
O220   C221    1.412   .     S
C221   H222    1.113   .     S
C221   H280    1.109   .     S
H223   C389    1.113   .     S
H224   C333    1.109   1_455 S
C225   O257    1.293   .     A
C225   O258    1.288   .     A
C225   C235    1.431   .     S
C226   C227    1.419   .     A
C226   C244    1.417   .     A
C226   C732    1.435   .     S
C227   C234    1.415   .     A
C227   C231    1.407   .     A
C228   C232    1.426   .     A
C228   C730    1.435   1_554 S
C228   C733    1.424   1_554 S
C229   C230    1.393   .     A
C229   C732    1.424   .     S
C229   C744    1.398   .     S
C230   C231    1.384   .     A
C230   H250    1.084   .     S
C231   H254    1.083   .     S
C232   C241    1.426   .     A
C232   C268    1.487   .     S
C233   C241    1.397   .     A
C233   C240    1.385   .     A
C233   H247    1.084   .     S
C234   C236    1.465   .     S
C234   C242    1.400   .     A
C235   C405    1.341   .     S
C235   O444    1.389   .     S
C236   O260    1.298   .     A
C236   O259    1.302   .     A
C237   C238    1.431   .     S
C238   O261    1.294   .     A
C238   O262    1.289   .     A
C239   O263    1.294   .     A
C239   O264    1.309   .     A
C239   C241    1.474   .     S
C240   H251    1.084   .     S
C240   C733    1.398   1_554 S
C242   H252    1.084   .     S
C242   C243    1.393   .     A
C243   C244    1.394   .     A
C243   O271    1.382   .     S
C244   H757    1.078   .     S
Cu245  O259    1.954   .     S
Cu245  O263    1.936   .     S
Cu245  Cu246   2.696   .     S
Cu245  N256    2.026   .     S
Cu245  O257    1.958   .     S
Cu245  O261    1.955   .     S
Cu246  O264    1.954   .     S
Cu246  O258    1.955   .     S
Cu246  N255    2.026   .     S
Cu246  O262    1.958   .     S
Cu246  O260    1.936   .     S
H248   C405    1.087   .     S
H249   N312    1.029   .     S
H253   C748    1.078   1_554 S
N255   N312    1.289   .     S
N255   C321    1.412   .     S
C265   H266    1.082   .     S
O267   C321    1.219   .     S
C268   H269    1.086   .     S
C268   O270    1.222   .     D
C272   H273    1.113   .     S
C272   H275    1.109   .     S
C272   O327    1.411   .     S
C272   H778    1.114   .     S
H274   C776    1.114   1_554 S
O276   C277    1.412   .     S
C277   H278    1.113   .     S
C277   H336    1.109   .     S
H279   C445    1.113   .     S
C281   O313    1.293   .     A
C281   O314    1.288   .     A
C281   C291    1.431   .     S
C282   C283    1.419   .     A
C282   C300    1.417   .     A
C282   C788    1.435   .     S
C283   C290    1.415   .     A
C283   C287    1.407   .     A
C284   C288    1.426   .     A
C284   C786    1.435   1_554 S
C284   C789    1.424   1_554 S
C285   C286    1.393   .     A
C285   C788    1.424   .     S
C285   C800    1.398   .     S
C286   C287    1.384   .     A
C286   H306    1.084   .     S
C287   H310    1.083   .     S
C288   C297    1.426   .     A
C288   C324    1.487   .     S
C289   C297    1.397   .     A
C289   C296    1.385   .     A
C289   H303    1.084   .     S
C290   C292    1.465   .     S
C290   C298    1.400   .     A
C291   C461    1.341   .     S
C291   O500    1.389   .     S
C292   O316    1.298   .     A
C292   O315    1.302   .     A
C293   C294    1.431   .     S
C294   O317    1.294   .     A
C294   O318    1.289   .     A
C295   O319    1.294   .     A
C295   O320    1.309   .     A
C295   C297    1.474   .     S
C296   H307    1.084   .     S
C296   C789    1.398   1_554 S
C298   H308    1.084   .     S
C298   C299    1.393   .     A
C299   C300    1.394   .     A
C299   O327    1.382   .     S
C300   H813    1.078   .     S
Cu301  O315    1.954   .     S
Cu301  O319    1.936   .     S
Cu301  Cu302   2.696   .     S
Cu301  N312    2.026   .     S
Cu301  O313    1.958   .     S
Cu301  O317    1.955   .     S
Cu302  O320    1.954   .     S
Cu302  O314    1.955   .     S
Cu302  N311    2.026   .     S
Cu302  O318    1.958   .     S
Cu302  O316    1.936   .     S
H304   C461    1.087   .     S
H305   N200    1.029   1_655 S
H309   C804    1.078   1_554 S
N311   N200    1.289   1_655 S
N311   C209    1.412   1_655 S
C321   H322    1.082   .     S
O323   C209    1.219   1_655 S
C324   H325    1.086   .     S
C324   O326    1.222   .     D
C328   H329    1.113   .     S
C328   H331    1.109   .     S
C328   O215    1.411   1_655 S
C328   H834    1.114   .     S
H330   C832    1.114   1_554 S
O332   C333    1.412   .     S
C333   H334    1.113   .     S
C333   H224    1.109   1_655 S
H335   C501    1.113   .     S
C337   O369    1.293   .     A
C337   O370    1.288   .     A
C337   C347    1.431   .     S
C338   C339    1.419   .     A
C338   C356    1.417   .     A
C338   C844    1.435   .     S
C339   C346    1.415   .     A
C339   C343    1.407   .     A
C340   C344    1.426   .     A
C340   C842    1.435   1_554 S
C340   C845    1.424   1_554 S
C341   C342    1.393   .     A
C341   C844    1.424   .     S
C341   C856    1.398   .     S
C342   C343    1.384   .     A
C342   H362    1.084   .     S
C343   H366    1.083   .     S
C344   C353    1.426   .     A
C344   C380    1.487   .     S
C345   C353    1.397   .     A
C345   C352    1.385   .     A
C345   H359    1.084   .     S
C346   C348    1.465   .     S
C346   C354    1.400   .     A
C347   C13     1.341   1_565 S
C347   O52     1.389   1_565 S
C348   O372    1.298   .     A
C348   O371    1.302   .     A
C349   C350    1.431   .     S
C350   O373    1.294   .     A
C350   O374    1.289   .     A
C351   O375    1.294   .     A
C351   O376    1.309   .     A
C351   C353    1.474   .     S
C352   H363    1.084   .     S
C352   C845    1.398   1_554 S
C354   H364    1.084   .     S
C354   C355    1.393   .     A
C355   C356    1.394   .     A
C355   O383    1.382   .     S
C356   H869    1.078   .     S
Cu357  O371    1.954   .     S
Cu357  O375    1.936   .     S
Cu357  Cu358   2.696   .     S
Cu357  N368    2.026   .     S
Cu357  O369    1.958   .     S
Cu357  O373    1.955   .     S
Cu358  O376    1.954   .     S
Cu358  O370    1.955   .     S
Cu358  N367    2.026   .     S
Cu358  O374    1.958   .     S
Cu358  O372    1.936   .     S
H360   C13     1.087   1_565 S
H361   N424    1.029   .     S
H365   C860    1.078   1_554 S
N367   N424    1.289   .     S
N367   C433    1.412   .     S
N368   N479    1.289   1_455 S
N368   H473    1.029   1_455 S
C377   H378    1.082   .     S
C377   N479    1.412   1_455 S
C377   O491    1.219   1_455 S
O379   C433    1.219   .     S
C380   H381    1.086   .     S
C380   O382    1.222   .     D
O383   C496    1.411   1_455 S
C384   H385    1.113   .     S
C384   H387    1.109   .     S
C384   O439    1.411   .     S
C384   H890    1.114   .     S
H386   C888    1.114   1_554 S
O388   C389    1.412   .     S
C389   H390    1.113   .     S
C389   H448    1.109   .     S
H391   C53     1.113   1_565 S
H392   C501    1.109   1_455 S
C393   O425    1.293   .     A
C393   O426    1.288   .     A
C393   C403    1.431   .     S
C394   C395    1.419   .     A
C394   C412    1.417   .     A
C394   C900    1.435   .     S
C395   C402    1.415   .     A
C395   C399    1.407   .     A
C396   C400    1.426   .     A
C396   C898    1.435   1_554 S
C396   C901    1.424   1_554 S
C397   C398    1.393   .     A
C397   C900    1.424   .     S
C397   C912    1.398   .     S
C398   C399    1.384   .     A
C398   H418    1.084   .     S
C399   H422    1.083   .     S
C400   C409    1.426   .     A
C400   C436    1.487   .     S
C401   C409    1.397   .     A
C401   C408    1.385   .     A
C401   H415    1.084   .     S
C402   C404    1.465   .     S
C402   C410    1.400   .     A
C403   C69     1.341   1_565 S
C403   O108    1.389   1_565 S
C404   O428    1.298   .     A
C404   O427    1.302   .     A
C405   C406    1.431   .     S
C406   O429    1.294   .     A
C406   O430    1.289   .     A
C407   O431    1.294   .     A
C407   O432    1.309   .     A
C407   C409    1.474   .     S
C408   H419    1.084   .     S
C408   C901    1.398   1_554 S
C410   H420    1.084   .     S
C410   C411    1.393   .     A
C411   C412    1.394   .     A
C411   O439    1.382   .     S
C412   H925    1.078   .     S
Cu413  O427    1.954   .     S
Cu413  O431    1.936   .     S
Cu413  Cu414   2.696   .     S
Cu413  N424    2.026   .     S
Cu413  O425    1.958   .     S
Cu413  O429    1.955   .     S
Cu414  O432    1.954   .     S
Cu414  O426    1.955   .     S
Cu414  N423    2.026   .     S
Cu414  O430    1.958   .     S
Cu414  O428    1.936   .     S
H416   C69     1.087   1_565 S
H417   N480    1.029   .     S
H421   C916    1.078   1_554 S
N423   N480    1.289   .     S
N423   C489    1.412   .     S
C433   H434    1.082   .     S
O435   C489    1.219   .     S
C436   H437    1.086   .     S
C436   O438    1.222   .     D
C440   H441    1.113   .     S
C440   H443    1.109   .     S
C440   O495    1.411   .     S
C440   H946    1.114   .     S
H442   C944    1.114   1_554 S
O444   C445    1.412   .     S
C445   H446    1.113   .     S
C445   H504    1.109   .     S
H447   C109    1.113   1_565 S
C449   O481    1.293   .     A
C449   O482    1.288   .     A
C449   C459    1.431   .     S
C450   C451    1.419   .     A
C450   C468    1.417   .     A
C450   C956    1.435   .     S
C451   C458    1.415   .     A
C451   C455    1.407   .     A
C452   C456    1.426   .     A
C452   C954    1.435   1_554 S
C452   C957    1.424   1_554 S
C453   C454    1.393   .     A
C453   C956    1.424   .     S
C453   C968    1.398   .     S
C454   C455    1.384   .     A
C454   H474    1.084   .     S
C455   H478    1.083   .     S
C456   C465    1.426   .     A
C456   C492    1.487   .     S
C457   C465    1.397   .     A
C457   C464    1.385   .     A
C457   H471    1.084   .     S
C458   C460    1.465   .     S
C458   C466    1.400   .     A
C459   C125    1.341   1_565 S
C459   O164    1.389   1_565 S
C460   O484    1.298   .     A
C460   O483    1.302   .     A
C461   C462    1.431   .     S
C462   O485    1.294   .     A
C462   O486    1.289   .     A
C463   O487    1.294   .     A
C463   O488    1.309   .     A
C463   C465    1.474   .     S
C464   H475    1.084   .     S
C464   C957    1.398   1_554 S
C466   H476    1.084   .     S
C466   C467    1.393   .     A
C467   C468    1.394   .     A
C467   O495    1.382   .     S
C468   H981    1.078   .     S
Cu469  O483    1.954   .     S
Cu469  O487    1.936   .     S
Cu469  Cu470   2.696   .     S
Cu469  N480    2.026   .     S
Cu469  O481    1.958   .     S
Cu469  O485    1.955   .     S
Cu470  O488    1.954   .     S
Cu470  O482    1.955   .     S
Cu470  N479    2.026   .     S
Cu470  O486    1.958   .     S
Cu470  O484    1.936   .     S
H472   C125    1.087   1_565 S
H473   N368    1.029   1_655 S
H477   C972    1.078   1_554 S
N479   N368    1.289   1_655 S
N479   C377    1.412   1_655 S
C489   H490    1.082   .     S
O491   C377    1.219   1_655 S
C492   H493    1.086   .     S
C492   O494    1.222   .     D
C496   H497    1.113   .     S
C496   H499    1.109   .     S
C496   O383    1.411   1_655 S
C496   H1002   1.114   .     S
H498   C1000   1.114   1_554 S
O500   C501    1.412   .     S
C501   H502    1.113   .     S
C501   H392    1.109   1_655 S
H503   C165    1.113   1_565 S
C505   O537    1.293   .     A
C505   O538    1.288   .     A
C505   C515    1.431   .     S
C506   C507    1.419   .     A
C506   C524    1.417   .     A
C506   C4      1.435   1_556 S
C507   C514    1.415   .     A
C507   C511    1.407   .     A
C508   C512    1.426   .     A
C509   C510    1.393   .     A
C509   C4      1.424   1_556 S
C509   C16     1.398   1_556 S
C510   C511    1.384   .     A
C510   H530    1.084   .     S
C511   H534    1.083   .     S
C512   C521    1.426   .     A
C512   C548    1.487   .     S
C513   C521    1.397   .     A
C513   C520    1.385   .     A
C513   H527    1.084   .     S
C514   C516    1.465   .     S
C514   C522    1.400   .     A
C515   C685    1.341   .     S
C515   O724    1.389   .     S
C516   O540    1.298   .     A
C516   O539    1.302   .     A
C517   C518    1.431   .     S
C517   C851    1.341   1_545 S
C517   H864    1.087   1_545 S
C518   O541    1.294   .     A
C518   O542    1.289   .     A
C519   O543    1.294   .     A
C519   O544    1.309   .     A
C519   C521    1.474   .     S
C520   H531    1.084   .     S
C522   H532    1.084   .     S
C522   C523    1.393   .     A
C523   C524    1.394   .     A
C523   O551    1.382   .     S
C524   H29     1.078   1_556 S
Cu525  O539    1.954   .     S
Cu525  O543    1.936   .     S
Cu525  Cu526   2.696   .     S
Cu525  N536    2.026   .     S
Cu525  O537    1.958   .     S
Cu525  O541    1.955   .     S
Cu526  O544    1.954   .     S
Cu526  O538    1.955   .     S
Cu526  N535    2.026   .     S
Cu526  O542    1.958   .     S
Cu526  O540    1.936   .     S
H528   C685    1.087   .     S
H529   N592    1.029   .     S
N535   N592    1.289   .     S
N535   C601    1.412   .     S
N536   N647    1.289   1_455 S
N536   H641    1.029   1_455 S
C545   H546    1.082   .     S
C545   N647    1.412   1_455 S
C545   O659    1.219   1_455 S
O547   C601    1.219   .     S
C548   H549    1.086   .     S
C548   O550    1.222   .     D
O551   C664    1.411   1_455 S
C552   H553    1.113   .     S
C552   H555    1.109   .     S
C552   O607    1.411   .     S
C552   H50     1.114   1_556 S
O556   C557    1.412   .     S
O556   C851    1.389   1_545 S
C557   H558    1.113   .     S
C557   H895    1.113   1_545 S
C557   H616    1.109   .     S
H559   C725    1.113   .     S
H560   C669    1.109   1_455 S
C561   O593    1.293   .     A
C561   O594    1.288   .     A
C561   C571    1.431   .     S
C562   C563    1.419   .     A
C562   C580    1.417   .     A
C562   C60     1.435   1_556 S
C563   C570    1.415   .     A
C563   C567    1.407   .     A
C564   C568    1.426   .     A
C565   C566    1.393   .     A
C565   C60     1.424   1_556 S
C565   C72     1.398   1_556 S
C566   C567    1.384   .     A
C566   H586    1.084   .     S
C567   H590    1.083   .     S
C568   C577    1.426   .     A
C568   C604    1.487   .     S
C569   C577    1.397   .     A
C569   C576    1.385   .     A
C569   H583    1.084   .     S
C570   C572    1.465   .     S
C570   C578    1.400   .     A
C571   C741    1.341   .     S
C571   O780    1.389   .     S
C572   O596    1.298   .     A
C572   O595    1.302   .     A
C573   C574    1.431   .     S
C573   C907    1.341   1_545 S
C573   H920    1.087   1_545 S
C574   O597    1.294   .     A
C574   O598    1.289   .     A
C575   O599    1.294   .     A
C575   O600    1.309   .     A
C575   C577    1.474   .     S
C576   H587    1.084   .     S
C578   H588    1.084   .     S
C578   C579    1.393   .     A
C579   C580    1.394   .     A
C579   O607    1.382   .     S
C580   H85     1.078   1_556 S
Cu581  O595    1.954   .     S
Cu581  O599    1.936   .     S
Cu581  Cu582   2.696   .     S
Cu581  N592    2.026   .     S
Cu581  O593    1.958   .     S
Cu581  O597    1.955   .     S
Cu582  O600    1.954   .     S
Cu582  O594    1.955   .     S
Cu582  N591    2.026   .     S
Cu582  O598    1.958   .     S
Cu582  O596    1.936   .     S
H584   C741    1.087   .     S
H585   N648    1.029   .     S
N591   N648    1.289   .     S
N591   C657    1.412   .     S
C601   H602    1.082   .     S
O603   C657    1.219   .     S
C604   H605    1.086   .     S
C604   O606    1.222   .     D
C608   H609    1.113   .     S
C608   H611    1.109   .     S
C608   O663    1.411   .     S
C608   H106    1.114   1_556 S
O612   C613    1.412   .     S
O612   C907    1.389   1_545 S
C613   H614    1.113   .     S
C613   H951    1.113   1_545 S
C613   H672    1.109   .     S
H615   C781    1.113   .     S
C617   O649    1.293   .     A
C617   O650    1.288   .     A
C617   C627    1.431   .     S
C618   C619    1.419   .     A
C618   C636    1.417   .     A
C618   C116    1.435   1_556 S
C619   C626    1.415   .     A
C619   C623    1.407   .     A
C620   C624    1.426   .     A
C621   C622    1.393   .     A
C621   C116    1.424   1_556 S
C621   C128    1.398   1_556 S
C622   C623    1.384   .     A
C622   H642    1.084   .     S
C623   H646    1.083   .     S
C624   C633    1.426   .     A
C624   C660    1.487   .     S
C625   C633    1.397   .     A
C625   C632    1.385   .     A
C625   H639    1.084   .     S
C626   C628    1.465   .     S
C626   C634    1.400   .     A
C627   C797    1.341   .     S
C627   O836    1.389   .     S
C628   O652    1.298   .     A
C628   O651    1.302   .     A
C629   C630    1.431   .     S
C629   C963    1.341   1_545 S
C629   H976    1.087   1_545 S
C630   O653    1.294   .     A
C630   O654    1.289   .     A
C631   O655    1.294   .     A
C631   O656    1.309   .     A
C631   C633    1.474   .     S
C632   H643    1.084   .     S
C634   H644    1.084   .     S
C634   C635    1.393   .     A
C635   C636    1.394   .     A
C635   O663    1.382   .     S
C636   H141    1.078   1_556 S
Cu637  O651    1.954   .     S
Cu637  O655    1.936   .     S
Cu637  Cu638   2.696   .     S
Cu637  N648    2.026   .     S
Cu637  O649    1.958   .     S
Cu637  O653    1.955   .     S
Cu638  O656    1.954   .     S
Cu638  O650    1.955   .     S
Cu638  N647    2.026   .     S
Cu638  O654    1.958   .     S
Cu638  O652    1.936   .     S
H640   C797    1.087   .     S
H641   N536    1.029   1_655 S
N647   N536    1.289   1_655 S
N647   C545    1.412   1_655 S
C657   H658    1.082   .     S
O659   C545    1.219   1_655 S
C660   H661    1.086   .     S
C660   O662    1.222   .     D
C664   H665    1.113   .     S
C664   H667    1.109   .     S
C664   O551    1.411   1_655 S
C664   H162    1.114   1_556 S
O668   C669    1.412   .     S
O668   C963    1.389   1_545 S
C669   H670    1.113   .     S
C669   H1007   1.113   1_545 S
C669   H560    1.109   1_655 S
H671   C837    1.113   .     S
C673   O705    1.293   .     A
C673   O706    1.288   .     A
C673   C683    1.431   .     S
C674   C675    1.419   .     A
C674   C692    1.417   .     A
C674   C172    1.435   1_556 S
C675   C682    1.415   .     A
C675   C679    1.407   .     A
C676   C680    1.426   .     A
C677   C678    1.393   .     A
C677   C172    1.424   1_556 S
C677   C184    1.398   1_556 S
C678   C679    1.384   .     A
C678   H698    1.084   .     S
C679   H702    1.083   .     S
C680   C689    1.426   .     A
C680   C716    1.487   .     S
C681   C689    1.397   .     A
C681   C688    1.385   .     A
C681   H695    1.084   .     S
C682   C684    1.465   .     S
C682   C690    1.400   .     A
C683   C853    1.341   .     S
C683   O892    1.389   .     S
C684   O708    1.298   .     A
C684   O707    1.302   .     A
C685   C686    1.431   .     S
C686   O709    1.294   .     A
C686   O710    1.289   .     A
C687   O711    1.294   .     A
C687   O712    1.309   .     A
C687   C689    1.474   .     S
C688   H699    1.084   .     S
C690   H700    1.084   .     S
C690   C691    1.393   .     A
C691   C692    1.394   .     A
C691   O719    1.382   .     S
C692   H197    1.078   1_556 S
Cu693  O707    1.954   .     S
Cu693  O711    1.936   .     S
Cu693  Cu694   2.696   .     S
Cu693  N704    2.026   .     S
Cu693  O705    1.958   .     S
Cu693  O709    1.955   .     S
Cu694  O712    1.954   .     S
Cu694  O706    1.955   .     S
Cu694  N703    2.026   .     S
Cu694  O710    1.958   .     S
Cu694  O708    1.936   .     S
H696   C853    1.087   .     S
H697   N760    1.029   .     S
N703   N760    1.289   .     S
N703   C769    1.412   .     S
N704   N815    1.289   1_455 S
N704   H809    1.029   1_455 S
C713   H714    1.082   .     S
C713   N815    1.412   1_455 S
C713   O827    1.219   1_455 S
O715   C769    1.219   .     S
C716   H717    1.086   .     S
C716   O718    1.222   .     D
O719   C832    1.411   1_455 S
C720   H721    1.113   .     S
C720   H723    1.109   .     S
C720   O775    1.411   .     S
C720   H218    1.114   1_556 S
O724   C725    1.412   .     S
C725   H726    1.113   .     S
C725   H784    1.109   .     S
H727   C893    1.113   .     S
H728   C837    1.109   1_455 S
C729   O761    1.293   .     A
C729   O762    1.288   .     A
C729   C739    1.431   .     S
C730   C731    1.419   .     A
C730   C748    1.417   .     A
C730   C228    1.435   1_556 S
C731   C738    1.415   .     A
C731   C735    1.407   .     A
C732   C736    1.426   .     A
C733   C734    1.393   .     A
C733   C228    1.424   1_556 S
C733   C240    1.398   1_556 S
C734   C735    1.384   .     A
C734   H754    1.084   .     S
C735   H758    1.083   .     S
C736   C745    1.426   .     A
C736   C772    1.487   .     S
C737   C745    1.397   .     A
C737   C744    1.385   .     A
C737   H751    1.084   .     S
C738   C740    1.465   .     S
C738   C746    1.400   .     A
C739   C909    1.341   .     S
C739   O948    1.389   .     S
C740   O764    1.298   .     A
C740   O763    1.302   .     A
C741   C742    1.431   .     S
C742   O765    1.294   .     A
C742   O766    1.289   .     A
C743   O767    1.294   .     A
C743   O768    1.309   .     A
C743   C745    1.474   .     S
C744   H755    1.084   .     S
C746   H756    1.084   .     S
C746   C747    1.393   .     A
C747   C748    1.394   .     A
C747   O775    1.382   .     S
C748   H253    1.078   1_556 S
Cu749  O763    1.954   .     S
Cu749  O767    1.936   .     S
Cu749  Cu750   2.696   .     S
Cu749  N760    2.026   .     S
Cu749  O761    1.958   .     S
Cu749  O765    1.955   .     S
Cu750  O768    1.954   .     S
Cu750  O762    1.955   .     S
Cu750  N759    2.026   .     S
Cu750  O766    1.958   .     S
Cu750  O764    1.936   .     S
H752   C909    1.087   .     S
H753   N816    1.029   .     S
N759   N816    1.289   .     S
N759   C825    1.412   .     S
C769   H770    1.082   .     S
O771   C825    1.219   .     S
C772   H773    1.086   .     S
C772   O774    1.222   .     D
C776   H777    1.113   .     S
C776   H779    1.109   .     S
C776   O831    1.411   .     S
C776   H274    1.114   1_556 S
O780   C781    1.412   .     S
C781   H782    1.113   .     S
C781   H840    1.109   .     S
H783   C949    1.113   .     S
C785   O817    1.293   .     A
C785   O818    1.288   .     A
C785   C795    1.431   .     S
C786   C787    1.419   .     A
C786   C804    1.417   .     A
C786   C284    1.435   1_556 S
C787   C794    1.415   .     A
C787   C791    1.407   .     A
C788   C792    1.426   .     A
C789   C790    1.393   .     A
C789   C284    1.424   1_556 S
C789   C296    1.398   1_556 S
C790   C791    1.384   .     A
C790   H810    1.084   .     S
C791   H814    1.083   .     S
C792   C801    1.426   .     A
C792   C828    1.487   .     S
C793   C801    1.397   .     A
C793   C800    1.385   .     A
C793   H807    1.084   .     S
C794   C796    1.465   .     S
C794   C802    1.400   .     A
C795   C965    1.341   .     S
C795   O1004   1.389   .     S
C796   O820    1.298   .     A
C796   O819    1.302   .     A
C797   C798    1.431   .     S
C798   O821    1.294   .     A
C798   O822    1.289   .     A
C799   O823    1.294   .     A
C799   O824    1.309   .     A
C799   C801    1.474   .     S
C800   H811    1.084   .     S
C802   H812    1.084   .     S
C802   C803    1.393   .     A
C803   C804    1.394   .     A
C803   O831    1.382   .     S
C804   H309    1.078   1_556 S
Cu805  O819    1.954   .     S
Cu805  O823    1.936   .     S
Cu805  Cu806   2.696   .     S
Cu805  N816    2.026   .     S
Cu805  O817    1.958   .     S
Cu805  O821    1.955   .     S
Cu806  O824    1.954   .     S
Cu806  O818    1.955   .     S
Cu806  N815    2.026   .     S
Cu806  O822    1.958   .     S
Cu806  O820    1.936   .     S
H808   C965    1.087   .     S
H809   N704    1.029   1_655 S
N815   N704    1.289   1_655 S
N815   C713    1.412   1_655 S
C825   H826    1.082   .     S
O827   C713    1.219   1_655 S
C828   H829    1.086   .     S
C828   O830    1.222   .     D
C832   H833    1.113   .     S
C832   H835    1.109   .     S
C832   O719    1.411   1_655 S
C832   H330    1.114   1_556 S
O836   C837    1.412   .     S
C837   H838    1.113   .     S
C837   H728    1.109   1_655 S
H839   C1005   1.113   .     S
C841   O873    1.293   .     A
C841   O874    1.288   .     A
C841   C851    1.431   .     S
C842   C843    1.419   .     A
C842   C860    1.417   .     A
C842   C340    1.435   1_556 S
C843   C850    1.415   .     A
C843   C847    1.407   .     A
C844   C848    1.426   .     A
C845   C846    1.393   .     A
C845   C340    1.424   1_556 S
C845   C352    1.398   1_556 S
C846   C847    1.384   .     A
C846   H866    1.084   .     S
C847   H870    1.083   .     S
C848   C857    1.426   .     A
C848   C884    1.487   .     S
C849   C857    1.397   .     A
C849   C856    1.385   .     A
C849   H863    1.084   .     S
C850   C852    1.465   .     S
C850   C858    1.400   .     A
C851   C517    1.341   1_565 S
C851   O556    1.389   1_565 S
C852   O876    1.298   .     A
C852   O875    1.302   .     A
C853   C854    1.431   .     S
C854   O877    1.294   .     A
C854   O878    1.289   .     A
C855   O879    1.294   .     A
C855   O880    1.309   .     A
C855   C857    1.474   .     S
C856   H867    1.084   .     S
C858   H868    1.084   .     S
C858   C859    1.393   .     A
C859   C860    1.394   .     A
C859   O887    1.382   .     S
C860   H365    1.078   1_556 S
Cu861  O875    1.954   .     S
Cu861  O879    1.936   .     S
Cu861  Cu862   2.696   .     S
Cu861  N872    2.026   .     S
Cu861  O873    1.958   .     S
Cu861  O877    1.955   .     S
Cu862  O880    1.954   .     S
Cu862  O874    1.955   .     S
Cu862  N871    2.026   .     S
Cu862  O878    1.958   .     S
Cu862  O876    1.936   .     S
H864   C517    1.087   1_565 S
H865   N928    1.029   .     S
N871   N928    1.289   .     S
N871   C937    1.412   .     S
N872   N983    1.289   1_455 S
N872   H977    1.029   1_455 S
C881   H882    1.082   .     S
C881   N983    1.412   1_455 S
C881   O995    1.219   1_455 S
O883   C937    1.219   .     S
C884   H885    1.086   .     S
C884   O886    1.222   .     D
O887   C1000   1.411   1_455 S
C888   H889    1.113   .     S
C888   H891    1.109   .     S
C888   O943    1.411   .     S
C888   H386    1.114   1_556 S
O892   C893    1.412   .     S
C893   H894    1.113   .     S
C893   H952    1.109   .     S
H895   C557    1.113   1_565 S
H896   C1005   1.109   1_455 S
C897   O929    1.293   .     A
C897   O930    1.288   .     A
C897   C907    1.431   .     S
C898   C899    1.419   .     A
C898   C916    1.417   .     A
C898   C396    1.435   1_556 S
C899   C906    1.415   .     A
C899   C903    1.407   .     A
C900   C904    1.426   .     A
C901   C902    1.393   .     A
C901   C396    1.424   1_556 S
C901   C408    1.398   1_556 S
C902   C903    1.384   .     A
C902   H922    1.084   .     S
C903   H926    1.083   .     S
C904   C913    1.426   .     A
C904   C940    1.487   .     S
C905   C913    1.397   .     A
C905   C912    1.385   .     A
C905   H919    1.084   .     S
C906   C908    1.465   .     S
C906   C914    1.400   .     A
C907   C573    1.341   1_565 S
C907   O612    1.389   1_565 S
C908   O932    1.298   .     A
C908   O931    1.302   .     A
C909   C910    1.431   .     S
C910   O933    1.294   .     A
C910   O934    1.289   .     A
C911   O935    1.294   .     A
C911   O936    1.309   .     A
C911   C913    1.474   .     S
C912   H923    1.084   .     S
C914   H924    1.084   .     S
C914   C915    1.393   .     A
C915   C916    1.394   .     A
C915   O943    1.382   .     S
C916   H421    1.078   1_556 S
Cu917  O931    1.954   .     S
Cu917  O935    1.936   .     S
Cu917  Cu918   2.696   .     S
Cu917  N928    2.026   .     S
Cu917  O929    1.958   .     S
Cu917  O933    1.955   .     S
Cu918  O936    1.954   .     S
Cu918  O930    1.955   .     S
Cu918  N927    2.026   .     S
Cu918  O934    1.958   .     S
Cu918  O932    1.936   .     S
H920   C573    1.087   1_565 S
H921   N984    1.029   .     S
N927   N984    1.289   .     S
N927   C993    1.412   .     S
C937   H938    1.082   .     S
O939   C993    1.219   .     S
C940   H941    1.086   .     S
C940   O942    1.222   .     D
C944   H945    1.113   .     S
C944   H947    1.109   .     S
C944   O999    1.411   .     S
C944   H442    1.114   1_556 S
O948   C949    1.412   .     S
C949   H950    1.113   .     S
C949   H1008   1.109   .     S
H951   C613    1.113   1_565 S
C953   O985    1.293   .     A
C953   O986    1.288   .     A
C953   C963    1.431   .     S
C954   C955    1.419   .     A
C954   C972    1.417   .     A
C954   C452    1.435   1_556 S
C955   C962    1.415   .     A
C955   C959    1.407   .     A
C956   C960    1.426   .     A
C957   C958    1.393   .     A
C957   C452    1.424   1_556 S
C957   C464    1.398   1_556 S
C958   C959    1.384   .     A
C958   H978    1.084   .     S
C959   H982    1.083   .     S
C960   C969    1.426   .     A
C960   C996    1.487   .     S
C961   C969    1.397   .     A
C961   C968    1.385   .     A
C961   H975    1.084   .     S
C962   C964    1.465   .     S
C962   C970    1.400   .     A
C963   C629    1.341   1_565 S
C963   O668    1.389   1_565 S
C964   O988    1.298   .     A
C964   O987    1.302   .     A
C965   C966    1.431   .     S
C966   O989    1.294   .     A
C966   O990    1.289   .     A
C967   O991    1.294   .     A
C967   O992    1.309   .     A
C967   C969    1.474   .     S
C968   H979    1.084   .     S
C970   H980    1.084   .     S
C970   C971    1.393   .     A
C971   C972    1.394   .     A
C971   O999    1.382   .     S
C972   H477    1.078   1_556 S
Cu973  O987    1.954   .     S
Cu973  O991    1.936   .     S
Cu973  Cu974   2.696   .     S
Cu973  N984    2.026   .     S
Cu973  O985    1.958   .     S
Cu973  O989    1.955   .     S
Cu974  O992    1.954   .     S
Cu974  O986    1.955   .     S
Cu974  N983    2.026   .     S
Cu974  O990    1.958   .     S
Cu974  O988    1.936   .     S
H976   C629    1.087   1_565 S
H977   N872    1.029   1_655 S
N983   N872    1.289   1_655 S
N983   C881    1.412   1_655 S
C993   H994    1.082   .     S
O995   C881    1.219   1_655 S
C996   H997    1.086   .     S
C996   O998    1.222   .     D
C1000  H1001   1.113   .     S
C1000  H1003   1.109   .     S
C1000  O887    1.411   1_655 S
C1000  H498    1.114   1_556 S
O1004  C1005   1.412   .     S
C1005  H1006   1.113   .     S
C1005  H896    1.109   1_655 S
H1007  C669    1.113   1_565 S
