data_str_m2_o2_o10_pcu_sym.8
_audit_creation_date              2020-01-03
_audit_creation_method            'Materials Studio'
_symmetry_space_group_name_H-M    'P1'
_symmetry_Int_Tables_number       1
_symmetry_cell_setting            triclinic
loop_
_symmetry_equiv_pos_as_xyz
  x,y,z
_cell_length_a                    26.3591
_cell_length_b                    30.2119
_cell_length_c                    27.7173
_cell_angle_alpha                 89.8514
_cell_angle_beta                  97.8433
_cell_angle_gamma                 90.2478
loop_
_atom_site_label
_atom_site_type_symbol
_atom_site_fract_x
_atom_site_fract_y
_atom_site_fract_z
_atom_site_U_iso_or_equiv
_atom_site_adp_type
_atom_site_occupancy
C1     C     0.16661   0.16498   0.25004   0.00000  Uiso   1.00
C2     C     0.17816   0.28813   0.44781   0.00000  Uiso   1.00
C3     C     0.16718   0.24985   0.02752   0.00000  Uiso   1.00
C4     C     0.16668   0.24954   0.47283   0.00000  Uiso   1.00
C5     C     0.06810   0.24936   0.23771   0.00000  Uiso   1.00
C6     C     0.26523   0.25065   0.26228   0.00000  Uiso   1.00
C7     C     0.01313   0.24618   0.23099   0.00000  Uiso   1.00
C8     C     0.32020   0.25389   0.26896   0.00000  Uiso   1.00
C9     C     0.13795   0.04760   0.28261   0.00000  Uiso   1.00
C10    C     0.14811   0.45259   0.20617   0.00000  Uiso   1.00
C11    C     0.14035   0.09390   0.28356   0.00000  Uiso   1.00
C12    C     0.16663   0.33511   0.24994   0.00000  Uiso   1.00
C13    C     0.14998   0.40644   0.20636   0.00000  Uiso   1.00
C14    C     0.16595   0.11683   0.25007   0.00000  Uiso   1.00
C15    C     0.16609   0.38344   0.24971   0.00000  Uiso   1.00
C16    C     0.19056   0.09361   0.21640   0.00000  Uiso   1.00
C17    C     0.18145   0.40688   0.29283   0.00000  Uiso   1.00
C18    C     0.19054   0.04766   0.21684   0.00000  Uiso   1.00
C19    C     0.18117   0.45285   0.29255   0.00000  Uiso   1.00
C20    C     0.16451   0.02446   0.24988   0.00000  Uiso   1.00
C21    C     0.16460   0.47595   0.24941   0.00000  Uiso   1.00
C22    C     0.32308   0.19159   0.17596   0.00000  Uiso   1.00
C23    C     0.20638   0.27138   0.05916   0.00000  Uiso   1.00
C24    C     0.01000   0.30867   0.32380   0.00000  Uiso   1.00
C25    C     0.05854   0.03345   0.30382   0.00000  Uiso   1.00
C26    C     0.02868   0.49800   0.32718   0.00000  Uiso   1.00
C27    C     0.07797   0.47793   0.15766   0.00000  Uiso   1.00
C28    C     0.06008   0.00746   0.11421   0.00000  Uiso   1.00
C29    C     0.28655   0.26431   0.03915   0.00000  Uiso   1.00
C30    C     0.32789   0.28763   0.01521   0.00000  Uiso   1.00
C31    C     0.18922   0.14710   0.47825   0.00000  Uiso   1.00
C32    C     0.17749   0.10519   0.00522   0.00000  Uiso   1.00
C33    C     0.15534   0.21076   0.44479   0.00000  Uiso   1.00
C34    C     0.20456   0.27163   0.10979   0.00000  Uiso   1.00
C35    C     0.15431   0.21226   0.39377   0.00000  Uiso   1.00
C36    C     0.12908   0.22834   0.09979   0.00000  Uiso   1.00
C37    C     0.17875   0.28750   0.39719   0.00000  Uiso   1.00
C38    C     0.12843   0.22816   0.04902   0.00000  Uiso   1.00
Cu39   Cu    0.16667   0.25000   0.29822   0.00000  Uiso   1.00
Cu40   Cu    0.16667   0.25001   0.20179   0.00000  Uiso   1.00
H41    H     0.12146   0.11191   0.30974   0.00000  Uiso   1.00
H42    H     0.18873   0.31750   0.37939   0.00000  Uiso   1.00
H43    H     0.09728   0.21146   0.02674   0.00000  Uiso   1.00
H44    H     0.18631   0.31897   0.46713   0.00000  Uiso   1.00
H45    H     0.30407   0.17286   0.20321   0.00000  Uiso   1.00
H46    H     0.02958   0.17960   0.17591   0.00000  Uiso   1.00
H47    H     0.30154   0.18463   0.13951   0.00000  Uiso   1.00
H48    H     0.30343   0.32053   0.32379   0.00000  Uiso   1.00
H49    H     0.02893   0.32741   0.29650   0.00000  Uiso   1.00
H50    H     0.03148   0.31579   0.36023   0.00000  Uiso   1.00
H51    H     0.04517   0.03315   0.26383   0.00000  Uiso   1.00
H52    H     0.13791   0.38874   0.17278   0.00000  Uiso   1.00
H53    H     0.04970   0.06613   0.31901   0.00000  Uiso   1.00
H54    H     0.04001   0.49791   0.36729   0.00000  Uiso   1.00
H55    H     0.32031   0.00472   0.31911   0.00000  Uiso   1.00
H56    H     0.03660   0.46493   0.31246   0.00000  Uiso   1.00
H57    H     0.06453   0.49284   0.19040   0.00000  Uiso   1.00
H58    H     0.06017   0.44462   0.15091   0.00000  Uiso   1.00
H59    H     0.07211   0.49329   0.08064   0.00000  Uiso   1.00
H60    H     0.01768   0.01008   0.10934   0.00000  Uiso   1.00
H61    H     0.07693   0.04109   0.12029   0.00000  Uiso   1.00
H62    H     0.27405   0.23446   0.01705   0.00000  Uiso   1.00
H63    H     0.21075   0.11102   0.19052   0.00000  Uiso   1.00
H64    H     0.30333   0.25390   0.07649   0.00000  Uiso   1.00
H65    H     0.00939   0.31673   0.03724   0.00000  Uiso   1.00
H66    H     0.02660   0.26456   0.01235   0.00000  Uiso   1.00
H67    H     0.31195   0.29884   0.47804   0.00000  Uiso   1.00
H68    H     0.21846   0.16641   0.00247   0.00000  Uiso   1.00
H69    H     0.20522   0.13744   0.44462   0.00000  Uiso   1.00
H70    H     0.14890   0.08472   0.48189   0.00000  Uiso   1.00
H71    H     0.21306   0.08565   0.01471   0.00000  Uiso   1.00
H72    H     0.16196   0.11388   0.03926   0.00000  Uiso   1.00
H73    H     0.19443   0.38971   0.32657   0.00000  Uiso   1.00
H74    H     0.21102   0.03011   0.19150   0.00000  Uiso   1.00
H75    H     0.19423   0.47049   0.32595   0.00000  Uiso   1.00
H76    H     0.23398   0.28905   0.13352   0.00000  Uiso   1.00
H77    H     0.14395   0.18263   0.37299   0.00000  Uiso   1.00
H78    H     0.09913   0.21122   0.11551   0.00000  Uiso   1.00
N79    N     0.16667   0.25001   0.12935   0.00000  Uiso   1.00
N80    N     0.16667   0.24999   0.37066   0.00000  Uiso   1.00
O81    O     0.16667   0.18573   0.29072   0.00000  Uiso   1.00
O82    O     0.01133   0.26264   0.31559   0.00000  Uiso   1.00
O83    O     0.11148   0.02448   0.31455   0.00000  Uiso   1.00
O84    O     0.13186   0.47487   0.16327   0.00000  Uiso   1.00
O85    O     0.24552   0.29378   0.04109   0.00000  Uiso   1.00
O86    O     0.14367   0.17148   0.46646   0.00000  Uiso   1.00
O87    O     0.16666   0.31428   0.20929   0.00000  Uiso   1.00
O88    O     0.16667   0.18573   0.20928   0.00000  Uiso   1.00
O89    O     0.16666   0.31427   0.29072   0.00000  Uiso   1.00
O90    O     0.09161   0.25000   0.28132   0.00000  Uiso   1.00
O91    O     0.24172   0.25001   0.21868   0.00000  Uiso   1.00
O92    O     0.09161   0.25000   0.19989   0.00000  Uiso   1.00
O93    O     0.24172   0.25000   0.30012   0.00000  Uiso   1.00
O94    O     0.32200   0.23761   0.18432   0.00000  Uiso   1.00
C95    C     0.49994   0.16498   0.25004   0.00000  Uiso   1.00
C96    C     0.51149   0.28813   0.44781   0.00000  Uiso   1.00
C97    C     0.50051   0.24985   0.02752   0.00000  Uiso   1.00
C98    C     0.50002   0.24954   0.47283   0.00000  Uiso   1.00
C99    C     0.40143   0.24936   0.23771   0.00000  Uiso   1.00
C100   C     0.59857   0.25065   0.26228   0.00000  Uiso   1.00
C101   C     0.34646   0.24618   0.23099   0.00000  Uiso   1.00
C102   C     0.65353   0.25389   0.26896   0.00000  Uiso   1.00
C103   C     0.47128   0.04760   0.28261   0.00000  Uiso   1.00
C104   C     0.48144   0.45259   0.20617   0.00000  Uiso   1.00
C105   C     0.47369   0.09390   0.28356   0.00000  Uiso   1.00
C106   C     0.49996   0.33511   0.24994   0.00000  Uiso   1.00
C107   C     0.48331   0.40644   0.20636   0.00000  Uiso   1.00
C108   C     0.49928   0.11683   0.25007   0.00000  Uiso   1.00
C109   C     0.49942   0.38344   0.24971   0.00000  Uiso   1.00
C110   C     0.52389   0.09361   0.21640   0.00000  Uiso   1.00
C111   C     0.51478   0.40688   0.29283   0.00000  Uiso   1.00
C112   C     0.52387   0.04766   0.21684   0.00000  Uiso   1.00
C113   C     0.51450   0.45285   0.29255   0.00000  Uiso   1.00
C114   C     0.49784   0.02446   0.24988   0.00000  Uiso   1.00
C115   C     0.49793   0.47595   0.24941   0.00000  Uiso   1.00
C116   C     0.65641   0.19159   0.17596   0.00000  Uiso   1.00
C117   C     0.53971   0.27138   0.05916   0.00000  Uiso   1.00
C118   C     0.34333   0.30867   0.32380   0.00000  Uiso   1.00
C119   C     0.39187   0.03345   0.30382   0.00000  Uiso   1.00
C120   C     0.36202   0.49800   0.32718   0.00000  Uiso   1.00
C121   C     0.41130   0.47793   0.15766   0.00000  Uiso   1.00
C122   C     0.39342   0.00746   0.11421   0.00000  Uiso   1.00
C123   C     0.61989   0.26431   0.03915   0.00000  Uiso   1.00
C124   C     0.66123   0.28763   0.01521   0.00000  Uiso   1.00
C125   C     0.52255   0.14710   0.47825   0.00000  Uiso   1.00
C126   C     0.51082   0.10519   0.00522   0.00000  Uiso   1.00
C127   C     0.48867   0.21076   0.44479   0.00000  Uiso   1.00
C128   C     0.53790   0.27163   0.10979   0.00000  Uiso   1.00
C129   C     0.48765   0.21226   0.39377   0.00000  Uiso   1.00
C130   C     0.46241   0.22834   0.09979   0.00000  Uiso   1.00
C131   C     0.51209   0.28750   0.39719   0.00000  Uiso   1.00
C132   C     0.46177   0.22816   0.04902   0.00000  Uiso   1.00
Cu133  Cu    0.50000   0.25000   0.29822   0.00000  Uiso   1.00
Cu134  Cu    0.50000   0.25001   0.20179   0.00000  Uiso   1.00
H135   H     0.45479   0.11191   0.30974   0.00000  Uiso   1.00
H136   H     0.52206   0.31750   0.37939   0.00000  Uiso   1.00
H137   H     0.43062   0.21146   0.02674   0.00000  Uiso   1.00
H138   H     0.51965   0.31897   0.46713   0.00000  Uiso   1.00
H139   H     0.63740   0.17286   0.20321   0.00000  Uiso   1.00
H140   H     0.36292   0.17960   0.17591   0.00000  Uiso   1.00
H141   H     0.63487   0.18463   0.13951   0.00000  Uiso   1.00
H142   H     0.63676   0.32053   0.32379   0.00000  Uiso   1.00
H143   H     0.36227   0.32741   0.29650   0.00000  Uiso   1.00
H144   H     0.36481   0.31579   0.36023   0.00000  Uiso   1.00
H145   H     0.37850   0.03315   0.26383   0.00000  Uiso   1.00
H146   H     0.47125   0.38874   0.17278   0.00000  Uiso   1.00
H147   H     0.38303   0.06613   0.31901   0.00000  Uiso   1.00
H148   H     0.37334   0.49791   0.36729   0.00000  Uiso   1.00
H149   H     0.65365   0.00472   0.31911   0.00000  Uiso   1.00
H150   H     0.36993   0.46493   0.31246   0.00000  Uiso   1.00
H151   H     0.39787   0.49284   0.19040   0.00000  Uiso   1.00
H152   H     0.39350   0.44462   0.15091   0.00000  Uiso   1.00
H153   H     0.40545   0.49329   0.08064   0.00000  Uiso   1.00
H154   H     0.35101   0.01008   0.10934   0.00000  Uiso   1.00
H155   H     0.41026   0.04109   0.12029   0.00000  Uiso   1.00
H156   H     0.60738   0.23446   0.01705   0.00000  Uiso   1.00
H157   H     0.54409   0.11102   0.19052   0.00000  Uiso   1.00
H158   H     0.63667   0.25390   0.07649   0.00000  Uiso   1.00
H159   H     0.34272   0.31673   0.03724   0.00000  Uiso   1.00
H160   H     0.35993   0.26456   0.01235   0.00000  Uiso   1.00
H161   H     0.64528   0.29884   0.47804   0.00000  Uiso   1.00
H162   H     0.55180   0.16641   0.00247   0.00000  Uiso   1.00
H163   H     0.53855   0.13744   0.44462   0.00000  Uiso   1.00
H164   H     0.48224   0.08472   0.48189   0.00000  Uiso   1.00
H165   H     0.54639   0.08565   0.01471   0.00000  Uiso   1.00
H166   H     0.49529   0.11388   0.03926   0.00000  Uiso   1.00
H167   H     0.52777   0.38971   0.32657   0.00000  Uiso   1.00
H168   H     0.54436   0.03011   0.19150   0.00000  Uiso   1.00
H169   H     0.52756   0.47049   0.32595   0.00000  Uiso   1.00
H170   H     0.56731   0.28905   0.13352   0.00000  Uiso   1.00
H171   H     0.47728   0.18263   0.37299   0.00000  Uiso   1.00
H172   H     0.43247   0.21122   0.11551   0.00000  Uiso   1.00
N173   N     0.50000   0.25001   0.12935   0.00000  Uiso   1.00
N174   N     0.50000   0.24999   0.37066   0.00000  Uiso   1.00
O175   O     0.50000   0.18573   0.29072   0.00000  Uiso   1.00
O176   O     0.34467   0.26264   0.31559   0.00000  Uiso   1.00
O177   O     0.44481   0.02448   0.31455   0.00000  Uiso   1.00
O178   O     0.46519   0.47487   0.16327   0.00000  Uiso   1.00
O179   O     0.57886   0.29378   0.04109   0.00000  Uiso   1.00
O180   O     0.47700   0.17148   0.46646   0.00000  Uiso   1.00
O181   O     0.50000   0.31428   0.20929   0.00000  Uiso   1.00
O182   O     0.50000   0.18573   0.20928   0.00000  Uiso   1.00
O183   O     0.50000   0.31427   0.29072   0.00000  Uiso   1.00
O184   O     0.42495   0.25000   0.28132   0.00000  Uiso   1.00
O185   O     0.57505   0.25001   0.21868   0.00000  Uiso   1.00
O186   O     0.42495   0.25000   0.19989   0.00000  Uiso   1.00
O187   O     0.57505   0.25000   0.30012   0.00000  Uiso   1.00
O188   O     0.65534   0.23761   0.18432   0.00000  Uiso   1.00
C189   C     0.83327   0.16498   0.25004   0.00000  Uiso   1.00
C190   C     0.84483   0.28813   0.44781   0.00000  Uiso   1.00
C191   C     0.83384   0.24985   0.02752   0.00000  Uiso   1.00
C192   C     0.83335   0.24954   0.47283   0.00000  Uiso   1.00
C193   C     0.73477   0.24936   0.23771   0.00000  Uiso   1.00
C194   C     0.93190   0.25065   0.26228   0.00000  Uiso   1.00
C195   C     0.67980   0.24618   0.23099   0.00000  Uiso   1.00
C196   C     0.98686   0.25389   0.26896   0.00000  Uiso   1.00
C197   C     0.80462   0.04760   0.28261   0.00000  Uiso   1.00
C198   C     0.81477   0.45259   0.20617   0.00000  Uiso   1.00
C199   C     0.80702   0.09390   0.28356   0.00000  Uiso   1.00
C200   C     0.83330   0.33511   0.24994   0.00000  Uiso   1.00
C201   C     0.81664   0.40644   0.20636   0.00000  Uiso   1.00
C202   C     0.83262   0.11683   0.25007   0.00000  Uiso   1.00
C203   C     0.83276   0.38344   0.24971   0.00000  Uiso   1.00
C204   C     0.85723   0.09361   0.21640   0.00000  Uiso   1.00
C205   C     0.84811   0.40688   0.29283   0.00000  Uiso   1.00
C206   C     0.85721   0.04766   0.21684   0.00000  Uiso   1.00
C207   C     0.84783   0.45285   0.29255   0.00000  Uiso   1.00
C208   C     0.83118   0.02446   0.24988   0.00000  Uiso   1.00
C209   C     0.83126   0.47595   0.24941   0.00000  Uiso   1.00
C210   C     0.98974   0.19159   0.17596   0.00000  Uiso   1.00
C211   C     0.87305   0.27138   0.05916   0.00000  Uiso   1.00
C212   C     0.67667   0.30867   0.32380   0.00000  Uiso   1.00
C213   C     0.72521   0.03345   0.30382   0.00000  Uiso   1.00
C214   C     0.69535   0.49800   0.32718   0.00000  Uiso   1.00
C215   C     0.74463   0.47793   0.15766   0.00000  Uiso   1.00
C216   C     0.72675   0.00746   0.11421   0.00000  Uiso   1.00
C217   C     0.95322   0.26431   0.03915   0.00000  Uiso   1.00
C218   C     0.99456   0.28763   0.01521   0.00000  Uiso   1.00
C219   C     0.85589   0.14710   0.47825   0.00000  Uiso   1.00
C220   C     0.84416   0.10519   0.00522   0.00000  Uiso   1.00
C221   C     0.82201   0.21076   0.44479   0.00000  Uiso   1.00
C222   C     0.87123   0.27163   0.10979   0.00000  Uiso   1.00
C223   C     0.82098   0.21226   0.39377   0.00000  Uiso   1.00
C224   C     0.79574   0.22834   0.09979   0.00000  Uiso   1.00
C225   C     0.84542   0.28750   0.39719   0.00000  Uiso   1.00
C226   C     0.79510   0.22816   0.04902   0.00000  Uiso   1.00
Cu227  Cu    0.83333   0.25000   0.29822   0.00000  Uiso   1.00
Cu228  Cu    0.83333   0.25001   0.20179   0.00000  Uiso   1.00
H229   H     0.78813   0.11191   0.30974   0.00000  Uiso   1.00
H230   H     0.85540   0.31750   0.37939   0.00000  Uiso   1.00
H231   H     0.76395   0.21146   0.02674   0.00000  Uiso   1.00
H232   H     0.85298   0.31897   0.46713   0.00000  Uiso   1.00
H233   H     0.97073   0.17286   0.20321   0.00000  Uiso   1.00
H234   H     0.69625   0.17960   0.17591   0.00000  Uiso   1.00
H235   H     0.96820   0.18463   0.13951   0.00000  Uiso   1.00
H236   H     0.97009   0.32053   0.32379   0.00000  Uiso   1.00
H237   H     0.69560   0.32741   0.29650   0.00000  Uiso   1.00
H238   H     0.69814   0.31579   0.36023   0.00000  Uiso   1.00
H239   H     0.71184   0.03315   0.26383   0.00000  Uiso   1.00
H240   H     0.80458   0.38874   0.17278   0.00000  Uiso   1.00
H241   H     0.71637   0.06613   0.31901   0.00000  Uiso   1.00
H242   H     0.70668   0.49791   0.36729   0.00000  Uiso   1.00
H243   H     0.98698   0.00472   0.31911   0.00000  Uiso   1.00
H244   H     0.70327   0.46493   0.31246   0.00000  Uiso   1.00
H245   H     0.73120   0.49284   0.19040   0.00000  Uiso   1.00
H246   H     0.72684   0.44462   0.15091   0.00000  Uiso   1.00
H247   H     0.73878   0.49329   0.08064   0.00000  Uiso   1.00
H248   H     0.68434   0.01008   0.10934   0.00000  Uiso   1.00
H249   H     0.74359   0.04109   0.12029   0.00000  Uiso   1.00
H250   H     0.94072   0.23446   0.01705   0.00000  Uiso   1.00
H251   H     0.87742   0.11102   0.19052   0.00000  Uiso   1.00
H252   H     0.97000   0.25390   0.07649   0.00000  Uiso   1.00
H253   H     0.67606   0.31673   0.03724   0.00000  Uiso   1.00
H254   H     0.69327   0.26456   0.01235   0.00000  Uiso   1.00
H255   H     0.97862   0.29884   0.47804   0.00000  Uiso   1.00
H256   H     0.88513   0.16641   0.00247   0.00000  Uiso   1.00
H257   H     0.87189   0.13744   0.44462   0.00000  Uiso   1.00
H258   H     0.81557   0.08472   0.48189   0.00000  Uiso   1.00
H259   H     0.87973   0.08565   0.01471   0.00000  Uiso   1.00
H260   H     0.82863   0.11388   0.03926   0.00000  Uiso   1.00
H261   H     0.86110   0.38971   0.32657   0.00000  Uiso   1.00
H262   H     0.87769   0.03011   0.19150   0.00000  Uiso   1.00
H263   H     0.86089   0.47049   0.32595   0.00000  Uiso   1.00
H264   H     0.90065   0.28905   0.13352   0.00000  Uiso   1.00
H265   H     0.81061   0.18263   0.37299   0.00000  Uiso   1.00
H266   H     0.76580   0.21122   0.11551   0.00000  Uiso   1.00
N267   N     0.83333   0.25001   0.12935   0.00000  Uiso   1.00
N268   N     0.83333   0.24999   0.37066   0.00000  Uiso   1.00
O269   O     0.83334   0.18573   0.29072   0.00000  Uiso   1.00
O270   O     0.67800   0.26264   0.31559   0.00000  Uiso   1.00
O271   O     0.77814   0.02448   0.31455   0.00000  Uiso   1.00
O272   O     0.79853   0.47487   0.16327   0.00000  Uiso   1.00
O273   O     0.91219   0.29378   0.04109   0.00000  Uiso   1.00
O274   O     0.81033   0.17148   0.46646   0.00000  Uiso   1.00
O275   O     0.83333   0.31428   0.20929   0.00000  Uiso   1.00
O276   O     0.83334   0.18573   0.20928   0.00000  Uiso   1.00
O277   O     0.83333   0.31427   0.29072   0.00000  Uiso   1.00
O278   O     0.75828   0.25000   0.28132   0.00000  Uiso   1.00
O279   O     0.90839   0.25001   0.21868   0.00000  Uiso   1.00
O280   O     0.75828   0.25000   0.19989   0.00000  Uiso   1.00
O281   O     0.90839   0.25000   0.30012   0.00000  Uiso   1.00
O282   O     0.98867   0.23761   0.18432   0.00000  Uiso   1.00
C283   C     0.16661   0.66498   0.25004   0.00000  Uiso   1.00
C284   C     0.17816   0.78813   0.44781   0.00000  Uiso   1.00
C285   C     0.16718   0.74985   0.02752   0.00000  Uiso   1.00
C286   C     0.16668   0.74954   0.47283   0.00000  Uiso   1.00
C287   C     0.06810   0.74936   0.23771   0.00000  Uiso   1.00
C288   C     0.26523   0.75065   0.26228   0.00000  Uiso   1.00
C289   C     0.01313   0.74618   0.23099   0.00000  Uiso   1.00
C290   C     0.32020   0.75389   0.26896   0.00000  Uiso   1.00
C291   C     0.13795   0.54760   0.28261   0.00000  Uiso   1.00
C292   C     0.14811   0.95259   0.20617   0.00000  Uiso   1.00
C293   C     0.14035   0.59390   0.28356   0.00000  Uiso   1.00
C294   C     0.16663   0.83511   0.24994   0.00000  Uiso   1.00
C295   C     0.14998   0.90644   0.20636   0.00000  Uiso   1.00
C296   C     0.16595   0.61683   0.25007   0.00000  Uiso   1.00
C297   C     0.16609   0.88344   0.24971   0.00000  Uiso   1.00
C298   C     0.19056   0.59361   0.21640   0.00000  Uiso   1.00
C299   C     0.18145   0.90688   0.29283   0.00000  Uiso   1.00
C300   C     0.19054   0.54766   0.21684   0.00000  Uiso   1.00
C301   C     0.18117   0.95285   0.29255   0.00000  Uiso   1.00
C302   C     0.16451   0.52446   0.24988   0.00000  Uiso   1.00
C303   C     0.16460   0.97595   0.24941   0.00000  Uiso   1.00
C304   C     0.32308   0.69159   0.17596   0.00000  Uiso   1.00
C305   C     0.20638   0.77138   0.05916   0.00000  Uiso   1.00
C306   C     0.01000   0.80867   0.32380   0.00000  Uiso   1.00
C307   C     0.05854   0.53345   0.30382   0.00000  Uiso   1.00
C308   C     0.02868   0.99800   0.32718   0.00000  Uiso   1.00
C309   C     0.07797   0.97793   0.15766   0.00000  Uiso   1.00
C310   C     0.06008   0.50746   0.11421   0.00000  Uiso   1.00
C311   C     0.28655   0.76431   0.03915   0.00000  Uiso   1.00
C312   C     0.32789   0.78763   0.01521   0.00000  Uiso   1.00
C313   C     0.18922   0.64710   0.47825   0.00000  Uiso   1.00
C314   C     0.17749   0.60519   0.00522   0.00000  Uiso   1.00
C315   C     0.15534   0.71076   0.44479   0.00000  Uiso   1.00
C316   C     0.20456   0.77163   0.10979   0.00000  Uiso   1.00
C317   C     0.15431   0.71226   0.39377   0.00000  Uiso   1.00
C318   C     0.12908   0.72834   0.09979   0.00000  Uiso   1.00
C319   C     0.17875   0.78750   0.39719   0.00000  Uiso   1.00
C320   C     0.12843   0.72816   0.04902   0.00000  Uiso   1.00
Cu321  Cu    0.16667   0.75000   0.29822   0.00000  Uiso   1.00
Cu322  Cu    0.16667   0.75001   0.20179   0.00000  Uiso   1.00
H323   H     0.12146   0.61191   0.30974   0.00000  Uiso   1.00
H324   H     0.18873   0.81750   0.37939   0.00000  Uiso   1.00
H325   H     0.09728   0.71146   0.02674   0.00000  Uiso   1.00
H326   H     0.18631   0.81897   0.46713   0.00000  Uiso   1.00
H327   H     0.30407   0.67286   0.20321   0.00000  Uiso   1.00
H328   H     0.02958   0.67960   0.17591   0.00000  Uiso   1.00
H329   H     0.30154   0.68463   0.13951   0.00000  Uiso   1.00
H330   H     0.30343   0.82053   0.32379   0.00000  Uiso   1.00
H331   H     0.02893   0.82741   0.29650   0.00000  Uiso   1.00
H332   H     0.03148   0.81579   0.36023   0.00000  Uiso   1.00
H333   H     0.04517   0.53315   0.26383   0.00000  Uiso   1.00
H334   H     0.13791   0.88874   0.17278   0.00000  Uiso   1.00
H335   H     0.04970   0.56613   0.31901   0.00000  Uiso   1.00
H336   H     0.04001   0.99791   0.36729   0.00000  Uiso   1.00
H337   H     0.32031   0.50472   0.31911   0.00000  Uiso   1.00
H338   H     0.03660   0.96493   0.31246   0.00000  Uiso   1.00
H339   H     0.06453   0.99284   0.19040   0.00000  Uiso   1.00
H340   H     0.06017   0.94462   0.15091   0.00000  Uiso   1.00
H341   H     0.07211   0.99329   0.08064   0.00000  Uiso   1.00
H342   H     0.01768   0.51008   0.10934   0.00000  Uiso   1.00
H343   H     0.07693   0.54109   0.12029   0.00000  Uiso   1.00
H344   H     0.27405   0.73446   0.01705   0.00000  Uiso   1.00
H345   H     0.21075   0.61102   0.19052   0.00000  Uiso   1.00
H346   H     0.30333   0.75390   0.07649   0.00000  Uiso   1.00
H347   H     0.00939   0.81673   0.03724   0.00000  Uiso   1.00
H348   H     0.02660   0.76456   0.01235   0.00000  Uiso   1.00
H349   H     0.31195   0.79884   0.47804   0.00000  Uiso   1.00
H350   H     0.21846   0.66641   0.00247   0.00000  Uiso   1.00
H351   H     0.20522   0.63744   0.44462   0.00000  Uiso   1.00
H352   H     0.14890   0.58472   0.48189   0.00000  Uiso   1.00
H353   H     0.21306   0.58565   0.01471   0.00000  Uiso   1.00
H354   H     0.16196   0.61388   0.03926   0.00000  Uiso   1.00
H355   H     0.19443   0.88971   0.32657   0.00000  Uiso   1.00
H356   H     0.21102   0.53011   0.19150   0.00000  Uiso   1.00
H357   H     0.19423   0.97049   0.32595   0.00000  Uiso   1.00
H358   H     0.23398   0.78905   0.13352   0.00000  Uiso   1.00
H359   H     0.14395   0.68263   0.37299   0.00000  Uiso   1.00
H360   H     0.09913   0.71122   0.11551   0.00000  Uiso   1.00
N361   N     0.16667   0.75001   0.12935   0.00000  Uiso   1.00
N362   N     0.16667   0.74999   0.37066   0.00000  Uiso   1.00
O363   O     0.16667   0.68573   0.29072   0.00000  Uiso   1.00
O364   O     0.01133   0.76264   0.31559   0.00000  Uiso   1.00
O365   O     0.11148   0.52448   0.31455   0.00000  Uiso   1.00
O366   O     0.13186   0.97487   0.16327   0.00000  Uiso   1.00
O367   O     0.24552   0.79378   0.04109   0.00000  Uiso   1.00
O368   O     0.14367   0.67148   0.46646   0.00000  Uiso   1.00
O369   O     0.16666   0.81428   0.20929   0.00000  Uiso   1.00
O370   O     0.16667   0.68573   0.20928   0.00000  Uiso   1.00
O371   O     0.16666   0.81427   0.29072   0.00000  Uiso   1.00
O372   O     0.09161   0.75000   0.28132   0.00000  Uiso   1.00
O373   O     0.24172   0.75001   0.21868   0.00000  Uiso   1.00
O374   O     0.09161   0.75000   0.19989   0.00000  Uiso   1.00
O375   O     0.24172   0.75000   0.30012   0.00000  Uiso   1.00
O376   O     0.32200   0.73761   0.18432   0.00000  Uiso   1.00
C377   C     0.49994   0.66498   0.25004   0.00000  Uiso   1.00
C378   C     0.51149   0.78813   0.44781   0.00000  Uiso   1.00
C379   C     0.50051   0.74985   0.02752   0.00000  Uiso   1.00
C380   C     0.50002   0.74954   0.47283   0.00000  Uiso   1.00
C381   C     0.40143   0.74936   0.23771   0.00000  Uiso   1.00
C382   C     0.59857   0.75065   0.26228   0.00000  Uiso   1.00
C383   C     0.34646   0.74618   0.23099   0.00000  Uiso   1.00
C384   C     0.65353   0.75389   0.26896   0.00000  Uiso   1.00
C385   C     0.47128   0.54760   0.28261   0.00000  Uiso   1.00
C386   C     0.48144   0.95259   0.20617   0.00000  Uiso   1.00
C387   C     0.47369   0.59390   0.28356   0.00000  Uiso   1.00
C388   C     0.49996   0.83511   0.24994   0.00000  Uiso   1.00
C389   C     0.48331   0.90644   0.20636   0.00000  Uiso   1.00
C390   C     0.49928   0.61683   0.25007   0.00000  Uiso   1.00
C391   C     0.49942   0.88344   0.24971   0.00000  Uiso   1.00
C392   C     0.52389   0.59361   0.21640   0.00000  Uiso   1.00
C393   C     0.51478   0.90688   0.29283   0.00000  Uiso   1.00
C394   C     0.52387   0.54766   0.21684   0.00000  Uiso   1.00
C395   C     0.51450   0.95285   0.29255   0.00000  Uiso   1.00
C396   C     0.49784   0.52446   0.24988   0.00000  Uiso   1.00
C397   C     0.49793   0.97595   0.24941   0.00000  Uiso   1.00
C398   C     0.65641   0.69159   0.17596   0.00000  Uiso   1.00
C399   C     0.53971   0.77138   0.05916   0.00000  Uiso   1.00
C400   C     0.34333   0.80867   0.32380   0.00000  Uiso   1.00
C401   C     0.39187   0.53345   0.30382   0.00000  Uiso   1.00
C402   C     0.36202   0.99800   0.32718   0.00000  Uiso   1.00
C403   C     0.41130   0.97793   0.15766   0.00000  Uiso   1.00
C404   C     0.39342   0.50746   0.11421   0.00000  Uiso   1.00
C405   C     0.61989   0.76431   0.03915   0.00000  Uiso   1.00
C406   C     0.66123   0.78763   0.01521   0.00000  Uiso   1.00
C407   C     0.52255   0.64710   0.47825   0.00000  Uiso   1.00
C408   C     0.51082   0.60519   0.00522   0.00000  Uiso   1.00
C409   C     0.48867   0.71076   0.44479   0.00000  Uiso   1.00
C410   C     0.53790   0.77163   0.10979   0.00000  Uiso   1.00
C411   C     0.48765   0.71226   0.39377   0.00000  Uiso   1.00
C412   C     0.46241   0.72834   0.09979   0.00000  Uiso   1.00
C413   C     0.51209   0.78750   0.39719   0.00000  Uiso   1.00
C414   C     0.46177   0.72816   0.04902   0.00000  Uiso   1.00
Cu415  Cu    0.50000   0.75000   0.29822   0.00000  Uiso   1.00
Cu416  Cu    0.50000   0.75001   0.20179   0.00000  Uiso   1.00
H417   H     0.45479   0.61191   0.30974   0.00000  Uiso   1.00
H418   H     0.52206   0.81750   0.37939   0.00000  Uiso   1.00
H419   H     0.43062   0.71146   0.02674   0.00000  Uiso   1.00
H420   H     0.51965   0.81897   0.46713   0.00000  Uiso   1.00
H421   H     0.63740   0.67286   0.20321   0.00000  Uiso   1.00
H422   H     0.36292   0.67960   0.17591   0.00000  Uiso   1.00
H423   H     0.63487   0.68463   0.13951   0.00000  Uiso   1.00
H424   H     0.63676   0.82053   0.32379   0.00000  Uiso   1.00
H425   H     0.36227   0.82741   0.29650   0.00000  Uiso   1.00
H426   H     0.36481   0.81579   0.36023   0.00000  Uiso   1.00
H427   H     0.37850   0.53315   0.26383   0.00000  Uiso   1.00
H428   H     0.47125   0.88874   0.17278   0.00000  Uiso   1.00
H429   H     0.38303   0.56613   0.31901   0.00000  Uiso   1.00
H430   H     0.37334   0.99791   0.36729   0.00000  Uiso   1.00
H431   H     0.65365   0.50472   0.31911   0.00000  Uiso   1.00
H432   H     0.36993   0.96493   0.31246   0.00000  Uiso   1.00
H433   H     0.39787   0.99284   0.19040   0.00000  Uiso   1.00
H434   H     0.39350   0.94462   0.15091   0.00000  Uiso   1.00
H435   H     0.40545   0.99329   0.08064   0.00000  Uiso   1.00
H436   H     0.35101   0.51008   0.10934   0.00000  Uiso   1.00
H437   H     0.41026   0.54109   0.12029   0.00000  Uiso   1.00
H438   H     0.60738   0.73446   0.01705   0.00000  Uiso   1.00
H439   H     0.54409   0.61102   0.19052   0.00000  Uiso   1.00
H440   H     0.63667   0.75390   0.07649   0.00000  Uiso   1.00
H441   H     0.34272   0.81673   0.03724   0.00000  Uiso   1.00
H442   H     0.35993   0.76456   0.01235   0.00000  Uiso   1.00
H443   H     0.64528   0.79884   0.47804   0.00000  Uiso   1.00
H444   H     0.55180   0.66641   0.00247   0.00000  Uiso   1.00
H445   H     0.53855   0.63744   0.44462   0.00000  Uiso   1.00
H446   H     0.48224   0.58472   0.48189   0.00000  Uiso   1.00
H447   H     0.54639   0.58565   0.01471   0.00000  Uiso   1.00
H448   H     0.49529   0.61388   0.03926   0.00000  Uiso   1.00
H449   H     0.52777   0.88971   0.32657   0.00000  Uiso   1.00
H450   H     0.54436   0.53011   0.19150   0.00000  Uiso   1.00
H451   H     0.52756   0.97049   0.32595   0.00000  Uiso   1.00
H452   H     0.56731   0.78905   0.13352   0.00000  Uiso   1.00
H453   H     0.47728   0.68263   0.37299   0.00000  Uiso   1.00
H454   H     0.43247   0.71122   0.11551   0.00000  Uiso   1.00
N455   N     0.50000   0.75001   0.12935   0.00000  Uiso   1.00
N456   N     0.50000   0.74999   0.37066   0.00000  Uiso   1.00
O457   O     0.50000   0.68573   0.29072   0.00000  Uiso   1.00
O458   O     0.34467   0.76264   0.31559   0.00000  Uiso   1.00
O459   O     0.44481   0.52448   0.31455   0.00000  Uiso   1.00
O460   O     0.46519   0.97487   0.16327   0.00000  Uiso   1.00
O461   O     0.57886   0.79378   0.04109   0.00000  Uiso   1.00
O462   O     0.47700   0.67148   0.46646   0.00000  Uiso   1.00
O463   O     0.50000   0.81428   0.20929   0.00000  Uiso   1.00
O464   O     0.50000   0.68573   0.20928   0.00000  Uiso   1.00
O465   O     0.50000   0.81427   0.29072   0.00000  Uiso   1.00
O466   O     0.42495   0.75000   0.28132   0.00000  Uiso   1.00
O467   O     0.57505   0.75001   0.21868   0.00000  Uiso   1.00
O468   O     0.42495   0.75000   0.19989   0.00000  Uiso   1.00
O469   O     0.57505   0.75000   0.30012   0.00000  Uiso   1.00
O470   O     0.65534   0.73761   0.18432   0.00000  Uiso   1.00
C471   C     0.83327   0.66498   0.25004   0.00000  Uiso   1.00
C472   C     0.84483   0.78813   0.44781   0.00000  Uiso   1.00
C473   C     0.83384   0.74985   0.02752   0.00000  Uiso   1.00
C474   C     0.83335   0.74954   0.47283   0.00000  Uiso   1.00
C475   C     0.73477   0.74936   0.23771   0.00000  Uiso   1.00
C476   C     0.93190   0.75065   0.26228   0.00000  Uiso   1.00
C477   C     0.67980   0.74618   0.23099   0.00000  Uiso   1.00
C478   C     0.98686   0.75389   0.26896   0.00000  Uiso   1.00
C479   C     0.80462   0.54760   0.28261   0.00000  Uiso   1.00
C480   C     0.81477   0.95259   0.20617   0.00000  Uiso   1.00
C481   C     0.80702   0.59390   0.28356   0.00000  Uiso   1.00
C482   C     0.83330   0.83511   0.24994   0.00000  Uiso   1.00
C483   C     0.81664   0.90644   0.20636   0.00000  Uiso   1.00
C484   C     0.83262   0.61683   0.25007   0.00000  Uiso   1.00
C485   C     0.83276   0.88344   0.24971   0.00000  Uiso   1.00
C486   C     0.85723   0.59361   0.21640   0.00000  Uiso   1.00
C487   C     0.84811   0.90688   0.29283   0.00000  Uiso   1.00
C488   C     0.85721   0.54766   0.21684   0.00000  Uiso   1.00
C489   C     0.84783   0.95285   0.29255   0.00000  Uiso   1.00
C490   C     0.83118   0.52446   0.24988   0.00000  Uiso   1.00
C491   C     0.83126   0.97595   0.24941   0.00000  Uiso   1.00
C492   C     0.98974   0.69159   0.17596   0.00000  Uiso   1.00
C493   C     0.87305   0.77138   0.05916   0.00000  Uiso   1.00
C494   C     0.67667   0.80867   0.32380   0.00000  Uiso   1.00
C495   C     0.72521   0.53345   0.30382   0.00000  Uiso   1.00
C496   C     0.69535   0.99800   0.32718   0.00000  Uiso   1.00
C497   C     0.74463   0.97793   0.15766   0.00000  Uiso   1.00
C498   C     0.72675   0.50746   0.11421   0.00000  Uiso   1.00
C499   C     0.95322   0.76431   0.03915   0.00000  Uiso   1.00
C500   C     0.99456   0.78763   0.01521   0.00000  Uiso   1.00
C501   C     0.85589   0.64710   0.47825   0.00000  Uiso   1.00
C502   C     0.84416   0.60519   0.00522   0.00000  Uiso   1.00
C503   C     0.82201   0.71076   0.44479   0.00000  Uiso   1.00
C504   C     0.87123   0.77163   0.10979   0.00000  Uiso   1.00
C505   C     0.82098   0.71226   0.39377   0.00000  Uiso   1.00
C506   C     0.79574   0.72834   0.09979   0.00000  Uiso   1.00
C507   C     0.84542   0.78750   0.39719   0.00000  Uiso   1.00
C508   C     0.79510   0.72816   0.04902   0.00000  Uiso   1.00
Cu509  Cu    0.83333   0.75000   0.29822   0.00000  Uiso   1.00
Cu510  Cu    0.83333   0.75001   0.20179   0.00000  Uiso   1.00
H511   H     0.78813   0.61191   0.30974   0.00000  Uiso   1.00
H512   H     0.85540   0.81750   0.37939   0.00000  Uiso   1.00
H513   H     0.76395   0.71146   0.02674   0.00000  Uiso   1.00
H514   H     0.85298   0.81897   0.46713   0.00000  Uiso   1.00
H515   H     0.97073   0.67286   0.20321   0.00000  Uiso   1.00
H516   H     0.69625   0.67960   0.17591   0.00000  Uiso   1.00
H517   H     0.96820   0.68463   0.13951   0.00000  Uiso   1.00
H518   H     0.97009   0.82053   0.32379   0.00000  Uiso   1.00
H519   H     0.69560   0.82741   0.29650   0.00000  Uiso   1.00
H520   H     0.69814   0.81579   0.36023   0.00000  Uiso   1.00
H521   H     0.71184   0.53315   0.26383   0.00000  Uiso   1.00
H522   H     0.80458   0.88874   0.17278   0.00000  Uiso   1.00
H523   H     0.71637   0.56613   0.31901   0.00000  Uiso   1.00
H524   H     0.70668   0.99791   0.36729   0.00000  Uiso   1.00
H525   H     0.98698   0.50472   0.31911   0.00000  Uiso   1.00
H526   H     0.70327   0.96493   0.31246   0.00000  Uiso   1.00
H527   H     0.73120   0.99284   0.19040   0.00000  Uiso   1.00
H528   H     0.72684   0.94462   0.15091   0.00000  Uiso   1.00
H529   H     0.73878   0.99329   0.08064   0.00000  Uiso   1.00
H530   H     0.68434   0.51008   0.10934   0.00000  Uiso   1.00
H531   H     0.74359   0.54109   0.12029   0.00000  Uiso   1.00
H532   H     0.94072   0.73446   0.01705   0.00000  Uiso   1.00
H533   H     0.87742   0.61102   0.19052   0.00000  Uiso   1.00
H534   H     0.97000   0.75390   0.07649   0.00000  Uiso   1.00
H535   H     0.67606   0.81673   0.03724   0.00000  Uiso   1.00
H536   H     0.69327   0.76456   0.01235   0.00000  Uiso   1.00
H537   H     0.97862   0.79884   0.47804   0.00000  Uiso   1.00
H538   H     0.88513   0.66641   0.00247   0.00000  Uiso   1.00
H539   H     0.87189   0.63744   0.44462   0.00000  Uiso   1.00
H540   H     0.81557   0.58472   0.48189   0.00000  Uiso   1.00
H541   H     0.87973   0.58565   0.01471   0.00000  Uiso   1.00
H542   H     0.82863   0.61388   0.03926   0.00000  Uiso   1.00
H543   H     0.86110   0.88971   0.32657   0.00000  Uiso   1.00
H544   H     0.87769   0.53011   0.19150   0.00000  Uiso   1.00
H545   H     0.86089   0.97049   0.32595   0.00000  Uiso   1.00
H546   H     0.90065   0.78905   0.13352   0.00000  Uiso   1.00
H547   H     0.81061   0.68263   0.37299   0.00000  Uiso   1.00
H548   H     0.76580   0.71122   0.11551   0.00000  Uiso   1.00
N549   N     0.83333   0.75001   0.12935   0.00000  Uiso   1.00
N550   N     0.83333   0.74999   0.37066   0.00000  Uiso   1.00
O551   O     0.83334   0.68573   0.29072   0.00000  Uiso   1.00
O552   O     0.67800   0.76264   0.31559   0.00000  Uiso   1.00
O553   O     0.77814   0.52448   0.31455   0.00000  Uiso   1.00
O554   O     0.79853   0.97487   0.16327   0.00000  Uiso   1.00
O555   O     0.91219   0.79378   0.04109   0.00000  Uiso   1.00
O556   O     0.81033   0.67148   0.46646   0.00000  Uiso   1.00
O557   O     0.83333   0.81428   0.20929   0.00000  Uiso   1.00
O558   O     0.83334   0.68573   0.20928   0.00000  Uiso   1.00
O559   O     0.83333   0.81427   0.29072   0.00000  Uiso   1.00
O560   O     0.75828   0.75000   0.28132   0.00000  Uiso   1.00
O561   O     0.90839   0.75001   0.21868   0.00000  Uiso   1.00
O562   O     0.75828   0.75000   0.19989   0.00000  Uiso   1.00
O563   O     0.90839   0.75000   0.30012   0.00000  Uiso   1.00
O564   O     0.98867   0.73761   0.18432   0.00000  Uiso   1.00
C565   C     0.16661   0.16498   0.75004   0.00000  Uiso   1.00
C566   C     0.17816   0.28813   0.94781   0.00000  Uiso   1.00
C567   C     0.16718   0.24985   0.52752   0.00000  Uiso   1.00
C568   C     0.16668   0.24954   0.97283   0.00000  Uiso   1.00
C569   C     0.06810   0.24936   0.73771   0.00000  Uiso   1.00
C570   C     0.26523   0.25065   0.76228   0.00000  Uiso   1.00
C571   C     0.01313   0.24618   0.73099   0.00000  Uiso   1.00
C572   C     0.32020   0.25389   0.76896   0.00000  Uiso   1.00
C573   C     0.13795   0.04760   0.78261   0.00000  Uiso   1.00
C574   C     0.14811   0.45259   0.70617   0.00000  Uiso   1.00
C575   C     0.14035   0.09390   0.78356   0.00000  Uiso   1.00
C576   C     0.16663   0.33511   0.74994   0.00000  Uiso   1.00
C577   C     0.14998   0.40644   0.70636   0.00000  Uiso   1.00
C578   C     0.16595   0.11683   0.75007   0.00000  Uiso   1.00
C579   C     0.16609   0.38344   0.74971   0.00000  Uiso   1.00
C580   C     0.19056   0.09361   0.71640   0.00000  Uiso   1.00
C581   C     0.18145   0.40688   0.79283   0.00000  Uiso   1.00
C582   C     0.19054   0.04766   0.71684   0.00000  Uiso   1.00
C583   C     0.18117   0.45285   0.79255   0.00000  Uiso   1.00
C584   C     0.16451   0.02446   0.74988   0.00000  Uiso   1.00
C585   C     0.16460   0.47595   0.74941   0.00000  Uiso   1.00
C586   C     0.32308   0.19159   0.67596   0.00000  Uiso   1.00
C587   C     0.20638   0.27138   0.55916   0.00000  Uiso   1.00
C588   C     0.01000   0.30867   0.82380   0.00000  Uiso   1.00
C589   C     0.05854   0.03345   0.80382   0.00000  Uiso   1.00
C590   C     0.02868   0.49800   0.82718   0.00000  Uiso   1.00
C591   C     0.07797   0.47793   0.65766   0.00000  Uiso   1.00
C592   C     0.06008   0.00746   0.61421   0.00000  Uiso   1.00
C593   C     0.28655   0.26431   0.53915   0.00000  Uiso   1.00
C594   C     0.32789   0.28763   0.51521   0.00000  Uiso   1.00
C595   C     0.18922   0.14710   0.97825   0.00000  Uiso   1.00
C596   C     0.17749   0.10519   0.50522   0.00000  Uiso   1.00
C597   C     0.15534   0.21076   0.94479   0.00000  Uiso   1.00
C598   C     0.20456   0.27163   0.60979   0.00000  Uiso   1.00
C599   C     0.15431   0.21226   0.89377   0.00000  Uiso   1.00
C600   C     0.12908   0.22834   0.59979   0.00000  Uiso   1.00
C601   C     0.17875   0.28750   0.89719   0.00000  Uiso   1.00
C602   C     0.12843   0.22816   0.54902   0.00000  Uiso   1.00
Cu603  Cu    0.16667   0.25000   0.79822   0.00000  Uiso   1.00
Cu604  Cu    0.16667   0.25001   0.70179   0.00000  Uiso   1.00
H605   H     0.12146   0.11191   0.80974   0.00000  Uiso   1.00
H606   H     0.18873   0.31750   0.87939   0.00000  Uiso   1.00
H607   H     0.09728   0.21146   0.52674   0.00000  Uiso   1.00
H608   H     0.18631   0.31897   0.96713   0.00000  Uiso   1.00
H609   H     0.30407   0.17286   0.70321   0.00000  Uiso   1.00
H610   H     0.02958   0.17960   0.67591   0.00000  Uiso   1.00
H611   H     0.30154   0.18463   0.63951   0.00000  Uiso   1.00
H612   H     0.30343   0.32053   0.82379   0.00000  Uiso   1.00
H613   H     0.02893   0.32741   0.79650   0.00000  Uiso   1.00
H614   H     0.03148   0.31579   0.86023   0.00000  Uiso   1.00
H615   H     0.04517   0.03315   0.76383   0.00000  Uiso   1.00
H616   H     0.13791   0.38874   0.67278   0.00000  Uiso   1.00
H617   H     0.04970   0.06613   0.81901   0.00000  Uiso   1.00
H618   H     0.04001   0.49791   0.86729   0.00000  Uiso   1.00
H619   H     0.32031   0.00472   0.81911   0.00000  Uiso   1.00
H620   H     0.03660   0.46493   0.81246   0.00000  Uiso   1.00
H621   H     0.06453   0.49284   0.69040   0.00000  Uiso   1.00
H622   H     0.06017   0.44462   0.65091   0.00000  Uiso   1.00
H623   H     0.07211   0.49329   0.58064   0.00000  Uiso   1.00
H624   H     0.01768   0.01008   0.60934   0.00000  Uiso   1.00
H625   H     0.07693   0.04109   0.62029   0.00000  Uiso   1.00
H626   H     0.27405   0.23446   0.51705   0.00000  Uiso   1.00
H627   H     0.21075   0.11102   0.69052   0.00000  Uiso   1.00
H628   H     0.30333   0.25390   0.57649   0.00000  Uiso   1.00
H629   H     0.00939   0.31673   0.53724   0.00000  Uiso   1.00
H630   H     0.02660   0.26456   0.51235   0.00000  Uiso   1.00
H631   H     0.31195   0.29884   0.97804   0.00000  Uiso   1.00
H632   H     0.21846   0.16641   0.50247   0.00000  Uiso   1.00
H633   H     0.20522   0.13744   0.94462   0.00000  Uiso   1.00
H634   H     0.14890   0.08472   0.98189   0.00000  Uiso   1.00
H635   H     0.21306   0.08565   0.51471   0.00000  Uiso   1.00
H636   H     0.16196   0.11388   0.53926   0.00000  Uiso   1.00
H637   H     0.19443   0.38971   0.82657   0.00000  Uiso   1.00
H638   H     0.21102   0.03011   0.69150   0.00000  Uiso   1.00
H639   H     0.19423   0.47049   0.82595   0.00000  Uiso   1.00
H640   H     0.23398   0.28905   0.63352   0.00000  Uiso   1.00
H641   H     0.14395   0.18263   0.87299   0.00000  Uiso   1.00
H642   H     0.09913   0.21122   0.61551   0.00000  Uiso   1.00
N643   N     0.16667   0.25001   0.62935   0.00000  Uiso   1.00
N644   N     0.16667   0.24999   0.87066   0.00000  Uiso   1.00
O645   O     0.16667   0.18573   0.79072   0.00000  Uiso   1.00
O646   O     0.01133   0.26264   0.81559   0.00000  Uiso   1.00
O647   O     0.11148   0.02448   0.81455   0.00000  Uiso   1.00
O648   O     0.13186   0.47487   0.66327   0.00000  Uiso   1.00
O649   O     0.24552   0.29378   0.54109   0.00000  Uiso   1.00
O650   O     0.14367   0.17148   0.96646   0.00000  Uiso   1.00
O651   O     0.16666   0.31428   0.70929   0.00000  Uiso   1.00
O652   O     0.16667   0.18573   0.70928   0.00000  Uiso   1.00
O653   O     0.16666   0.31427   0.79072   0.00000  Uiso   1.00
O654   O     0.09161   0.25000   0.78132   0.00000  Uiso   1.00
O655   O     0.24172   0.25001   0.71868   0.00000  Uiso   1.00
O656   O     0.09161   0.25000   0.69989   0.00000  Uiso   1.00
O657   O     0.24172   0.25000   0.80012   0.00000  Uiso   1.00
O658   O     0.32200   0.23761   0.68432   0.00000  Uiso   1.00
C659   C     0.49994   0.16498   0.75004   0.00000  Uiso   1.00
C660   C     0.51149   0.28813   0.94781   0.00000  Uiso   1.00
C661   C     0.50051   0.24985   0.52752   0.00000  Uiso   1.00
C662   C     0.50002   0.24954   0.97283   0.00000  Uiso   1.00
C663   C     0.40143   0.24936   0.73771   0.00000  Uiso   1.00
C664   C     0.59857   0.25065   0.76228   0.00000  Uiso   1.00
C665   C     0.34646   0.24618   0.73099   0.00000  Uiso   1.00
C666   C     0.65353   0.25389   0.76896   0.00000  Uiso   1.00
C667   C     0.47128   0.04760   0.78261   0.00000  Uiso   1.00
C668   C     0.48144   0.45259   0.70617   0.00000  Uiso   1.00
C669   C     0.47369   0.09390   0.78356   0.00000  Uiso   1.00
C670   C     0.49996   0.33511   0.74994   0.00000  Uiso   1.00
C671   C     0.48331   0.40644   0.70636   0.00000  Uiso   1.00
C672   C     0.49928   0.11683   0.75007   0.00000  Uiso   1.00
C673   C     0.49942   0.38344   0.74971   0.00000  Uiso   1.00
C674   C     0.52389   0.09361   0.71640   0.00000  Uiso   1.00
C675   C     0.51478   0.40688   0.79283   0.00000  Uiso   1.00
C676   C     0.52387   0.04766   0.71684   0.00000  Uiso   1.00
C677   C     0.51450   0.45285   0.79255   0.00000  Uiso   1.00
C678   C     0.49784   0.02446   0.74988   0.00000  Uiso   1.00
C679   C     0.49793   0.47595   0.74941   0.00000  Uiso   1.00
C680   C     0.65641   0.19159   0.67596   0.00000  Uiso   1.00
C681   C     0.53971   0.27138   0.55916   0.00000  Uiso   1.00
C682   C     0.34333   0.30867   0.82380   0.00000  Uiso   1.00
C683   C     0.39187   0.03345   0.80382   0.00000  Uiso   1.00
C684   C     0.36202   0.49800   0.82718   0.00000  Uiso   1.00
C685   C     0.41130   0.47793   0.65766   0.00000  Uiso   1.00
C686   C     0.39342   0.00746   0.61421   0.00000  Uiso   1.00
C687   C     0.61989   0.26431   0.53915   0.00000  Uiso   1.00
C688   C     0.66123   0.28763   0.51521   0.00000  Uiso   1.00
C689   C     0.52255   0.14710   0.97825   0.00000  Uiso   1.00
C690   C     0.51082   0.10519   0.50522   0.00000  Uiso   1.00
C691   C     0.48867   0.21076   0.94479   0.00000  Uiso   1.00
C692   C     0.53790   0.27163   0.60979   0.00000  Uiso   1.00
C693   C     0.48765   0.21226   0.89377   0.00000  Uiso   1.00
C694   C     0.46241   0.22834   0.59979   0.00000  Uiso   1.00
C695   C     0.51209   0.28750   0.89719   0.00000  Uiso   1.00
C696   C     0.46177   0.22816   0.54902   0.00000  Uiso   1.00
Cu697  Cu    0.50000   0.25000   0.79822   0.00000  Uiso   1.00
Cu698  Cu    0.50000   0.25001   0.70179   0.00000  Uiso   1.00
H699   H     0.45479   0.11191   0.80974   0.00000  Uiso   1.00
H700   H     0.52206   0.31750   0.87939   0.00000  Uiso   1.00
H701   H     0.43062   0.21146   0.52674   0.00000  Uiso   1.00
H702   H     0.51965   0.31897   0.96713   0.00000  Uiso   1.00
H703   H     0.63740   0.17286   0.70321   0.00000  Uiso   1.00
H704   H     0.36292   0.17960   0.67591   0.00000  Uiso   1.00
H705   H     0.63487   0.18463   0.63951   0.00000  Uiso   1.00
H706   H     0.63676   0.32053   0.82379   0.00000  Uiso   1.00
H707   H     0.36227   0.32741   0.79650   0.00000  Uiso   1.00
H708   H     0.36481   0.31579   0.86023   0.00000  Uiso   1.00
H709   H     0.37850   0.03315   0.76383   0.00000  Uiso   1.00
H710   H     0.47125   0.38874   0.67278   0.00000  Uiso   1.00
H711   H     0.38303   0.06613   0.81901   0.00000  Uiso   1.00
H712   H     0.37334   0.49791   0.86729   0.00000  Uiso   1.00
H713   H     0.65365   0.00472   0.81911   0.00000  Uiso   1.00
H714   H     0.36993   0.46493   0.81246   0.00000  Uiso   1.00
H715   H     0.39787   0.49284   0.69040   0.00000  Uiso   1.00
H716   H     0.39350   0.44462   0.65091   0.00000  Uiso   1.00
H717   H     0.40545   0.49329   0.58064   0.00000  Uiso   1.00
H718   H     0.35101   0.01008   0.60934   0.00000  Uiso   1.00
H719   H     0.41026   0.04109   0.62029   0.00000  Uiso   1.00
H720   H     0.60738   0.23446   0.51705   0.00000  Uiso   1.00
H721   H     0.54409   0.11102   0.69052   0.00000  Uiso   1.00
H722   H     0.63667   0.25390   0.57649   0.00000  Uiso   1.00
H723   H     0.34272   0.31673   0.53724   0.00000  Uiso   1.00
H724   H     0.35993   0.26456   0.51235   0.00000  Uiso   1.00
H725   H     0.64528   0.29884   0.97804   0.00000  Uiso   1.00
H726   H     0.55180   0.16641   0.50247   0.00000  Uiso   1.00
H727   H     0.53855   0.13744   0.94462   0.00000  Uiso   1.00
H728   H     0.48224   0.08472   0.98189   0.00000  Uiso   1.00
H729   H     0.54639   0.08565   0.51471   0.00000  Uiso   1.00
H730   H     0.49529   0.11388   0.53926   0.00000  Uiso   1.00
H731   H     0.52777   0.38971   0.82657   0.00000  Uiso   1.00
H732   H     0.54436   0.03011   0.69150   0.00000  Uiso   1.00
H733   H     0.52756   0.47049   0.82595   0.00000  Uiso   1.00
H734   H     0.56731   0.28905   0.63352   0.00000  Uiso   1.00
H735   H     0.47728   0.18263   0.87299   0.00000  Uiso   1.00
H736   H     0.43247   0.21122   0.61551   0.00000  Uiso   1.00
N737   N     0.50000   0.25001   0.62935   0.00000  Uiso   1.00
N738   N     0.50000   0.24999   0.87066   0.00000  Uiso   1.00
O739   O     0.50000   0.18573   0.79072   0.00000  Uiso   1.00
O740   O     0.34467   0.26264   0.81559   0.00000  Uiso   1.00
O741   O     0.44481   0.02448   0.81455   0.00000  Uiso   1.00
O742   O     0.46519   0.47487   0.66327   0.00000  Uiso   1.00
O743   O     0.57886   0.29378   0.54109   0.00000  Uiso   1.00
O744   O     0.47700   0.17148   0.96646   0.00000  Uiso   1.00
O745   O     0.50000   0.31428   0.70929   0.00000  Uiso   1.00
O746   O     0.50000   0.18573   0.70928   0.00000  Uiso   1.00
O747   O     0.50000   0.31427   0.79072   0.00000  Uiso   1.00
O748   O     0.42495   0.25000   0.78132   0.00000  Uiso   1.00
O749   O     0.57505   0.25001   0.71868   0.00000  Uiso   1.00
O750   O     0.42495   0.25000   0.69989   0.00000  Uiso   1.00
O751   O     0.57505   0.25000   0.80012   0.00000  Uiso   1.00
O752   O     0.65534   0.23761   0.68432   0.00000  Uiso   1.00
C753   C     0.83327   0.16498   0.75004   0.00000  Uiso   1.00
C754   C     0.84483   0.28813   0.94781   0.00000  Uiso   1.00
C755   C     0.83384   0.24985   0.52752   0.00000  Uiso   1.00
C756   C     0.83335   0.24954   0.97283   0.00000  Uiso   1.00
C757   C     0.73477   0.24936   0.73771   0.00000  Uiso   1.00
C758   C     0.93190   0.25065   0.76228   0.00000  Uiso   1.00
C759   C     0.67980   0.24618   0.73099   0.00000  Uiso   1.00
C760   C     0.98686   0.25389   0.76896   0.00000  Uiso   1.00
C761   C     0.80462   0.04760   0.78261   0.00000  Uiso   1.00
C762   C     0.81477   0.45259   0.70617   0.00000  Uiso   1.00
C763   C     0.80702   0.09390   0.78356   0.00000  Uiso   1.00
C764   C     0.83330   0.33511   0.74994   0.00000  Uiso   1.00
C765   C     0.81664   0.40644   0.70636   0.00000  Uiso   1.00
C766   C     0.83262   0.11683   0.75007   0.00000  Uiso   1.00
C767   C     0.83276   0.38344   0.74971   0.00000  Uiso   1.00
C768   C     0.85723   0.09361   0.71640   0.00000  Uiso   1.00
C769   C     0.84811   0.40688   0.79283   0.00000  Uiso   1.00
C770   C     0.85721   0.04766   0.71684   0.00000  Uiso   1.00
C771   C     0.84783   0.45285   0.79255   0.00000  Uiso   1.00
C772   C     0.83118   0.02446   0.74988   0.00000  Uiso   1.00
C773   C     0.83126   0.47595   0.74941   0.00000  Uiso   1.00
C774   C     0.98974   0.19159   0.67596   0.00000  Uiso   1.00
C775   C     0.87305   0.27138   0.55916   0.00000  Uiso   1.00
C776   C     0.67667   0.30867   0.82380   0.00000  Uiso   1.00
C777   C     0.72521   0.03345   0.80382   0.00000  Uiso   1.00
C778   C     0.69535   0.49800   0.82718   0.00000  Uiso   1.00
C779   C     0.74463   0.47793   0.65766   0.00000  Uiso   1.00
C780   C     0.72675   0.00746   0.61421   0.00000  Uiso   1.00
C781   C     0.95322   0.26431   0.53915   0.00000  Uiso   1.00
C782   C     0.99456   0.28763   0.51521   0.00000  Uiso   1.00
C783   C     0.85589   0.14710   0.97825   0.00000  Uiso   1.00
C784   C     0.84416   0.10519   0.50522   0.00000  Uiso   1.00
C785   C     0.82201   0.21076   0.94479   0.00000  Uiso   1.00
C786   C     0.87123   0.27163   0.60979   0.00000  Uiso   1.00
C787   C     0.82098   0.21226   0.89377   0.00000  Uiso   1.00
C788   C     0.79574   0.22834   0.59979   0.00000  Uiso   1.00
C789   C     0.84542   0.28750   0.89719   0.00000  Uiso   1.00
C790   C     0.79510   0.22816   0.54902   0.00000  Uiso   1.00
Cu791  Cu    0.83333   0.25000   0.79822   0.00000  Uiso   1.00
Cu792  Cu    0.83333   0.25001   0.70179   0.00000  Uiso   1.00
H793   H     0.78813   0.11191   0.80974   0.00000  Uiso   1.00
H794   H     0.85540   0.31750   0.87939   0.00000  Uiso   1.00
H795   H     0.76395   0.21146   0.52674   0.00000  Uiso   1.00
H796   H     0.85298   0.31897   0.96713   0.00000  Uiso   1.00
H797   H     0.97073   0.17286   0.70321   0.00000  Uiso   1.00
H798   H     0.69625   0.17960   0.67591   0.00000  Uiso   1.00
H799   H     0.96820   0.18463   0.63951   0.00000  Uiso   1.00
H800   H     0.97009   0.32053   0.82379   0.00000  Uiso   1.00
H801   H     0.69560   0.32741   0.79650   0.00000  Uiso   1.00
H802   H     0.69814   0.31579   0.86023   0.00000  Uiso   1.00
H803   H     0.71184   0.03315   0.76383   0.00000  Uiso   1.00
H804   H     0.80458   0.38874   0.67278   0.00000  Uiso   1.00
H805   H     0.71637   0.06613   0.81901   0.00000  Uiso   1.00
H806   H     0.70668   0.49791   0.86729   0.00000  Uiso   1.00
H807   H     0.98698   0.00472   0.81911   0.00000  Uiso   1.00
H808   H     0.70327   0.46493   0.81246   0.00000  Uiso   1.00
H809   H     0.73120   0.49284   0.69040   0.00000  Uiso   1.00
H810   H     0.72684   0.44462   0.65091   0.00000  Uiso   1.00
H811   H     0.73878   0.49329   0.58064   0.00000  Uiso   1.00
H812   H     0.68434   0.01008   0.60934   0.00000  Uiso   1.00
H813   H     0.74359   0.04109   0.62029   0.00000  Uiso   1.00
H814   H     0.94072   0.23446   0.51705   0.00000  Uiso   1.00
H815   H     0.87742   0.11102   0.69052   0.00000  Uiso   1.00
H816   H     0.97000   0.25390   0.57649   0.00000  Uiso   1.00
H817   H     0.67606   0.31673   0.53724   0.00000  Uiso   1.00
H818   H     0.69327   0.26456   0.51235   0.00000  Uiso   1.00
H819   H     0.97862   0.29884   0.97804   0.00000  Uiso   1.00
H820   H     0.88513   0.16641   0.50247   0.00000  Uiso   1.00
H821   H     0.87189   0.13744   0.94462   0.00000  Uiso   1.00
H822   H     0.81557   0.08472   0.98189   0.00000  Uiso   1.00
H823   H     0.87973   0.08565   0.51471   0.00000  Uiso   1.00
H824   H     0.82863   0.11388   0.53926   0.00000  Uiso   1.00
H825   H     0.86110   0.38971   0.82657   0.00000  Uiso   1.00
H826   H     0.87769   0.03011   0.69150   0.00000  Uiso   1.00
H827   H     0.86089   0.47049   0.82595   0.00000  Uiso   1.00
H828   H     0.90065   0.28905   0.63352   0.00000  Uiso   1.00
H829   H     0.81061   0.18263   0.87299   0.00000  Uiso   1.00
H830   H     0.76580   0.21122   0.61551   0.00000  Uiso   1.00
N831   N     0.83333   0.25001   0.62935   0.00000  Uiso   1.00
N832   N     0.83333   0.24999   0.87066   0.00000  Uiso   1.00
O833   O     0.83334   0.18573   0.79072   0.00000  Uiso   1.00
O834   O     0.67800   0.26264   0.81559   0.00000  Uiso   1.00
O835   O     0.77814   0.02448   0.81455   0.00000  Uiso   1.00
O836   O     0.79853   0.47487   0.66327   0.00000  Uiso   1.00
O837   O     0.91219   0.29378   0.54109   0.00000  Uiso   1.00
O838   O     0.81033   0.17148   0.96646   0.00000  Uiso   1.00
O839   O     0.83333   0.31428   0.70929   0.00000  Uiso   1.00
O840   O     0.83334   0.18573   0.70928   0.00000  Uiso   1.00
O841   O     0.83333   0.31427   0.79072   0.00000  Uiso   1.00
O842   O     0.75828   0.25000   0.78132   0.00000  Uiso   1.00
O843   O     0.90839   0.25001   0.71868   0.00000  Uiso   1.00
O844   O     0.75828   0.25000   0.69989   0.00000  Uiso   1.00
O845   O     0.90839   0.25000   0.80012   0.00000  Uiso   1.00
O846   O     0.98867   0.23761   0.68432   0.00000  Uiso   1.00
C847   C     0.16661   0.66498   0.75004   0.00000  Uiso   1.00
C848   C     0.17816   0.78813   0.94781   0.00000  Uiso   1.00
C849   C     0.16718   0.74985   0.52752   0.00000  Uiso   1.00
C850   C     0.16668   0.74954   0.97283   0.00000  Uiso   1.00
C851   C     0.06810   0.74936   0.73771   0.00000  Uiso   1.00
C852   C     0.26523   0.75065   0.76228   0.00000  Uiso   1.00
C853   C     0.01313   0.74618   0.73099   0.00000  Uiso   1.00
C854   C     0.32020   0.75389   0.76896   0.00000  Uiso   1.00
C855   C     0.13795   0.54760   0.78261   0.00000  Uiso   1.00
C856   C     0.14811   0.95259   0.70617   0.00000  Uiso   1.00
C857   C     0.14035   0.59390   0.78356   0.00000  Uiso   1.00
C858   C     0.16663   0.83511   0.74994   0.00000  Uiso   1.00
C859   C     0.14998   0.90644   0.70636   0.00000  Uiso   1.00
C860   C     0.16595   0.61683   0.75007   0.00000  Uiso   1.00
C861   C     0.16609   0.88344   0.74971   0.00000  Uiso   1.00
C862   C     0.19056   0.59361   0.71640   0.00000  Uiso   1.00
C863   C     0.18145   0.90688   0.79283   0.00000  Uiso   1.00
C864   C     0.19054   0.54766   0.71684   0.00000  Uiso   1.00
C865   C     0.18117   0.95285   0.79255   0.00000  Uiso   1.00
C866   C     0.16451   0.52446   0.74988   0.00000  Uiso   1.00
C867   C     0.16460   0.97595   0.74941   0.00000  Uiso   1.00
C868   C     0.32308   0.69159   0.67596   0.00000  Uiso   1.00
C869   C     0.20638   0.77138   0.55916   0.00000  Uiso   1.00
C870   C     0.01000   0.80867   0.82380   0.00000  Uiso   1.00
C871   C     0.05854   0.53345   0.80382   0.00000  Uiso   1.00
C872   C     0.02868   0.99800   0.82718   0.00000  Uiso   1.00
C873   C     0.07797   0.97793   0.65766   0.00000  Uiso   1.00
C874   C     0.06008   0.50746   0.61421   0.00000  Uiso   1.00
C875   C     0.28655   0.76431   0.53915   0.00000  Uiso   1.00
C876   C     0.32789   0.78763   0.51521   0.00000  Uiso   1.00
C877   C     0.18922   0.64710   0.97825   0.00000  Uiso   1.00
C878   C     0.17749   0.60519   0.50522   0.00000  Uiso   1.00
C879   C     0.15534   0.71076   0.94479   0.00000  Uiso   1.00
C880   C     0.20456   0.77163   0.60979   0.00000  Uiso   1.00
C881   C     0.15431   0.71226   0.89377   0.00000  Uiso   1.00
C882   C     0.12908   0.72834   0.59979   0.00000  Uiso   1.00
C883   C     0.17875   0.78750   0.89719   0.00000  Uiso   1.00
C884   C     0.12843   0.72816   0.54902   0.00000  Uiso   1.00
Cu885  Cu    0.16667   0.75000   0.79822   0.00000  Uiso   1.00
Cu886  Cu    0.16667   0.75001   0.70179   0.00000  Uiso   1.00
H887   H     0.12146   0.61191   0.80974   0.00000  Uiso   1.00
H888   H     0.18873   0.81750   0.87939   0.00000  Uiso   1.00
H889   H     0.09728   0.71146   0.52674   0.00000  Uiso   1.00
H890   H     0.18631   0.81897   0.96713   0.00000  Uiso   1.00
H891   H     0.30407   0.67286   0.70321   0.00000  Uiso   1.00
H892   H     0.02958   0.67960   0.67591   0.00000  Uiso   1.00
H893   H     0.30154   0.68463   0.63951   0.00000  Uiso   1.00
H894   H     0.30343   0.82053   0.82379   0.00000  Uiso   1.00
H895   H     0.02893   0.82741   0.79650   0.00000  Uiso   1.00
H896   H     0.03148   0.81579   0.86023   0.00000  Uiso   1.00
H897   H     0.04517   0.53315   0.76383   0.00000  Uiso   1.00
H898   H     0.13791   0.88874   0.67278   0.00000  Uiso   1.00
H899   H     0.04970   0.56613   0.81901   0.00000  Uiso   1.00
H900   H     0.04001   0.99791   0.86729   0.00000  Uiso   1.00
H901   H     0.32031   0.50472   0.81911   0.00000  Uiso   1.00
H902   H     0.03660   0.96493   0.81246   0.00000  Uiso   1.00
H903   H     0.06453   0.99284   0.69040   0.00000  Uiso   1.00
H904   H     0.06017   0.94462   0.65091   0.00000  Uiso   1.00
H905   H     0.07211   0.99329   0.58064   0.00000  Uiso   1.00
H906   H     0.01768   0.51008   0.60934   0.00000  Uiso   1.00
H907   H     0.07693   0.54109   0.62029   0.00000  Uiso   1.00
H908   H     0.27405   0.73446   0.51705   0.00000  Uiso   1.00
H909   H     0.21075   0.61102   0.69052   0.00000  Uiso   1.00
H910   H     0.30333   0.75390   0.57649   0.00000  Uiso   1.00
H911   H     0.00939   0.81673   0.53724   0.00000  Uiso   1.00
H912   H     0.02660   0.76456   0.51235   0.00000  Uiso   1.00
H913   H     0.31195   0.79884   0.97804   0.00000  Uiso   1.00
H914   H     0.21846   0.66641   0.50247   0.00000  Uiso   1.00
H915   H     0.20522   0.63744   0.94462   0.00000  Uiso   1.00
H916   H     0.14890   0.58472   0.98189   0.00000  Uiso   1.00
H917   H     0.21306   0.58565   0.51471   0.00000  Uiso   1.00
H918   H     0.16196   0.61388   0.53926   0.00000  Uiso   1.00
H919   H     0.19443   0.88971   0.82657   0.00000  Uiso   1.00
H920   H     0.21102   0.53011   0.69150   0.00000  Uiso   1.00
H921   H     0.19423   0.97049   0.82595   0.00000  Uiso   1.00
H922   H     0.23398   0.78905   0.63352   0.00000  Uiso   1.00
H923   H     0.14395   0.68263   0.87299   0.00000  Uiso   1.00
H924   H     0.09913   0.71122   0.61551   0.00000  Uiso   1.00
N925   N     0.16667   0.75001   0.62935   0.00000  Uiso   1.00
N926   N     0.16667   0.74999   0.87066   0.00000  Uiso   1.00
O927   O     0.16667   0.68573   0.79072   0.00000  Uiso   1.00
O928   O     0.01133   0.76264   0.81559   0.00000  Uiso   1.00
O929   O     0.11148   0.52448   0.81455   0.00000  Uiso   1.00
O930   O     0.13186   0.97487   0.66327   0.00000  Uiso   1.00
O931   O     0.24552   0.79378   0.54109   0.00000  Uiso   1.00
O932   O     0.14367   0.67148   0.96646   0.00000  Uiso   1.00
O933   O     0.16666   0.81428   0.70929   0.00000  Uiso   1.00
O934   O     0.16667   0.68573   0.70928   0.00000  Uiso   1.00
O935   O     0.16666   0.81427   0.79072   0.00000  Uiso   1.00
O936   O     0.09161   0.75000   0.78132   0.00000  Uiso   1.00
O937   O     0.24172   0.75001   0.71868   0.00000  Uiso   1.00
O938   O     0.09161   0.75000   0.69989   0.00000  Uiso   1.00
O939   O     0.24172   0.75000   0.80012   0.00000  Uiso   1.00
O940   O     0.32200   0.73761   0.68432   0.00000  Uiso   1.00
C941   C     0.49994   0.66498   0.75004   0.00000  Uiso   1.00
C942   C     0.51149   0.78813   0.94781   0.00000  Uiso   1.00
C943   C     0.50051   0.74985   0.52752   0.00000  Uiso   1.00
C944   C     0.50002   0.74954   0.97283   0.00000  Uiso   1.00
C945   C     0.40143   0.74936   0.73771   0.00000  Uiso   1.00
C946   C     0.59857   0.75065   0.76228   0.00000  Uiso   1.00
C947   C     0.34646   0.74618   0.73099   0.00000  Uiso   1.00
C948   C     0.65353   0.75389   0.76896   0.00000  Uiso   1.00
C949   C     0.47128   0.54760   0.78261   0.00000  Uiso   1.00
C950   C     0.48144   0.95259   0.70617   0.00000  Uiso   1.00
C951   C     0.47369   0.59390   0.78356   0.00000  Uiso   1.00
C952   C     0.49996   0.83511   0.74994   0.00000  Uiso   1.00
C953   C     0.48331   0.90644   0.70636   0.00000  Uiso   1.00
C954   C     0.49928   0.61683   0.75007   0.00000  Uiso   1.00
C955   C     0.49942   0.88344   0.74971   0.00000  Uiso   1.00
C956   C     0.52389   0.59361   0.71640   0.00000  Uiso   1.00
C957   C     0.51478   0.90688   0.79283   0.00000  Uiso   1.00
C958   C     0.52387   0.54766   0.71684   0.00000  Uiso   1.00
C959   C     0.51450   0.95285   0.79255   0.00000  Uiso   1.00
C960   C     0.49784   0.52446   0.74988   0.00000  Uiso   1.00
C961   C     0.49793   0.97595   0.74941   0.00000  Uiso   1.00
C962   C     0.65641   0.69159   0.67596   0.00000  Uiso   1.00
C963   C     0.53971   0.77138   0.55916   0.00000  Uiso   1.00
C964   C     0.34333   0.80867   0.82380   0.00000  Uiso   1.00
C965   C     0.39187   0.53345   0.80382   0.00000  Uiso   1.00
C966   C     0.36202   0.99800   0.82718   0.00000  Uiso   1.00
C967   C     0.41130   0.97793   0.65766   0.00000  Uiso   1.00
C968   C     0.39342   0.50746   0.61421   0.00000  Uiso   1.00
C969   C     0.61989   0.76431   0.53915   0.00000  Uiso   1.00
C970   C     0.66123   0.78763   0.51521   0.00000  Uiso   1.00
C971   C     0.52255   0.64710   0.97825   0.00000  Uiso   1.00
C972   C     0.51082   0.60519   0.50522   0.00000  Uiso   1.00
C973   C     0.48867   0.71076   0.94479   0.00000  Uiso   1.00
C974   C     0.53790   0.77163   0.60979   0.00000  Uiso   1.00
C975   C     0.48765   0.71226   0.89377   0.00000  Uiso   1.00
C976   C     0.46241   0.72834   0.59979   0.00000  Uiso   1.00
C977   C     0.51209   0.78750   0.89719   0.00000  Uiso   1.00
C978   C     0.46177   0.72816   0.54902   0.00000  Uiso   1.00
Cu979  Cu    0.50000   0.75000   0.79822   0.00000  Uiso   1.00
Cu980  Cu    0.50000   0.75001   0.70179   0.00000  Uiso   1.00
H981   H     0.45479   0.61191   0.80974   0.00000  Uiso   1.00
H982   H     0.52206   0.81750   0.87939   0.00000  Uiso   1.00
H983   H     0.43062   0.71146   0.52674   0.00000  Uiso   1.00
H984   H     0.51965   0.81897   0.96713   0.00000  Uiso   1.00
H985   H     0.63740   0.67286   0.70321   0.00000  Uiso   1.00
H986   H     0.36292   0.67960   0.67591   0.00000  Uiso   1.00
H987   H     0.63487   0.68463   0.63951   0.00000  Uiso   1.00
H988   H     0.63676   0.82053   0.82379   0.00000  Uiso   1.00
H989   H     0.36227   0.82741   0.79650   0.00000  Uiso   1.00
H990   H     0.36481   0.81579   0.86023   0.00000  Uiso   1.00
H991   H     0.37850   0.53315   0.76383   0.00000  Uiso   1.00
H992   H     0.47125   0.88874   0.67278   0.00000  Uiso   1.00
H993   H     0.38303   0.56613   0.81901   0.00000  Uiso   1.00
H994   H     0.37334   0.99791   0.86729   0.00000  Uiso   1.00
H995   H     0.65365   0.50472   0.81911   0.00000  Uiso   1.00
H996   H     0.36993   0.96493   0.81246   0.00000  Uiso   1.00
H997   H     0.39787   0.99284   0.69040   0.00000  Uiso   1.00
H998   H     0.39350   0.94462   0.65091   0.00000  Uiso   1.00
H999   H     0.40545   0.99329   0.58064   0.00000  Uiso   1.00
H1000  H     0.35101   0.51008   0.60934   0.00000  Uiso   1.00
H1001  H     0.41026   0.54109   0.62029   0.00000  Uiso   1.00
H1002  H     0.60738   0.73446   0.51705   0.00000  Uiso   1.00
H1003  H     0.54409   0.61102   0.69052   0.00000  Uiso   1.00
H1004  H     0.63667   0.75390   0.57649   0.00000  Uiso   1.00
H1005  H     0.34272   0.81673   0.53724   0.00000  Uiso   1.00
H1006  H     0.35993   0.76456   0.51235   0.00000  Uiso   1.00
H1007  H     0.64528   0.79884   0.97804   0.00000  Uiso   1.00
H1008  H     0.55180   0.66641   0.50247   0.00000  Uiso   1.00
H1009  H     0.53855   0.63744   0.94462   0.00000  Uiso   1.00
H1010  H     0.48224   0.58472   0.98189   0.00000  Uiso   1.00
H1011  H     0.54639   0.58565   0.51471   0.00000  Uiso   1.00
H1012  H     0.49529   0.61388   0.53926   0.00000  Uiso   1.00
H1013  H     0.52777   0.88971   0.82657   0.00000  Uiso   1.00
H1014  H     0.54436   0.53011   0.69150   0.00000  Uiso   1.00
H1015  H     0.52756   0.97049   0.82595   0.00000  Uiso   1.00
H1016  H     0.56731   0.78905   0.63352   0.00000  Uiso   1.00
H1017  H     0.47728   0.68263   0.87299   0.00000  Uiso   1.00
H1018  H     0.43247   0.71122   0.61551   0.00000  Uiso   1.00
N1019  N     0.50000   0.75001   0.62935   0.00000  Uiso   1.00
N1020  N     0.50000   0.74999   0.87066   0.00000  Uiso   1.00
O1021  O     0.50000   0.68573   0.79072   0.00000  Uiso   1.00
O1022  O     0.34467   0.76264   0.81559   0.00000  Uiso   1.00
O1023  O     0.44481   0.52448   0.81455   0.00000  Uiso   1.00
O1024  O     0.46519   0.97487   0.66327   0.00000  Uiso   1.00
O1025  O     0.57886   0.79378   0.54109   0.00000  Uiso   1.00
O1026  O     0.47700   0.67148   0.96646   0.00000  Uiso   1.00
O1027  O     0.50000   0.81428   0.70929   0.00000  Uiso   1.00
O1028  O     0.50000   0.68573   0.70928   0.00000  Uiso   1.00
O1029  O     0.50000   0.81427   0.79072   0.00000  Uiso   1.00
O1030  O     0.42495   0.75000   0.78132   0.00000  Uiso   1.00
O1031  O     0.57505   0.75001   0.71868   0.00000  Uiso   1.00
O1032  O     0.42495   0.75000   0.69989   0.00000  Uiso   1.00
O1033  O     0.57505   0.75000   0.80012   0.00000  Uiso   1.00
O1034  O     0.65534   0.73761   0.68432   0.00000  Uiso   1.00
C1035  C     0.83327   0.66498   0.75004   0.00000  Uiso   1.00
C1036  C     0.84483   0.78813   0.94781   0.00000  Uiso   1.00
C1037  C     0.83384   0.74985   0.52752   0.00000  Uiso   1.00
C1038  C     0.83335   0.74954   0.97283   0.00000  Uiso   1.00
C1039  C     0.73477   0.74936   0.73771   0.00000  Uiso   1.00
C1040  C     0.93190   0.75065   0.76228   0.00000  Uiso   1.00
C1041  C     0.67980   0.74618   0.73099   0.00000  Uiso   1.00
C1042  C     0.98686   0.75389   0.76896   0.00000  Uiso   1.00
C1043  C     0.80462   0.54760   0.78261   0.00000  Uiso   1.00
C1044  C     0.81477   0.95259   0.70617   0.00000  Uiso   1.00
C1045  C     0.80702   0.59390   0.78356   0.00000  Uiso   1.00
C1046  C     0.83330   0.83511   0.74994   0.00000  Uiso   1.00
C1047  C     0.81664   0.90644   0.70636   0.00000  Uiso   1.00
C1048  C     0.83262   0.61683   0.75007   0.00000  Uiso   1.00
C1049  C     0.83276   0.88344   0.74971   0.00000  Uiso   1.00
C1050  C     0.85723   0.59361   0.71640   0.00000  Uiso   1.00
C1051  C     0.84811   0.90688   0.79283   0.00000  Uiso   1.00
C1052  C     0.85721   0.54766   0.71684   0.00000  Uiso   1.00
C1053  C     0.84783   0.95285   0.79255   0.00000  Uiso   1.00
C1054  C     0.83118   0.52446   0.74988   0.00000  Uiso   1.00
C1055  C     0.83126   0.97595   0.74941   0.00000  Uiso   1.00
C1056  C     0.98974   0.69159   0.67596   0.00000  Uiso   1.00
C1057  C     0.87305   0.77138   0.55916   0.00000  Uiso   1.00
C1058  C     0.67667   0.80867   0.82380   0.00000  Uiso   1.00
C1059  C     0.72521   0.53345   0.80382   0.00000  Uiso   1.00
C1060  C     0.69535   0.99800   0.82718   0.00000  Uiso   1.00
C1061  C     0.74463   0.97793   0.65766   0.00000  Uiso   1.00
C1062  C     0.72675   0.50746   0.61421   0.00000  Uiso   1.00
C1063  C     0.95322   0.76431   0.53915   0.00000  Uiso   1.00
C1064  C     0.99456   0.78763   0.51521   0.00000  Uiso   1.00
C1065  C     0.85589   0.64710   0.97825   0.00000  Uiso   1.00
C1066  C     0.84416   0.60519   0.50522   0.00000  Uiso   1.00
C1067  C     0.82201   0.71076   0.94479   0.00000  Uiso   1.00
C1068  C     0.87123   0.77163   0.60979   0.00000  Uiso   1.00
C1069  C     0.82098   0.71226   0.89377   0.00000  Uiso   1.00
C1070  C     0.79574   0.72834   0.59979   0.00000  Uiso   1.00
C1071  C     0.84542   0.78750   0.89719   0.00000  Uiso   1.00
C1072  C     0.79510   0.72816   0.54902   0.00000  Uiso   1.00
Cu1073 Cu    0.83333   0.75000   0.79822   0.00000  Uiso   1.00
Cu1074 Cu    0.83333   0.75001   0.70179   0.00000  Uiso   1.00
H1075  H     0.78813   0.61191   0.80974   0.00000  Uiso   1.00
H1076  H     0.85540   0.81750   0.87939   0.00000  Uiso   1.00
H1077  H     0.76395   0.71146   0.52674   0.00000  Uiso   1.00
H1078  H     0.85298   0.81897   0.96713   0.00000  Uiso   1.00
H1079  H     0.97073   0.67286   0.70321   0.00000  Uiso   1.00
H1080  H     0.69625   0.67960   0.67591   0.00000  Uiso   1.00
H1081  H     0.96820   0.68463   0.63951   0.00000  Uiso   1.00
H1082  H     0.97009   0.82053   0.82379   0.00000  Uiso   1.00
H1083  H     0.69560   0.82741   0.79650   0.00000  Uiso   1.00
H1084  H     0.69814   0.81579   0.86023   0.00000  Uiso   1.00
H1085  H     0.71184   0.53315   0.76383   0.00000  Uiso   1.00
H1086  H     0.80458   0.88874   0.67278   0.00000  Uiso   1.00
H1087  H     0.71637   0.56613   0.81901   0.00000  Uiso   1.00
H1088  H     0.70668   0.99791   0.86729   0.00000  Uiso   1.00
H1089  H     0.98698   0.50472   0.81911   0.00000  Uiso   1.00
H1090  H     0.70327   0.96493   0.81246   0.00000  Uiso   1.00
H1091  H     0.73120   0.99284   0.69040   0.00000  Uiso   1.00
H1092  H     0.72684   0.94462   0.65091   0.00000  Uiso   1.00
H1093  H     0.73878   0.99329   0.58064   0.00000  Uiso   1.00
H1094  H     0.68434   0.51008   0.60934   0.00000  Uiso   1.00
H1095  H     0.74359   0.54109   0.62029   0.00000  Uiso   1.00
H1096  H     0.94072   0.73446   0.51705   0.00000  Uiso   1.00
H1097  H     0.87742   0.61102   0.69052   0.00000  Uiso   1.00
H1098  H     0.97000   0.75390   0.57649   0.00000  Uiso   1.00
H1099  H     0.67606   0.81673   0.53724   0.00000  Uiso   1.00
H1100  H     0.69327   0.76456   0.51235   0.00000  Uiso   1.00
H1101  H     0.97862   0.79884   0.97804   0.00000  Uiso   1.00
H1102  H     0.88513   0.66641   0.50247   0.00000  Uiso   1.00
H1103  H     0.87189   0.63744   0.94462   0.00000  Uiso   1.00
H1104  H     0.81557   0.58472   0.98189   0.00000  Uiso   1.00
H1105  H     0.87973   0.58565   0.51471   0.00000  Uiso   1.00
H1106  H     0.82863   0.61388   0.53926   0.00000  Uiso   1.00
H1107  H     0.86110   0.88971   0.82657   0.00000  Uiso   1.00
H1108  H     0.87769   0.53011   0.69150   0.00000  Uiso   1.00
H1109  H     0.86089   0.97049   0.82595   0.00000  Uiso   1.00
H1110  H     0.90065   0.78905   0.63352   0.00000  Uiso   1.00
H1111  H     0.81061   0.68263   0.87299   0.00000  Uiso   1.00
H1112  H     0.76580   0.71122   0.61551   0.00000  Uiso   1.00
N1113  N     0.83333   0.75001   0.62935   0.00000  Uiso   1.00
N1114  N     0.83333   0.74999   0.87066   0.00000  Uiso   1.00
O1115  O     0.83334   0.68573   0.79072   0.00000  Uiso   1.00
O1116  O     0.67800   0.76264   0.81559   0.00000  Uiso   1.00
O1117  O     0.77814   0.52448   0.81455   0.00000  Uiso   1.00
O1118  O     0.79853   0.97487   0.66327   0.00000  Uiso   1.00
O1119  O     0.91219   0.79378   0.54109   0.00000  Uiso   1.00
O1120  O     0.81033   0.67148   0.96646   0.00000  Uiso   1.00
O1121  O     0.83333   0.81428   0.70929   0.00000  Uiso   1.00
O1122  O     0.83334   0.68573   0.70928   0.00000  Uiso   1.00
O1123  O     0.83333   0.81427   0.79072   0.00000  Uiso   1.00
O1124  O     0.75828   0.75000   0.78132   0.00000  Uiso   1.00
O1125  O     0.90839   0.75001   0.71868   0.00000  Uiso   1.00
O1126  O     0.75828   0.75000   0.69989   0.00000  Uiso   1.00
O1127  O     0.90839   0.75000   0.80012   0.00000  Uiso   1.00
O1128  O     0.98867   0.73761   0.68432   0.00000  Uiso   1.00
loop_
_geom_bond_atom_site_label_1
_geom_bond_atom_site_label_2
_geom_bond_distance
_geom_bond_site_symmetry_2
_ccdc_geom_bond_type
C1     O81     1.291   .     A
C1     O88     1.291   .     A
C1     C14     1.455   .     S
C2     H44     1.082   .     S
C2     C4      1.408   .     A
C2     C37     1.406   .     A
C3     C23     1.418   .     A
C3     C38     1.409   .     A
C3     C568    1.514   1_554 S
C4     C33     1.416   .     A
C4     C567    1.514   .     S
C5     O92     1.289   .     A
C5     O90     1.281   .     A
C5     C7      1.438   .     S
C6     O91     1.281   .     A
C6     O93     1.289   .     A
C6     C8      1.438   .     S
C7     C196    1.357   1_455 S
C7     O282    1.389   1_455 S
C8     C101    1.357   .     S
C8     O176    1.389   .     S
C9     C20     1.408   .     A
C9     C11     1.400   .     A
C9     O83     1.386   .     S
C10    O84     1.382   .     S
C10    C21     1.408   .     A
C10    C13     1.395   .     A
C11    C14     1.400   .     A
C11    H41     1.083   .     S
C12    O89     1.292   .     A
C12    C15     1.460   .     S
C12    O87     1.292   .     A
C13    H52     1.084   .     S
C13    C15     1.402   .     A
C14    C16     1.399   .     A
C15    C17     1.401   .     A
C16    H63     1.084   .     S
C16    C18     1.388   .     A
C17    C19     1.389   .     A
C17    H73     1.083   .     S
C18    H74     1.083   .     S
C18    C20     1.402   .     A
C19    C21     1.401   .     A
C19    H75     1.083   .     S
C20    C303    1.466   1_545 S
C21    C302    1.466   .     S
C22    H47     1.109   .     S
C22    O94     1.411   .     S
C22    H45     1.114   .     S
C22    H140    1.113   .     S
C23    C34     1.411   .     A
C23    O85     1.381   .     S
C24    O82     1.411   .     S
C24    H50     1.109   .     S
C24    H49     1.114   .     S
C24    H236    1.113   1_455 S
C25    H53     1.112   .     S
C25    H51     1.116   .     S
C25    O83     1.414   .     S
C25    C308    1.521   1_545 S
C26    H54     1.111   .     S
C26    H56     1.111   .     S
C26    C307    1.521   .     S
C26    H525    1.111   1_455 S
C27    O84     1.411   .     S
C27    H57     1.115   .     S
C27    H58     1.114   .     S
C27    C310    1.521   .     S
C28    H61     1.111   .     S
C28    H60     1.111   .     S
C28    C309    1.521   1_545 S
C28    H341    1.111   1_545 S
C29    H62     1.114   .     S
C29    O85     1.411   .     S
C29    H64     1.114   .     S
C29    C30     1.521   .     S
C30    H159    1.111   .     S
C30    H160    1.109   .     S
C30    H631    1.111   1_554 S
C31    O86     1.411   .     S
C31    H69     1.114   .     S
C31    C596    1.521   .     S
C31    H632    1.115   .     S
C32    H72     1.111   .     S
C32    H71     1.110   .     S
C32    C595    1.521   1_554 S
C32    H634    1.111   1_554 S
C33    O86     1.381   .     S
C33    C35     1.411   .     A
C34    N79     1.363   .     A
C34    H76     1.082   .     S
C35    N80     1.366   .     A
C35    H77     1.080   .     S
C36    N79     1.363   .     A
C36    C38     1.405   .     A
C36    H78     1.081   .     S
C37    H42     1.079   .     S
C37    N80     1.365   .     A
C38    H43     1.082   .     S
Cu39   O93     1.972   .     S
Cu39   O90     1.970   .     S
Cu39   O81     1.953   .     S
Cu39   Cu40    2.673   .     S
Cu39   N80     2.008   .     S
Cu39   O89     1.952   .     S
Cu40   O87     1.953   .     S
Cu40   N79     2.008   .     S
Cu40   O92     1.972   .     S
Cu40   O88     1.952   .     S
Cu40   O91     1.970   .     S
H46    C210    1.113   1_455 S
H48    C118    1.113   .     S
H55    C402    1.111   1_545 S
H59    C310    1.111   .     S
H65    C218    1.111   1_455 S
H66    C218    1.109   1_455 S
H67    C594    1.111   .     S
H68    C595    1.115   1_554 S
H70    C596    1.111   .     S
O82    C196    1.389   1_455 S
O94    C101    1.389   .     S
C95    O175    1.291   .     A
C95    O182    1.291   .     A
C95    C108    1.455   .     S
C96    H138    1.082   .     S
C96    C98     1.408   .     A
C96    C131    1.406   .     A
C97    C117    1.418   .     A
C97    C132    1.409   .     A
C97    C662    1.514   1_554 S
C98    C127    1.416   .     A
C98    C661    1.514   .     S
C99    O186    1.289   .     A
C99    O184    1.281   .     A
C99    C101    1.438   .     S
C100   O185    1.281   .     A
C100   O187    1.289   .     A
C100   C102    1.438   .     S
C102   C195    1.357   .     S
C102   O270    1.389   .     S
C103   C114    1.408   .     A
C103   C105    1.400   .     A
C103   O177    1.386   .     S
C104   O178    1.382   .     S
C104   C115    1.408   .     A
C104   C107    1.395   .     A
C105   C108    1.400   .     A
C105   H135    1.083   .     S
C106   O183    1.292   .     A
C106   C109    1.460   .     S
C106   O181    1.292   .     A
C107   H146    1.084   .     S
C107   C109    1.402   .     A
C108   C110    1.399   .     A
C109   C111    1.401   .     A
C110   H157    1.084   .     S
C110   C112    1.388   .     A
C111   C113    1.389   .     A
C111   H167    1.083   .     S
C112   H168    1.083   .     S
C112   C114    1.402   .     A
C113   C115    1.401   .     A
C113   H169    1.083   .     S
C114   C397    1.466   1_545 S
C115   C396    1.466   .     S
C116   H141    1.109   .     S
C116   O188    1.411   .     S
C116   H139    1.114   .     S
C116   H234    1.113   .     S
C117   C128    1.411   .     A
C117   O179    1.381   .     S
C118   O176    1.411   .     S
C118   H144    1.109   .     S
C118   H143    1.114   .     S
C119   H147    1.112   .     S
C119   H145    1.116   .     S
C119   O177    1.414   .     S
C119   C402    1.521   1_545 S
C120   H148    1.111   .     S
C120   H150    1.111   .     S
C120   C401    1.521   .     S
C120   H337    1.111   .     S
C121   O178    1.411   .     S
C121   H151    1.115   .     S
C121   H152    1.114   .     S
C121   C404    1.521   .     S
C122   H155    1.111   .     S
C122   H154    1.111   .     S
C122   C403    1.521   1_545 S
C122   H435    1.111   1_545 S
C123   H156    1.114   .     S
C123   O179    1.411   .     S
C123   H158    1.114   .     S
C123   C124    1.521   .     S
C124   H253    1.111   .     S
C124   H254    1.109   .     S
C124   H725    1.111   1_554 S
C125   O180    1.411   .     S
C125   H163    1.114   .     S
C125   C690    1.521   .     S
C125   H726    1.115   .     S
C126   H166    1.111   .     S
C126   H165    1.110   .     S
C126   C689    1.521   1_554 S
C126   H728    1.111   1_554 S
C127   O180    1.381   .     S
C127   C129    1.411   .     A
C128   N173    1.363   .     A
C128   H170    1.082   .     S
C129   N174    1.366   .     A
C129   H171    1.080   .     S
C130   N173    1.363   .     A
C130   C132    1.405   .     A
C130   H172    1.081   .     S
C131   H136    1.079   .     S
C131   N174    1.365   .     A
C132   H137    1.082   .     S
Cu133  O187    1.972   .     S
Cu133  O184    1.970   .     S
Cu133  O175    1.953   .     S
Cu133  Cu134   2.673   .     S
Cu133  N174    2.008   .     S
Cu133  O183    1.952   .     S
Cu134  O181    1.953   .     S
Cu134  N173    2.008   .     S
Cu134  O186    1.972   .     S
Cu134  O182    1.952   .     S
Cu134  O185    1.970   .     S
H142   C212    1.113   .     S
H149   C496    1.111   1_545 S
H153   C404    1.111   .     S
H161   C688    1.111   .     S
H162   C689    1.115   1_554 S
H164   C690    1.111   .     S
O188   C195    1.389   .     S
C189   O269    1.291   .     A
C189   O276    1.291   .     A
C189   C202    1.455   .     S
C190   H232    1.082   .     S
C190   C192    1.408   .     A
C190   C225    1.406   .     A
C191   C211    1.418   .     A
C191   C226    1.409   .     A
C191   C756    1.514   1_554 S
C192   C221    1.416   .     A
C192   C755    1.514   .     S
C193   O280    1.289   .     A
C193   O278    1.281   .     A
C193   C195    1.438   .     S
C194   O279    1.281   .     A
C194   O281    1.289   .     A
C194   C196    1.438   .     S
C196   C7      1.357   1_655 S
C196   O82     1.389   1_655 S
C197   C208    1.408   .     A
C197   C199    1.400   .     A
C197   O271    1.386   .     S
C198   O272    1.382   .     S
C198   C209    1.408   .     A
C198   C201    1.395   .     A
C199   C202    1.400   .     A
C199   H229    1.083   .     S
C200   O277    1.292   .     A
C200   C203    1.460   .     S
C200   O275    1.292   .     A
C201   H240    1.084   .     S
C201   C203    1.402   .     A
C202   C204    1.399   .     A
C203   C205    1.401   .     A
C204   H251    1.084   .     S
C204   C206    1.388   .     A
C205   C207    1.389   .     A
C205   H261    1.083   .     S
C206   H262    1.083   .     S
C206   C208    1.402   .     A
C207   C209    1.401   .     A
C207   H263    1.083   .     S
C208   C491    1.466   1_545 S
C209   C490    1.466   .     S
C210   H235    1.109   .     S
C210   O282    1.411   .     S
C210   H233    1.114   .     S
C210   H46     1.113   1_655 S
C211   C222    1.411   .     A
C211   O273    1.381   .     S
C212   O270    1.411   .     S
C212   H238    1.109   .     S
C212   H237    1.114   .     S
C213   H241    1.112   .     S
C213   H239    1.116   .     S
C213   O271    1.414   .     S
C213   C496    1.521   1_545 S
C214   H242    1.111   .     S
C214   H244    1.111   .     S
C214   C495    1.521   .     S
C214   H431    1.111   .     S
C215   O272    1.411   .     S
C215   H245    1.115   .     S
C215   H246    1.114   .     S
C215   C498    1.521   .     S
C216   H249    1.111   .     S
C216   H248    1.111   .     S
C216   C497    1.521   1_545 S
C216   H529    1.111   1_545 S
C217   H250    1.114   .     S
C217   O273    1.411   .     S
C217   H252    1.114   .     S
C217   C218    1.521   .     S
C218   H65     1.111   1_655 S
C218   H66     1.109   1_655 S
C218   H819    1.111   1_554 S
C219   O274    1.411   .     S
C219   H257    1.114   .     S
C219   C784    1.521   .     S
C219   H820    1.115   .     S
C220   H260    1.111   .     S
C220   H259    1.110   .     S
C220   C783    1.521   1_554 S
C220   H822    1.111   1_554 S
C221   O274    1.381   .     S
C221   C223    1.411   .     A
C222   N267    1.363   .     A
C222   H264    1.082   .     S
C223   N268    1.366   .     A
C223   H265    1.080   .     S
C224   N267    1.363   .     A
C224   C226    1.405   .     A
C224   H266    1.081   .     S
C225   H230    1.079   .     S
C225   N268    1.365   .     A
C226   H231    1.082   .     S
Cu227  O281    1.972   .     S
Cu227  O278    1.970   .     S
Cu227  O269    1.953   .     S
Cu227  Cu228   2.673   .     S
Cu227  N268    2.008   .     S
Cu227  O277    1.952   .     S
Cu228  O275    1.953   .     S
Cu228  N267    2.008   .     S
Cu228  O280    1.972   .     S
Cu228  O276    1.952   .     S
Cu228  O279    1.970   .     S
H236   C24     1.113   1_655 S
H243   C308    1.111   1_645 S
H247   C498    1.111   .     S
H255   C782    1.111   .     S
H256   C783    1.115   1_554 S
H258   C784    1.111   .     S
O282   C7      1.389   1_655 S
C283   O363    1.291   .     A
C283   O370    1.291   .     A
C283   C296    1.455   .     S
C284   H326    1.082   .     S
C284   C286    1.408   .     A
C284   C319    1.406   .     A
C285   C305    1.418   .     A
C285   C320    1.409   .     A
C285   C850    1.514   1_554 S
C286   C315    1.416   .     A
C286   C849    1.514   .     S
C287   O374    1.289   .     A
C287   O372    1.281   .     A
C287   C289    1.438   .     S
C288   O373    1.281   .     A
C288   O375    1.289   .     A
C288   C290    1.438   .     S
C289   C478    1.357   1_455 S
C289   O564    1.389   1_455 S
C290   C383    1.357   .     S
C290   O458    1.389   .     S
C291   C302    1.408   .     A
C291   C293    1.400   .     A
C291   O365    1.386   .     S
C292   O366    1.382   .     S
C292   C303    1.408   .     A
C292   C295    1.395   .     A
C293   C296    1.400   .     A
C293   H323    1.083   .     S
C294   O371    1.292   .     A
C294   C297    1.460   .     S
C294   O369    1.292   .     A
C295   H334    1.084   .     S
C295   C297    1.402   .     A
C296   C298    1.399   .     A
C297   C299    1.401   .     A
C298   H345    1.084   .     S
C298   C300    1.388   .     A
C299   C301    1.389   .     A
C299   H355    1.083   .     S
C300   H356    1.083   .     S
C300   C302    1.402   .     A
C301   C303    1.401   .     A
C301   H357    1.083   .     S
C303   C20     1.466   1_565 S
C304   H329    1.109   .     S
C304   O376    1.411   .     S
C304   H327    1.114   .     S
C304   H422    1.113   .     S
C305   C316    1.411   .     A
C305   O367    1.381   .     S
C306   O364    1.411   .     S
C306   H332    1.109   .     S
C306   H331    1.114   .     S
C306   H518    1.113   1_455 S
C307   H335    1.112   .     S
C307   H333    1.116   .     S
C307   O365    1.414   .     S
C308   H336    1.111   .     S
C308   H338    1.111   .     S
C308   C25     1.521   1_565 S
C308   H243    1.111   1_465 S
C309   O366    1.411   .     S
C309   H339    1.115   .     S
C309   H340    1.114   .     S
C309   C28     1.521   1_565 S
C310   H343    1.111   .     S
C310   H342    1.111   .     S
C311   H344    1.114   .     S
C311   O367    1.411   .     S
C311   H346    1.114   .     S
C311   C312    1.521   .     S
C312   H441    1.111   .     S
C312   H442    1.109   .     S
C312   H913    1.111   1_554 S
C313   O368    1.411   .     S
C313   H351    1.114   .     S
C313   C878    1.521   .     S
C313   H914    1.115   .     S
C314   H354    1.111   .     S
C314   H353    1.110   .     S
C314   C877    1.521   1_554 S
C314   H916    1.111   1_554 S
C315   O368    1.381   .     S
C315   C317    1.411   .     A
C316   N361    1.363   .     A
C316   H358    1.082   .     S
C317   N362    1.366   .     A
C317   H359    1.080   .     S
C318   N361    1.363   .     A
C318   C320    1.405   .     A
C318   H360    1.081   .     S
C319   H324    1.079   .     S
C319   N362    1.365   .     A
C320   H325    1.082   .     S
Cu321  O375    1.972   .     S
Cu321  O372    1.970   .     S
Cu321  O363    1.953   .     S
Cu321  Cu322   2.673   .     S
Cu321  N362    2.008   .     S
Cu321  O371    1.952   .     S
Cu322  O369    1.953   .     S
Cu322  N361    2.008   .     S
Cu322  O374    1.972   .     S
Cu322  O370    1.952   .     S
Cu322  O373    1.970   .     S
H328   C492    1.113   1_455 S
H330   C400    1.113   .     S
H341   C28     1.111   1_565 S
H347   C500    1.111   1_455 S
H348   C500    1.109   1_455 S
H349   C876    1.111   .     S
H350   C877    1.115   1_554 S
H352   C878    1.111   .     S
O364   C478    1.389   1_455 S
O376   C383    1.389   .     S
C377   O457    1.291   .     A
C377   O464    1.291   .     A
C377   C390    1.455   .     S
C378   H420    1.082   .     S
C378   C380    1.408   .     A
C378   C413    1.406   .     A
C379   C399    1.418   .     A
C379   C414    1.409   .     A
C379   C944    1.514   1_554 S
C380   C409    1.416   .     A
C380   C943    1.514   .     S
C381   O468    1.289   .     A
C381   O466    1.281   .     A
C381   C383    1.438   .     S
C382   O467    1.281   .     A
C382   O469    1.289   .     A
C382   C384    1.438   .     S
C384   C477    1.357   .     S
C384   O552    1.389   .     S
C385   C396    1.408   .     A
C385   C387    1.400   .     A
C385   O459    1.386   .     S
C386   O460    1.382   .     S
C386   C397    1.408   .     A
C386   C389    1.395   .     A
C387   C390    1.400   .     A
C387   H417    1.083   .     S
C388   O465    1.292   .     A
C388   C391    1.460   .     S
C388   O463    1.292   .     A
C389   H428    1.084   .     S
C389   C391    1.402   .     A
C390   C392    1.399   .     A
C391   C393    1.401   .     A
C392   H439    1.084   .     S
C392   C394    1.388   .     A
C393   C395    1.389   .     A
C393   H449    1.083   .     S
C394   H450    1.083   .     S
C394   C396    1.402   .     A
C395   C397    1.401   .     A
C395   H451    1.083   .     S
C397   C114    1.466   1_565 S
C398   H423    1.109   .     S
C398   O470    1.411   .     S
C398   H421    1.114   .     S
C398   H516    1.113   .     S
C399   C410    1.411   .     A
C399   O461    1.381   .     S
C400   O458    1.411   .     S
C400   H426    1.109   .     S
C400   H425    1.114   .     S
C401   H429    1.112   .     S
C401   H427    1.116   .     S
C401   O459    1.414   .     S
C402   H430    1.111   .     S
C402   H432    1.111   .     S
C402   C119    1.521   1_565 S
C402   H55     1.111   1_565 S
C403   O460    1.411   .     S
C403   H433    1.115   .     S
C403   H434    1.114   .     S
C403   C122    1.521   1_565 S
C404   H437    1.111   .     S
C404   H436    1.111   .     S
C405   H438    1.114   .     S
C405   O461    1.411   .     S
C405   H440    1.114   .     S
C405   C406    1.521   .     S
C406   H535    1.111   .     S
C406   H536    1.109   .     S
C406   H1007   1.111   1_554 S
C407   O462    1.411   .     S
C407   H445    1.114   .     S
C407   C972    1.521   .     S
C407   H1008   1.115   .     S
C408   H448    1.111   .     S
C408   H447    1.110   .     S
C408   C971    1.521   1_554 S
C408   H1010   1.111   1_554 S
C409   O462    1.381   .     S
C409   C411    1.411   .     A
C410   N455    1.363   .     A
C410   H452    1.082   .     S
C411   N456    1.366   .     A
C411   H453    1.080   .     S
C412   N455    1.363   .     A
C412   C414    1.405   .     A
C412   H454    1.081   .     S
C413   H418    1.079   .     S
C413   N456    1.365   .     A
C414   H419    1.082   .     S
Cu415  O469    1.972   .     S
Cu415  O466    1.970   .     S
Cu415  O457    1.953   .     S
Cu415  Cu416   2.673   .     S
Cu415  N456    2.008   .     S
Cu415  O465    1.952   .     S
Cu416  O463    1.953   .     S
Cu416  N455    2.008   .     S
Cu416  O468    1.972   .     S
Cu416  O464    1.952   .     S
Cu416  O467    1.970   .     S
H424   C494    1.113   .     S
H435   C122    1.111   1_565 S
H443   C970    1.111   .     S
H444   C971    1.115   1_554 S
H446   C972    1.111   .     S
O470   C477    1.389   .     S
C471   O551    1.291   .     A
C471   O558    1.291   .     A
C471   C484    1.455   .     S
C472   H514    1.082   .     S
C472   C474    1.408   .     A
C472   C507    1.406   .     A
C473   C493    1.418   .     A
C473   C508    1.409   .     A
C473   C1038   1.514   1_554 S
C474   C503    1.416   .     A
C474   C1037   1.514   .     S
C475   O562    1.289   .     A
C475   O560    1.281   .     A
C475   C477    1.438   .     S
C476   O561    1.281   .     A
C476   O563    1.289   .     A
C476   C478    1.438   .     S
C478   C289    1.357   1_655 S
C478   O364    1.389   1_655 S
C479   C490    1.408   .     A
C479   C481    1.400   .     A
C479   O553    1.386   .     S
C480   O554    1.382   .     S
C480   C491    1.408   .     A
C480   C483    1.395   .     A
C481   C484    1.400   .     A
C481   H511    1.083   .     S
C482   O559    1.292   .     A
C482   C485    1.460   .     S
C482   O557    1.292   .     A
C483   H522    1.084   .     S
C483   C485    1.402   .     A
C484   C486    1.399   .     A
C485   C487    1.401   .     A
C486   H533    1.084   .     S
C486   C488    1.388   .     A
C487   C489    1.389   .     A
C487   H543    1.083   .     S
C488   H544    1.083   .     S
C488   C490    1.402   .     A
C489   C491    1.401   .     A
C489   H545    1.083   .     S
C491   C208    1.466   1_565 S
C492   H517    1.109   .     S
C492   O564    1.411   .     S
C492   H515    1.114   .     S
C492   H328    1.113   1_655 S
C493   C504    1.411   .     A
C493   O555    1.381   .     S
C494   O552    1.411   .     S
C494   H520    1.109   .     S
C494   H519    1.114   .     S
C495   H523    1.112   .     S
C495   H521    1.116   .     S
C495   O553    1.414   .     S
C496   H524    1.111   .     S
C496   H526    1.111   .     S
C496   C213    1.521   1_565 S
C496   H149    1.111   1_565 S
C497   O554    1.411   .     S
C497   H527    1.115   .     S
C497   H528    1.114   .     S
C497   C216    1.521   1_565 S
C498   H531    1.111   .     S
C498   H530    1.111   .     S
C499   H532    1.114   .     S
C499   O555    1.411   .     S
C499   H534    1.114   .     S
C499   C500    1.521   .     S
C500   H347    1.111   1_655 S
C500   H348    1.109   1_655 S
C500   H1101   1.111   1_554 S
C501   O556    1.411   .     S
C501   H539    1.114   .     S
C501   C1066   1.521   .     S
C501   H1102   1.115   .     S
C502   H542    1.111   .     S
C502   H541    1.110   .     S
C502   C1065   1.521   1_554 S
C502   H1104   1.111   1_554 S
C503   O556    1.381   .     S
C503   C505    1.411   .     A
C504   N549    1.363   .     A
C504   H546    1.082   .     S
C505   N550    1.366   .     A
C505   H547    1.080   .     S
C506   N549    1.363   .     A
C506   C508    1.405   .     A
C506   H548    1.081   .     S
C507   H512    1.079   .     S
C507   N550    1.365   .     A
C508   H513    1.082   .     S
Cu509  O563    1.972   .     S
Cu509  O560    1.970   .     S
Cu509  O551    1.953   .     S
Cu509  Cu510   2.673   .     S
Cu509  N550    2.008   .     S
Cu509  O559    1.952   .     S
Cu510  O557    1.953   .     S
Cu510  N549    2.008   .     S
Cu510  O562    1.972   .     S
Cu510  O558    1.952   .     S
Cu510  O561    1.970   .     S
H518   C306    1.113   1_655 S
H525   C26     1.111   1_655 S
H529   C216    1.111   1_565 S
H537   C1064   1.111   .     S
H538   C1065   1.115   1_554 S
H540   C1066   1.111   .     S
O564   C289    1.389   1_655 S
C565   O645    1.291   .     A
C565   O652    1.291   .     A
C565   C578    1.455   .     S
C566   H608    1.082   .     S
C566   C568    1.408   .     A
C566   C601    1.406   .     A
C567   C587    1.418   .     A
C567   C602    1.409   .     A
C568   C597    1.416   .     A
C568   C3      1.514   1_556 S
C569   O656    1.289   .     A
C569   O654    1.281   .     A
C569   C571    1.438   .     S
C570   O655    1.281   .     A
C570   O657    1.289   .     A
C570   C572    1.438   .     S
C571   C760    1.357   1_455 S
C571   O846    1.389   1_455 S
C572   C665    1.357   .     S
C572   O740    1.389   .     S
C573   C584    1.408   .     A
C573   C575    1.400   .     A
C573   O647    1.386   .     S
C574   O648    1.382   .     S
C574   C585    1.408   .     A
C574   C577    1.395   .     A
C575   C578    1.400   .     A
C575   H605    1.083   .     S
C576   O653    1.292   .     A
C576   C579    1.460   .     S
C576   O651    1.292   .     A
C577   H616    1.084   .     S
C577   C579    1.402   .     A
C578   C580    1.399   .     A
C579   C581    1.401   .     A
C580   H627    1.084   .     S
C580   C582    1.388   .     A
C581   C583    1.389   .     A
C581   H637    1.083   .     S
C582   H638    1.083   .     S
C582   C584    1.402   .     A
C583   C585    1.401   .     A
C583   H639    1.083   .     S
C584   C867    1.466   1_545 S
C585   C866    1.466   .     S
C586   H611    1.109   .     S
C586   O658    1.411   .     S
C586   H609    1.114   .     S
C586   H704    1.113   .     S
C587   C598    1.411   .     A
C587   O649    1.381   .     S
C588   O646    1.411   .     S
C588   H614    1.109   .     S
C588   H613    1.114   .     S
C588   H800    1.113   1_455 S
C589   H617    1.112   .     S
C589   H615    1.116   .     S
C589   O647    1.414   .     S
C589   C872    1.521   1_545 S
C590   H618    1.111   .     S
C590   H620    1.111   .     S
C590   C871    1.521   .     S
C590   H1089   1.111   1_455 S
C591   O648    1.411   .     S
C591   H621    1.115   .     S
C591   H622    1.114   .     S
C591   C874    1.521   .     S
C592   H625    1.111   .     S
C592   H624    1.111   .     S
C592   C873    1.521   1_545 S
C592   H905    1.111   1_545 S
C593   H626    1.114   .     S
C593   O649    1.411   .     S
C593   H628    1.114   .     S
C593   C594    1.521   .     S
C594   H723    1.111   .     S
C594   H724    1.109   .     S
C595   O650    1.411   .     S
C595   H633    1.114   .     S
C595   C32     1.521   1_556 S
C595   H68     1.115   1_556 S
C596   H636    1.111   .     S
C596   H635    1.110   .     S
C597   O650    1.381   .     S
C597   C599    1.411   .     A
C598   N643    1.363   .     A
C598   H640    1.082   .     S
C599   N644    1.366   .     A
C599   H641    1.080   .     S
C600   N643    1.363   .     A
C600   C602    1.405   .     A
C600   H642    1.081   .     S
C601   H606    1.079   .     S
C601   N644    1.365   .     A
C602   H607    1.082   .     S
Cu603  O657    1.972   .     S
Cu603  O654    1.970   .     S
Cu603  O645    1.953   .     S
Cu603  Cu604   2.673   .     S
Cu603  N644    2.008   .     S
Cu603  O653    1.952   .     S
Cu604  O651    1.953   .     S
Cu604  N643    2.008   .     S
Cu604  O656    1.972   .     S
Cu604  O652    1.952   .     S
Cu604  O655    1.970   .     S
H610   C774    1.113   1_455 S
H612   C682    1.113   .     S
H619   C966    1.111   1_545 S
H623   C874    1.111   .     S
H629   C782    1.111   1_455 S
H630   C782    1.109   1_455 S
H631   C30     1.111   1_556 S
H634   C32     1.111   1_556 S
O646   C760    1.389   1_455 S
O658   C665    1.389   .     S
C659   O739    1.291   .     A
C659   O746    1.291   .     A
C659   C672    1.455   .     S
C660   H702    1.082   .     S
C660   C662    1.408   .     A
C660   C695    1.406   .     A
C661   C681    1.418   .     A
C661   C696    1.409   .     A
C662   C691    1.416   .     A
C662   C97     1.514   1_556 S
C663   O750    1.289   .     A
C663   O748    1.281   .     A
C663   C665    1.438   .     S
C664   O749    1.281   .     A
C664   O751    1.289   .     A
C664   C666    1.438   .     S
C666   C759    1.357   .     S
C666   O834    1.389   .     S
C667   C678    1.408   .     A
C667   C669    1.400   .     A
C667   O741    1.386   .     S
C668   O742    1.382   .     S
C668   C679    1.408   .     A
C668   C671    1.395   .     A
C669   C672    1.400   .     A
C669   H699    1.083   .     S
C670   O747    1.292   .     A
C670   C673    1.460   .     S
C670   O745    1.292   .     A
C671   H710    1.084   .     S
C671   C673    1.402   .     A
C672   C674    1.399   .     A
C673   C675    1.401   .     A
C674   H721    1.084   .     S
C674   C676    1.388   .     A
C675   C677    1.389   .     A
C675   H731    1.083   .     S
C676   H732    1.083   .     S
C676   C678    1.402   .     A
C677   C679    1.401   .     A
C677   H733    1.083   .     S
C678   C961    1.466   1_545 S
C679   C960    1.466   .     S
C680   H705    1.109   .     S
C680   O752    1.411   .     S
C680   H703    1.114   .     S
C680   H798    1.113   .     S
C681   C692    1.411   .     A
C681   O743    1.381   .     S
C682   O740    1.411   .     S
C682   H708    1.109   .     S
C682   H707    1.114   .     S
C683   H711    1.112   .     S
C683   H709    1.116   .     S
C683   O741    1.414   .     S
C683   C966    1.521   1_545 S
C684   H712    1.111   .     S
C684   H714    1.111   .     S
C684   C965    1.521   .     S
C684   H901    1.111   .     S
C685   O742    1.411   .     S
C685   H715    1.115   .     S
C685   H716    1.114   .     S
C685   C968    1.521   .     S
C686   H719    1.111   .     S
C686   H718    1.111   .     S
C686   C967    1.521   1_545 S
C686   H999    1.111   1_545 S
C687   H720    1.114   .     S
C687   O743    1.411   .     S
C687   H722    1.114   .     S
C687   C688    1.521   .     S
C688   H817    1.111   .     S
C688   H818    1.109   .     S
C689   O744    1.411   .     S
C689   H727    1.114   .     S
C689   C126    1.521   1_556 S
C689   H162    1.115   1_556 S
C690   H730    1.111   .     S
C690   H729    1.110   .     S
C691   O744    1.381   .     S
C691   C693    1.411   .     A
C692   N737    1.363   .     A
C692   H734    1.082   .     S
C693   N738    1.366   .     A
C693   H735    1.080   .     S
C694   N737    1.363   .     A
C694   C696    1.405   .     A
C694   H736    1.081   .     S
C695   H700    1.079   .     S
C695   N738    1.365   .     A
C696   H701    1.082   .     S
Cu697  O751    1.972   .     S
Cu697  O748    1.970   .     S
Cu697  O739    1.953   .     S
Cu697  Cu698   2.673   .     S
Cu697  N738    2.008   .     S
Cu697  O747    1.952   .     S
Cu698  O745    1.953   .     S
Cu698  N737    2.008   .     S
Cu698  O750    1.972   .     S
Cu698  O746    1.952   .     S
Cu698  O749    1.970   .     S
H706   C776    1.113   .     S
H713   C1060   1.111   1_545 S
H717   C968    1.111   .     S
H725   C124    1.111   1_556 S
H728   C126    1.111   1_556 S
O752   C759    1.389   .     S
C753   O833    1.291   .     A
C753   O840    1.291   .     A
C753   C766    1.455   .     S
C754   H796    1.082   .     S
C754   C756    1.408   .     A
C754   C789    1.406   .     A
C755   C775    1.418   .     A
C755   C790    1.409   .     A
C756   C785    1.416   .     A
C756   C191    1.514   1_556 S
C757   O844    1.289   .     A
C757   O842    1.281   .     A
C757   C759    1.438   .     S
C758   O843    1.281   .     A
C758   O845    1.289   .     A
C758   C760    1.438   .     S
C760   C571    1.357   1_655 S
C760   O646    1.389   1_655 S
C761   C772    1.408   .     A
C761   C763    1.400   .     A
C761   O835    1.386   .     S
C762   O836    1.382   .     S
C762   C773    1.408   .     A
C762   C765    1.395   .     A
C763   C766    1.400   .     A
C763   H793    1.083   .     S
C764   O841    1.292   .     A
C764   C767    1.460   .     S
C764   O839    1.292   .     A
C765   H804    1.084   .     S
C765   C767    1.402   .     A
C766   C768    1.399   .     A
C767   C769    1.401   .     A
C768   H815    1.084   .     S
C768   C770    1.388   .     A
C769   C771    1.389   .     A
C769   H825    1.083   .     S
C770   H826    1.083   .     S
C770   C772    1.402   .     A
C771   C773    1.401   .     A
C771   H827    1.083   .     S
C772   C1055   1.466   1_545 S
C773   C1054   1.466   .     S
C774   H799    1.109   .     S
C774   O846    1.411   .     S
C774   H797    1.114   .     S
C774   H610    1.113   1_655 S
C775   C786    1.411   .     A
C775   O837    1.381   .     S
C776   O834    1.411   .     S
C776   H802    1.109   .     S
C776   H801    1.114   .     S
C777   H805    1.112   .     S
C777   H803    1.116   .     S
C777   O835    1.414   .     S
C777   C1060   1.521   1_545 S
C778   H806    1.111   .     S
C778   H808    1.111   .     S
C778   C1059   1.521   .     S
C778   H995    1.111   .     S
C779   O836    1.411   .     S
C779   H809    1.115   .     S
C779   H810    1.114   .     S
C779   C1062   1.521   .     S
C780   H813    1.111   .     S
C780   H812    1.111   .     S
C780   C1061   1.521   1_545 S
C780   H1093   1.111   1_545 S
C781   H814    1.114   .     S
C781   O837    1.411   .     S
C781   H816    1.114   .     S
C781   C782    1.521   .     S
C782   H629    1.111   1_655 S
C782   H630    1.109   1_655 S
C783   O838    1.411   .     S
C783   H821    1.114   .     S
C783   C220    1.521   1_556 S
C783   H256    1.115   1_556 S
C784   H824    1.111   .     S
C784   H823    1.110   .     S
C785   O838    1.381   .     S
C785   C787    1.411   .     A
C786   N831    1.363   .     A
C786   H828    1.082   .     S
C787   N832    1.366   .     A
C787   H829    1.080   .     S
C788   N831    1.363   .     A
C788   C790    1.405   .     A
C788   H830    1.081   .     S
C789   H794    1.079   .     S
C789   N832    1.365   .     A
C790   H795    1.082   .     S
Cu791  O845    1.972   .     S
Cu791  O842    1.970   .     S
Cu791  O833    1.953   .     S
Cu791  Cu792   2.673   .     S
Cu791  N832    2.008   .     S
Cu791  O841    1.952   .     S
Cu792  O839    1.953   .     S
Cu792  N831    2.008   .     S
Cu792  O844    1.972   .     S
Cu792  O840    1.952   .     S
Cu792  O843    1.970   .     S
H800   C588    1.113   1_655 S
H807   C872    1.111   1_645 S
H811   C1062   1.111   .     S
H819   C218    1.111   1_556 S
H822   C220    1.111   1_556 S
O846   C571    1.389   1_655 S
C847   O927    1.291   .     A
C847   O934    1.291   .     A
C847   C860    1.455   .     S
C848   H890    1.082   .     S
C848   C850    1.408   .     A
C848   C883    1.406   .     A
C849   C869    1.418   .     A
C849   C884    1.409   .     A
C850   C879    1.416   .     A
C850   C285    1.514   1_556 S
C851   O938    1.289   .     A
C851   O936    1.281   .     A
C851   C853    1.438   .     S
C852   O937    1.281   .     A
C852   O939    1.289   .     A
C852   C854    1.438   .     S
C853   C1042   1.357   1_455 S
C853   O1128   1.389   1_455 S
C854   C947    1.357   .     S
C854   O1022   1.389   .     S
C855   C866    1.408   .     A
C855   C857    1.400   .     A
C855   O929    1.386   .     S
C856   O930    1.382   .     S
C856   C867    1.408   .     A
C856   C859    1.395   .     A
C857   C860    1.400   .     A
C857   H887    1.083   .     S
C858   O935    1.292   .     A
C858   C861    1.460   .     S
C858   O933    1.292   .     A
C859   H898    1.084   .     S
C859   C861    1.402   .     A
C860   C862    1.399   .     A
C861   C863    1.401   .     A
C862   H909    1.084   .     S
C862   C864    1.388   .     A
C863   C865    1.389   .     A
C863   H919    1.083   .     S
C864   H920    1.083   .     S
C864   C866    1.402   .     A
C865   C867    1.401   .     A
C865   H921    1.083   .     S
C867   C584    1.466   1_565 S
C868   H893    1.109   .     S
C868   O940    1.411   .     S
C868   H891    1.114   .     S
C868   H986    1.113   .     S
C869   C880    1.411   .     A
C869   O931    1.381   .     S
C870   O928    1.411   .     S
C870   H896    1.109   .     S
C870   H895    1.114   .     S
C870   H1082   1.113   1_455 S
C871   H899    1.112   .     S
C871   H897    1.116   .     S
C871   O929    1.414   .     S
C872   H900    1.111   .     S
C872   H902    1.111   .     S
C872   C589    1.521   1_565 S
C872   H807    1.111   1_465 S
C873   O930    1.411   .     S
C873   H903    1.115   .     S
C873   H904    1.114   .     S
C873   C592    1.521   1_565 S
C874   H907    1.111   .     S
C874   H906    1.111   .     S
C875   H908    1.114   .     S
C875   O931    1.411   .     S
C875   H910    1.114   .     S
C875   C876    1.521   .     S
C876   H1005   1.111   .     S
C876   H1006   1.109   .     S
C877   O932    1.411   .     S
C877   H915    1.114   .     S
C877   C314    1.521   1_556 S
C877   H350    1.115   1_556 S
C878   H918    1.111   .     S
C878   H917    1.110   .     S
C879   O932    1.381   .     S
C879   C881    1.411   .     A
C880   N925    1.363   .     A
C880   H922    1.082   .     S
C881   N926    1.366   .     A
C881   H923    1.080   .     S
C882   N925    1.363   .     A
C882   C884    1.405   .     A
C882   H924    1.081   .     S
C883   H888    1.079   .     S
C883   N926    1.365   .     A
C884   H889    1.082   .     S
Cu885  O939    1.972   .     S
Cu885  O936    1.970   .     S
Cu885  O927    1.953   .     S
Cu885  Cu886   2.673   .     S
Cu885  N926    2.008   .     S
Cu885  O935    1.952   .     S
Cu886  O933    1.953   .     S
Cu886  N925    2.008   .     S
Cu886  O938    1.972   .     S
Cu886  O934    1.952   .     S
Cu886  O937    1.970   .     S
H892   C1056   1.113   1_455 S
H894   C964    1.113   .     S
H905   C592    1.111   1_565 S
H911   C1064   1.111   1_455 S
H912   C1064   1.109   1_455 S
H913   C312    1.111   1_556 S
H916   C314    1.111   1_556 S
O928   C1042   1.389   1_455 S
O940   C947    1.389   .     S
C941   O1021   1.291   .     A
C941   O1028   1.291   .     A
C941   C954    1.455   .     S
C942   H984    1.082   .     S
C942   C944    1.408   .     A
C942   C977    1.406   .     A
C943   C963    1.418   .     A
C943   C978    1.409   .     A
C944   C973    1.416   .     A
C944   C379    1.514   1_556 S
C945   O1032   1.289   .     A
C945   O1030   1.281   .     A
C945   C947    1.438   .     S
C946   O1031   1.281   .     A
C946   O1033   1.289   .     A
C946   C948    1.438   .     S
C948   C1041   1.357   .     S
C948   O1116   1.389   .     S
C949   C960    1.408   .     A
C949   C951    1.400   .     A
C949   O1023   1.386   .     S
C950   O1024   1.382   .     S
C950   C961    1.408   .     A
C950   C953    1.395   .     A
C951   C954    1.400   .     A
C951   H981    1.083   .     S
C952   O1029   1.292   .     A
C952   C955    1.460   .     S
C952   O1027   1.292   .     A
C953   H992    1.084   .     S
C953   C955    1.402   .     A
C954   C956    1.399   .     A
C955   C957    1.401   .     A
C956   H1003   1.084   .     S
C956   C958    1.388   .     A
C957   C959    1.389   .     A
C957   H1013   1.083   .     S
C958   H1014   1.083   .     S
C958   C960    1.402   .     A
C959   C961    1.401   .     A
C959   H1015   1.083   .     S
C961   C678    1.466   1_565 S
C962   H987    1.109   .     S
C962   O1034   1.411   .     S
C962   H985    1.114   .     S
C962   H1080   1.113   .     S
C963   C974    1.411   .     A
C963   O1025   1.381   .     S
C964   O1022   1.411   .     S
C964   H990    1.109   .     S
C964   H989    1.114   .     S
C965   H993    1.112   .     S
C965   H991    1.116   .     S
C965   O1023   1.414   .     S
C966   H994    1.111   .     S
C966   H996    1.111   .     S
C966   C683    1.521   1_565 S
C966   H619    1.111   1_565 S
C967   O1024   1.411   .     S
C967   H997    1.115   .     S
C967   H998    1.114   .     S
C967   C686    1.521   1_565 S
C968   H1001   1.111   .     S
C968   H1000   1.111   .     S
C969   H1002   1.114   .     S
C969   O1025   1.411   .     S
C969   H1004   1.114   .     S
C969   C970    1.521   .     S
C970   H1099   1.111   .     S
C970   H1100   1.109   .     S
C971   O1026   1.411   .     S
C971   H1009   1.114   .     S
C971   C408    1.521   1_556 S
C971   H444    1.115   1_556 S
C972   H1012   1.111   .     S
C972   H1011   1.110   .     S
C973   O1026   1.381   .     S
C973   C975    1.411   .     A
C974   N1019   1.363   .     A
C974   H1016   1.082   .     S
C975   N1020   1.366   .     A
C975   H1017   1.080   .     S
C976   N1019   1.363   .     A
C976   C978    1.405   .     A
C976   H1018   1.081   .     S
C977   H982    1.079   .     S
C977   N1020   1.365   .     A
C978   H983    1.082   .     S
Cu979  O1033   1.972   .     S
Cu979  O1030   1.970   .     S
Cu979  O1021   1.953   .     S
Cu979  Cu980   2.673   .     S
Cu979  N1020   2.008   .     S
Cu979  O1029   1.952   .     S
Cu980  O1027   1.953   .     S
Cu980  N1019   2.008   .     S
Cu980  O1032   1.972   .     S
Cu980  O1028   1.952   .     S
Cu980  O1031   1.970   .     S
H988   C1058   1.113   .     S
H999   C686    1.111   1_565 S
H1007  C406    1.111   1_556 S
H1010  C408    1.111   1_556 S
O1034  C1041   1.389   .     S
C1035  O1115   1.291   .     A
C1035  O1122   1.291   .     A
C1035  C1048   1.455   .     S
C1036  H1078   1.082   .     S
C1036  C1038   1.408   .     A
C1036  C1071   1.406   .     A
C1037  C1057   1.418   .     A
C1037  C1072   1.409   .     A
C1038  C1067   1.416   .     A
C1038  C473    1.514   1_556 S
C1039  O1126   1.289   .     A
C1039  O1124   1.281   .     A
C1039  C1041   1.438   .     S
C1040  O1125   1.281   .     A
C1040  O1127   1.289   .     A
C1040  C1042   1.438   .     S
C1042  C853    1.357   1_655 S
C1042  O928    1.389   1_655 S
C1043  C1054   1.408   .     A
C1043  C1045   1.400   .     A
C1043  O1117   1.386   .     S
C1044  O1118   1.382   .     S
C1044  C1055   1.408   .     A
C1044  C1047   1.395   .     A
C1045  C1048   1.400   .     A
C1045  H1075   1.083   .     S
C1046  O1123   1.292   .     A
C1046  C1049   1.460   .     S
C1046  O1121   1.292   .     A
C1047  H1086   1.084   .     S
C1047  C1049   1.402   .     A
C1048  C1050   1.399   .     A
C1049  C1051   1.401   .     A
C1050  H1097   1.084   .     S
C1050  C1052   1.388   .     A
C1051  C1053   1.389   .     A
C1051  H1107   1.083   .     S
C1052  H1108   1.083   .     S
C1052  C1054   1.402   .     A
C1053  C1055   1.401   .     A
C1053  H1109   1.083   .     S
C1055  C772    1.466   1_565 S
C1056  H1081   1.109   .     S
C1056  O1128   1.411   .     S
C1056  H1079   1.114   .     S
C1056  H892    1.113   1_655 S
C1057  C1068   1.411   .     A
C1057  O1119   1.381   .     S
C1058  O1116   1.411   .     S
C1058  H1084   1.109   .     S
C1058  H1083   1.114   .     S
C1059  H1087   1.112   .     S
C1059  H1085   1.116   .     S
C1059  O1117   1.414   .     S
C1060  H1088   1.111   .     S
C1060  H1090   1.111   .     S
C1060  C777    1.521   1_565 S
C1060  H713    1.111   1_565 S
C1061  O1118   1.411   .     S
C1061  H1091   1.115   .     S
C1061  H1092   1.114   .     S
C1061  C780    1.521   1_565 S
C1062  H1095   1.111   .     S
C1062  H1094   1.111   .     S
C1063  H1096   1.114   .     S
C1063  O1119   1.411   .     S
C1063  H1098   1.114   .     S
C1063  C1064   1.521   .     S
C1064  H911    1.111   1_655 S
C1064  H912    1.109   1_655 S
C1065  O1120   1.411   .     S
C1065  H1103   1.114   .     S
C1065  C502    1.521   1_556 S
C1065  H538    1.115   1_556 S
C1066  H1106   1.111   .     S
C1066  H1105   1.110   .     S
C1067  O1120   1.381   .     S
C1067  C1069   1.411   .     A
C1068  N1113   1.363   .     A
C1068  H1110   1.082   .     S
C1069  N1114   1.366   .     A
C1069  H1111   1.080   .     S
C1070  N1113   1.363   .     A
C1070  C1072   1.405   .     A
C1070  H1112   1.081   .     S
C1071  H1076   1.079   .     S
C1071  N1114   1.365   .     A
C1072  H1077   1.082   .     S
Cu1073 O1127   1.972   .     S
Cu1073 O1124   1.970   .     S
Cu1073 O1115   1.953   .     S
Cu1073 Cu1074  2.673   .     S
Cu1073 N1114   2.008   .     S
Cu1073 O1123   1.952   .     S
Cu1074 O1121   1.953   .     S
Cu1074 N1113   2.008   .     S
Cu1074 O1126   1.972   .     S
Cu1074 O1122   1.952   .     S
Cu1074 O1125   1.970   .     S
H1082  C870    1.113   1_655 S
H1089  C590    1.111   1_655 S
H1093  C780    1.111   1_565 S
H1101  C500    1.111   1_556 S
H1104  C502    1.111   1_556 S
O1128  C853    1.389   1_655 S
