data_str_m1_o2_o5_pcu_sym.17
_audit_creation_date              2020-01-03
_audit_creation_method            'Materials Studio'
_symmetry_space_group_name_H-M    'P1'
_symmetry_Int_Tables_number       1
_symmetry_cell_setting            triclinic
loop_
_symmetry_equiv_pos_as_xyz
  x,y,z
_cell_length_a                    24.9163
_cell_length_b                    24.9421
_cell_length_c                    22.2561
_cell_angle_alpha                 90.0119
_cell_angle_beta                  90.0335
_cell_angle_gamma                 90.0521
loop_
_atom_site_label
_atom_site_type_symbol
_atom_site_fract_x
_atom_site_fract_y
_atom_site_fract_z
_atom_site_U_iso_or_equiv
_atom_site_adp_type
_atom_site_occupancy
C1     C     0.22795   0.27187   0.25125   0.00000  Uiso   1.00
C2     C     0.23200   0.72834   0.24904   0.00000  Uiso   1.00
C3     C     0.18808   0.65342   0.29774   0.00000  Uiso   1.00
C4     C     0.35791   0.19599   0.71493   0.00000  Uiso   1.00
C5     C     0.65239   0.81050   0.29676   0.00000  Uiso   1.00
C6     C     0.19581   0.64181   0.71511   0.00000  Uiso   1.00
C7     C     0.81180   0.34626   0.29746   0.00000  Uiso   1.00
C8     C     0.35734   0.80540   0.28730   0.00000  Uiso   1.00
C9     C     0.65413   0.18802   0.70191   0.00000  Uiso   1.00
C10    C     0.19483   0.35730   0.28703   0.00000  Uiso   1.00
C11    C     0.81283   0.65432   0.70123   0.00000  Uiso   1.00
C12    C     0.64186   0.19577   0.28501   0.00000  Uiso   1.00
C13    C     0.72929   0.77288   0.74822   0.00000  Uiso   1.00
C14    C     0.34653   0.81124   0.70245   0.00000  Uiso   1.00
C15    C     0.80384   0.64130   0.28438   0.00000  Uiso   1.00
C16    C     0.18808   0.34646   0.70217   0.00000  Uiso   1.00
C17    C     0.14717   0.35177   0.25131   0.00000  Uiso   1.00
C18    C     0.85123   0.64910   0.74979   0.00000  Uiso   1.00
C19    C     0.35215   0.85247   0.25062   0.00000  Uiso   1.00
C20    C     0.64889   0.14925   0.75000   0.00000  Uiso   1.00
C21    C     0.85266   0.64816   0.25108   0.00000  Uiso   1.00
C22    C     0.14898   0.35096   0.75000   0.00000  Uiso   1.00
C23    C     0.64758   0.14789   0.24982   0.00000  Uiso   1.00
C24    C     0.26992   0.23031   0.25082   0.00000  Uiso   1.00
C25    C     0.35130   0.85050   0.75007   0.00000  Uiso   1.00
C26    C     0.85181   0.35273   0.75076   0.00000  Uiso   1.00
C27    C     0.14966   0.64836   0.24924   0.00000  Uiso   1.00
C28    C     0.64820   0.85266   0.74923   0.00000  Uiso   1.00
C29    C     0.35089   0.14886   0.25043   0.00000  Uiso   1.00
C30    C     0.14808   0.64733   0.75062   0.00000  Uiso   1.00
C31    C     0.85060   0.35130   0.24944   0.00000  Uiso   1.00
C32    C     0.35220   0.14787   0.74978   0.00000  Uiso   1.00
C33    C     0.64856   0.85039   0.24958   0.00000  Uiso   1.00
C34    C     0.22996   0.72612   0.75273   0.00000  Uiso   1.00
C35    C     0.76868   0.27097   0.24868   0.00000  Uiso   1.00
C36    C     0.27130   0.22775   0.74870   0.00000  Uiso   1.00
C37    C     0.72829   0.76778   0.24843   0.00000  Uiso   1.00
C38    C     0.00001   0.50000   0.47319   0.00000  Uiso   1.00
C39    C     0.99999   0.50000   0.52681   0.00000  Uiso   1.00
C40    C     0.50000   0.00000   0.47319   0.00000  Uiso   1.00
C41    C     0.77104   0.73118   0.74852   0.00000  Uiso   1.00
C42    C     0.50000  -0.00000   0.52681   0.00000  Uiso   1.00
C43    C     0.50001   0.00000   0.97319   0.00000  Uiso   1.00
C44    C     0.49999   0.00000   0.02681   0.00000  Uiso   1.00
C45    C     0.00000   0.50000   0.97319   0.00000  Uiso   1.00
C46    C     0.00000   0.50000   0.02681   0.00000  Uiso   1.00
C47    C     0.00000   0.50000   0.09034   0.00000  Uiso   1.00
C48    C    -0.00000   0.50000   0.90966   0.00000  Uiso   1.00
C49    C     0.49999   0.00000   0.09033   0.00000  Uiso   1.00
C50    C     0.50001   0.00000   0.90968   0.00000  Uiso   1.00
C51    C     0.50000  -0.00000   0.59034   0.00000  Uiso   1.00
C52    C     0.27326   0.77062   0.24936   0.00000  Uiso   1.00
C53    C     0.50000   0.00000   0.40966   0.00000  Uiso   1.00
C54    C    -0.00001   0.50000   0.59032   0.00000  Uiso   1.00
C55    C     0.00001   0.50000   0.40968   0.00000  Uiso   1.00
C56    C     0.10584   0.60557   0.24979   0.00000  Uiso   1.00
C57    C     0.89465   0.39486   0.75015   0.00000  Uiso   1.00
C58    C     0.60568   0.89420   0.24995   0.00000  Uiso   1.00
C59    C     0.39473   0.10533   0.75002   0.00000  Uiso   1.00
C60    C     0.89421   0.39436   0.24988   0.00000  Uiso   1.00
C61    C     0.10526   0.60522   0.75004   0.00000  Uiso   1.00
C62    C     0.39422   0.10566   0.25011   0.00000  Uiso   1.00
C63    C     0.72938   0.23099   0.75123   0.00000  Uiso   1.00
C64    C     0.60538   0.89479   0.74987   0.00000  Uiso   1.00
C65    C     0.89428   0.60568   0.75003   0.00000  Uiso   1.00
C66    C     0.10508   0.39458   0.25036   0.00000  Uiso   1.00
C67    C     0.39424   0.89429   0.74986   0.00000  Uiso   1.00
C68    C     0.60527   0.10521   0.25004   0.00000  Uiso   1.00
C69    C     0.10575   0.39433   0.75008   0.00000  Uiso   1.00
C70    C     0.89502   0.60552   0.25052   0.00000  Uiso   1.00
C71    C     0.60574   0.10571   0.74992   0.00000  Uiso   1.00
C72    C     0.39462   0.89489   0.25025   0.00000  Uiso   1.00
C73    C     0.17921   0.26288   0.22261   0.00000  Uiso   1.00
C74    C     0.77042   0.72645   0.24855   0.00000  Uiso   1.00
C75    C     0.80340   0.72388   0.79832   0.00000  Uiso   1.00
C76    C     0.26462   0.81854   0.21893   0.00000  Uiso   1.00
C77    C     0.72108   0.19906   0.80107   0.00000  Uiso   1.00
C78    C     0.81988   0.73675   0.22218   0.00000  Uiso   1.00
C79    C     0.19687   0.27625   0.79852   0.00000  Uiso   1.00
C80    C     0.73579   0.18081   0.21924   0.00000  Uiso   1.00
C81    C     0.28014   0.79995   0.80192   0.00000  Uiso   1.00
C82    C     0.81921   0.26453   0.78160   0.00000  Uiso   1.00
C83    C     0.20075   0.71980   0.19861   0.00000  Uiso   1.00
C84    C     0.73748   0.82122   0.77788   0.00000  Uiso   1.00
C85    C     0.22949   0.26934   0.74894   0.00000  Uiso   1.00
C86    C     0.27682   0.19754   0.20133   0.00000  Uiso   1.00
C87    C     0.18172   0.73486   0.78250   0.00000  Uiso   1.00
C88    C     0.80078   0.27889   0.19885   0.00000  Uiso   1.00
C89    C     0.26271   0.17925   0.77767   0.00000  Uiso   1.00
C90    C     0.72208   0.80151   0.19973   0.00000  Uiso   1.00
C91    C     0.68080   0.76437   0.71875   0.00000  Uiso   1.00
C92    C     0.30283   0.22304   0.30009   0.00000  Uiso   1.00
C93    C     0.76283   0.32085   0.72145   0.00000  Uiso   1.00
C94    C     0.22325   0.69698   0.29930   0.00000  Uiso   1.00
C95    C     0.32003   0.23659   0.72007   0.00000  Uiso   1.00
C96    C     0.72701   0.22914   0.24859   0.00000  Uiso   1.00
C97    C     0.69519   0.77444   0.29761   0.00000  Uiso   1.00
C98    C     0.23755   0.67821   0.72213   0.00000  Uiso   1.00
C99    C     0.77681   0.30259   0.29884   0.00000  Uiso   1.00
C100   C     0.32093   0.76359   0.28078   0.00000  Uiso   1.00
C101   C     0.69817   0.22267   0.70076   0.00000  Uiso   1.00
C102   C     0.23622   0.32037   0.28068   0.00000  Uiso   1.00
C103   C     0.77825   0.69822   0.69930   0.00000  Uiso   1.00
C104   C     0.67879   0.23719   0.27852   0.00000  Uiso   1.00
C105   C     0.30321   0.77572   0.70185   0.00000  Uiso   1.00
C106   C     0.76199   0.67749   0.27672   0.00000  Uiso   1.00
C107   C     0.27198   0.76758   0.75238   0.00000  Uiso   1.00
C108   C     0.22246   0.30242   0.69985   0.00000  Uiso   1.00
C109   C     0.14158   0.30362   0.21658   0.00000  Uiso   1.00
C110   C     0.84631   0.68798   0.79787   0.00000  Uiso   1.00
C111   C     0.30486   0.85691   0.21411   0.00000  Uiso   1.00
C112   C     0.68730   0.15448   0.79842   0.00000  Uiso   1.00
C113   C     0.85893   0.69717   0.21804   0.00000  Uiso   1.00
C114   C     0.15345   0.31156   0.79751   0.00000  Uiso   1.00
C115   C     0.69532   0.14271   0.21423   0.00000  Uiso   1.00
C116   C     0.31297   0.84514   0.79847   0.00000  Uiso   1.00
C117   C     0.85691   0.30536   0.78694   0.00000  Uiso   1.00
C118   C     0.77107   0.27280   0.75156   0.00000  Uiso   1.00
C119   C     0.15598   0.68612   0.20019   0.00000  Uiso   1.00
C120   C     0.69620   0.85810   0.78441   0.00000  Uiso   1.00
C121   C     0.31196   0.15399   0.20238   0.00000  Uiso   1.00
C122   C     0.14336   0.69455   0.78713   0.00000  Uiso   1.00
C123   C     0.84514   0.31305   0.20090   0.00000  Uiso   1.00
C124   C     0.30381   0.14218   0.78413   0.00000  Uiso   1.00
C125   C     0.68778   0.84568   0.20183   0.00000  Uiso   1.00
C126   C     0.64319   0.80513   0.71324   0.00000  Uiso   1.00
C127   C     0.34604   0.18750   0.29882   0.00000  Uiso   1.00
C128   C     0.80398   0.35816   0.71536   0.00000  Uiso   1.00
H1     H     0.17154   0.22422   0.20238   0.00000  Uiso   1.00
H2     H     0.20887   0.74380   0.15921   0.00000  Uiso   1.00
H3     H     0.77605   0.82911   0.79844   0.00000  Uiso   1.00
H4     H     0.25128   0.20418   0.16279   0.00000  Uiso   1.00
H5     H     0.17484   0.77305   0.80419   0.00000  Uiso   1.00
H6     H     0.79346   0.25443   0.15958   0.00000  Uiso   1.00
H7     H     0.22387   0.17120   0.79747   0.00000  Uiso   1.00
H8     H     0.74785   0.79528   0.16131   0.00000  Uiso   1.00
H9     H     0.67317   0.72592   0.69792   0.00000  Uiso   1.00
H10    H     0.29637   0.24837   0.33880   0.00000  Uiso   1.00
H11    H     0.72445   0.32824   0.70030   0.00000  Uiso   1.00
H12    H     0.79674   0.74941   0.83682   0.00000  Uiso   1.00
H13    H     0.24751   0.70437   0.33872   0.00000  Uiso   1.00
H14    H     0.32777   0.27524   0.69979   0.00000  Uiso   1.00
H15    H     0.70113   0.74833   0.33579   0.00000  Uiso   1.00
H16    H     0.27590   0.67037   0.70116   0.00000  Uiso   1.00
H17    H     0.75205   0.29543   0.33790   0.00000  Uiso   1.00
H18    H     0.32862   0.72561   0.30261   0.00000  Uiso   1.00
H19    H     0.70579   0.24724   0.66166   0.00000  Uiso   1.00
H20    H     0.27471   0.32835   0.30131   0.00000  Uiso   1.00
H21    H     0.75326   0.70494   0.66034   0.00000  Uiso   1.00
H22    H     0.67110   0.27558   0.29939   0.00000  Uiso   1.00
H23    H     0.22647   0.82512   0.19691   0.00000  Uiso   1.00
H24    H     0.29597   0.75071   0.66303   0.00000  Uiso   1.00
H25    H     0.72305   0.66882   0.29591   0.00000  Uiso   1.00
H26    H     0.24766   0.29601   0.66101   0.00000  Uiso   1.00
H27    H     0.01028   0.31218   0.15582   0.00000  Uiso   1.00
H28    H     0.89609   0.63628   0.91123   0.00000  Uiso   1.00
H29    H     0.31590   0.98861   0.15829   0.00000  Uiso   1.00
H30    H     0.64381   0.10064   0.91068   0.00000  Uiso   1.00
H31    H     0.99402   0.68746   0.17399   0.00000  Uiso   1.00
H32    H     0.10177   0.35775   0.91367   0.00000  Uiso   1.00
H33    H     0.68460   0.01072   0.16030   0.00000  Uiso   1.00
H34    H     0.74525   0.20633   0.84060   0.00000  Uiso   1.00
H35    H     0.35457   0.89989   0.90839   0.00000  Uiso   1.00
H36    H     0.98792   0.31846   0.84261   0.00000  Uiso   1.00
H37    H     0.09507   0.64350   0.08281   0.00000  Uiso   1.00
H38    H     0.68901   0.98925   0.84367   0.00000  Uiso   1.00
H39    H     0.36308   0.10408   0.09187   0.00000  Uiso   1.00
H40    H     0.01172   0.68383   0.84509   0.00000  Uiso   1.00
H41    H     0.90034   0.35667   0.08465   0.00000  Uiso   1.00
H42    H     0.31071   0.00990   0.83615   0.00000  Uiso   1.00
H43    H     0.64169   0.89839   0.08916   0.00000  Uiso   1.00
H44    H     0.51110   0.81303   0.65848   0.00000  Uiso   1.00
H45    H     0.82745   0.77591   0.20318   0.00000  Uiso   1.00
H46    H     0.39656   0.13667   0.41204   0.00000  Uiso   1.00
H47    H     0.81672   0.48889   0.65774   0.00000  Uiso   1.00
H48    H     0.14187   0.60245   0.41332   0.00000  Uiso   1.00
H49    H     0.49059   0.18429   0.66633   0.00000  Uiso   1.00
H50    H     0.60358   0.85811   0.41154   0.00000  Uiso   1.00
H51    H     0.17927   0.51252   0.65940   0.00000  Uiso   1.00
H52    H     0.85099   0.40161   0.41927   0.00000  Uiso   1.00
H53    H     0.48609   0.82396   0.34335   0.00000  Uiso   1.00
H54    H     0.59361   0.14986   0.57995   0.00000  Uiso   1.00
H55    H     0.18026   0.48685   0.34635   0.00000  Uiso   1.00
H56    H     0.20343   0.25069   0.83702   0.00000  Uiso   1.00
H57    H     0.86230   0.60327   0.58986   0.00000  Uiso   1.00
H58    H     0.51158   0.18281   0.34518   0.00000  Uiso   1.00
H59    H     0.40148   0.85500   0.58444   0.00000  Uiso   1.00
H60    H     0.81638   0.51216   0.34808   0.00000  Uiso   1.00
H61    H     0.14535   0.39906   0.58661   0.00000  Uiso   1.00
H62    H     0.77423   0.17364   0.19818   0.00000  Uiso   1.00
H63    H     0.25607   0.79284   0.84155   0.00000  Uiso   1.00
H64    H     0.82648   0.22630   0.80304   0.00000  Uiso   1.00
O1     O     0.00000   0.50000   0.25000   0.00000  Uiso   1.00
O2     O     0.00000   0.45454   0.88202   0.00000  Uiso   1.00
O3     O     0.65641   0.92649   0.11595   0.00000  Uiso   1.00
O4     O     0.59756   0.83870   0.61134   0.00000  Uiso   1.00
O5     O     0.60137   0.74155   0.62589   0.00000  Uiso   1.00
O6     O     0.53334   0.79483   0.68896   0.00000  Uiso   1.00
O7     O     0.43575   0.23870   0.31988   0.00000  Uiso   1.00
O8     O     0.37215   0.23895   0.40187   0.00000  Uiso   1.00
O9     O     0.42483   0.15186   0.38584   0.00000  Uiso   1.00
O10    O     0.83604   0.40063   0.61130   0.00000  Uiso   1.00
O11    O     0.73929   0.40089   0.62959   0.00000  Uiso   1.00
O12    O     0.79706   0.46817   0.68852   0.00000  Uiso   1.00
O13    O     0.54546  -0.00000   0.11798   0.00000  Uiso   1.00
O14    O     0.23764   0.56231   0.31356   0.00000  Uiso   1.00
O15    O     0.24420   0.62440   0.39676   0.00000  Uiso   1.00
O16    O     0.15455   0.57457   0.38510   0.00000  Uiso   1.00
O17    O     0.40550   0.16575   0.61297   0.00000  Uiso   1.00
O18    O     0.40345   0.26223   0.63243   0.00000  Uiso   1.00
O19    O     0.46836   0.20506   0.69533   0.00000  Uiso   1.00
O20    O     0.56074   0.76181   0.31330   0.00000  Uiso   1.00
O21    O     0.62325   0.75497   0.39610   0.00000  Uiso   1.00
O22    O     0.57470   0.84501   0.38482   0.00000  Uiso   1.00
O23    O     0.16208   0.60017   0.61107   0.00000  Uiso   1.00
O24    O     0.45454  -0.00000   0.88202   0.00000  Uiso   1.00
O25    O     0.25913   0.60040   0.62732   0.00000  Uiso   1.00
O26    O     0.20288   0.53257   0.68713   0.00000  Uiso   1.00
O27    O     0.76188   0.43726   0.31110   0.00000  Uiso   1.00
O28    O     0.75399   0.37599   0.39489   0.00000  Uiso   1.00
O29    O     0.84416   0.42545   0.38454   0.00000  Uiso   1.00
O30    O     0.39801   0.84175   0.39084   0.00000  Uiso   1.00
O31    O     0.39713   0.74442   0.37807   0.00000  Uiso   1.00
O32    O     0.46645   0.79829   0.31758   0.00000  Uiso   1.00
O33    O     0.56545   0.24271   0.68618   0.00000  Uiso   1.00
O34    O     0.62686   0.24369   0.60173   0.00000  Uiso   1.00
O35    O     0.50000   0.95454   0.61798   0.00000  Uiso   1.00
O36    O     0.57207   0.15715   0.61642   0.00000  Uiso   1.00
O37    O     0.16010   0.39806   0.39088   0.00000  Uiso   1.00
O38    O     0.25734   0.39773   0.37614   0.00000  Uiso   1.00
O39    O     0.20207   0.46672   0.31693   0.00000  Uiso   1.00
O40    O     0.76102   0.56453   0.68345   0.00000  Uiso   1.00
O41    O     0.75857   0.62691   0.60038   0.00000  Uiso   1.00
O42    O     0.84620   0.57457   0.61468   0.00000  Uiso   1.00
O43    O     0.60081   0.16266   0.38937   0.00000  Uiso   1.00
O44    O     0.60017   0.25948   0.37221   0.00000  Uiso   1.00
O45    O     0.53198   0.20223   0.31392   0.00000  Uiso   1.00
O46    O     0.50000   0.04546   0.38202   0.00000  Uiso   1.00
O47    O     0.43596   0.75887   0.68587   0.00000  Uiso   1.00
O48    O     0.37398   0.75640   0.60222   0.00000  Uiso   1.00
O49    O     0.42701   0.84382   0.61619   0.00000  Uiso   1.00
O50    O     0.83628   0.60234   0.38989   0.00000  Uiso   1.00
O51    O     0.73956   0.59989   0.37119   0.00000  Uiso   1.00
O52    O     0.79857   0.53204   0.31526   0.00000  Uiso   1.00
O53    O     0.23849   0.43765   0.69037   0.00000  Uiso   1.00
O54    O     0.24706   0.37715   0.60601   0.00000  Uiso   1.00
O55    O     0.15712   0.42657   0.61580   0.00000  Uiso   1.00
O56    O     0.95454   0.50000   0.61798   0.00000  Uiso   1.00
O57    O     0.04546   0.50000   0.38202   0.00000  Uiso   1.00
O58    O     0.50000   0.04546   0.61798   0.00000  Uiso   1.00
O59    O     0.50000   0.95454   0.38202   0.00000  Uiso   1.00
O60    O     0.04546   0.50000   0.61798   0.00000  Uiso   1.00
O61    O     0.00000   0.50000   0.75000   0.00000  Uiso   1.00
O62    O     0.95454   0.50000   0.38202   0.00000  Uiso   1.00
O63    O     0.06399   0.60947   0.21539   0.00000  Uiso   1.00
O64    O     0.93601   0.39053   0.78461   0.00000  Uiso   1.00
O65    O     0.60947   0.93601   0.21539   0.00000  Uiso   1.00
O66    O     0.39053   0.06399   0.78461   0.00000  Uiso   1.00
O67    O     0.93601   0.39053   0.21539   0.00000  Uiso   1.00
O68    O     0.06399   0.60947   0.78461   0.00000  Uiso   1.00
O69    O     0.39053   0.06399   0.21539   0.00000  Uiso   1.00
O70    O     0.60947   0.93601   0.78461   0.00000  Uiso   1.00
O71    O     0.93601   0.60947   0.78461   0.00000  Uiso   1.00
O72    O     0.50000  -0.00000   0.25000   0.00000  Uiso   1.00
O73    O     0.06399   0.39053   0.21539   0.00000  Uiso   1.00
O74    O     0.39053   0.93601   0.78461   0.00000  Uiso   1.00
O75    O     0.60947   0.06399   0.21539   0.00000  Uiso   1.00
O76    O     0.06399   0.39053   0.78461   0.00000  Uiso   1.00
O77    O     0.93601   0.60947   0.21539   0.00000  Uiso   1.00
O78    O     0.60947   0.06399   0.78461   0.00000  Uiso   1.00
O79    O     0.39053   0.93601   0.21539   0.00000  Uiso   1.00
O80    O     0.56399   0.10947   0.71539   0.00000  Uiso   1.00
O81    O     0.43601   0.89053   0.28461   0.00000  Uiso   1.00
O82    O     0.10947   0.43601   0.71539   0.00000  Uiso   1.00
O83    O     0.50000  -0.00000   0.75000   0.00000  Uiso   1.00
O84    O     0.89053   0.56399   0.28461   0.00000  Uiso   1.00
O85    O     0.43601   0.89053   0.71539   0.00000  Uiso   1.00
O86    O     0.56399   0.10947   0.28461   0.00000  Uiso   1.00
O87    O     0.89053   0.56399   0.71539   0.00000  Uiso   1.00
O88    O     0.10947   0.43601   0.28461   0.00000  Uiso   1.00
O89    O     0.43601   0.10947   0.28461   0.00000  Uiso   1.00
O90    O     0.56399   0.89053   0.71539   0.00000  Uiso   1.00
O91    O     0.89053   0.43601   0.28461   0.00000  Uiso   1.00
O92    O     0.10947   0.56399   0.71539   0.00000  Uiso   1.00
O93    O     0.56399   0.89053   0.28461   0.00000  Uiso   1.00
O94    O     0.00000   0.45454   0.11798   0.00000  Uiso   1.00
O95    O     0.43601   0.10947   0.71539   0.00000  Uiso   1.00
O96    O     0.10947   0.56399   0.28461   0.00000  Uiso   1.00
O97    O     0.89053   0.43601   0.71539   0.00000  Uiso   1.00
O98    O     0.09954   0.33374   0.11176   0.00000  Uiso   1.00
O99    O     0.09784   0.23751   0.13296   0.00000  Uiso   1.00
O100   O     0.03124   0.29741   0.18962   0.00000  Uiso   1.00
O101   O     0.93582   0.73914   0.82064   0.00000  Uiso   1.00
O102   O     0.87130   0.73858   0.90179   0.00000  Uiso   1.00
O103   O     0.92456   0.65187   0.88559   0.00000  Uiso   1.00
O104   O     0.33687   0.90106   0.11087   0.00000  Uiso   1.00
O105   O     0.00000   0.54546   0.88202   0.00000  Uiso   1.00
O106   O     0.24002   0.89971   0.12848   0.00000  Uiso   1.00
O107   O     0.29645   0.96724   0.18871   0.00000  Uiso   1.00
O108   O     0.73941   0.06438   0.80827   0.00000  Uiso   1.00
O109   O     0.74719   0.12379   0.89384   0.00000  Uiso   1.00
O110   O     0.65810   0.07274   0.88350   0.00000  Uiso   1.00
O111   O     0.91032   0.67372   0.11642   0.00000  Uiso   1.00
O112   O     0.90922   0.76838   0.14466   0.00000  Uiso   1.00
O113   O     0.97129   0.70512   0.20436   0.00000  Uiso   1.00
O114   O     0.06289   0.26064   0.81489   0.00000  Uiso   1.00
O115   O     0.12556   0.25677   0.89793   0.00000  Uiso   1.00
O116   O     0.45454  -0.00000   0.11798   0.00000  Uiso   1.00
O117   O     0.07439   0.34525   0.88466   0.00000  Uiso   1.00
O118   O     0.66442   0.09750   0.11118   0.00000  Uiso   1.00
O119   O     0.76103   0.09868   0.13034   0.00000  Uiso   1.00
O120   O     0.70363   0.03236   0.19079   0.00000  Uiso   1.00
O121   O     0.25995   0.93491   0.80375   0.00000  Uiso   1.00
O122   O     0.24978   0.87727   0.89053   0.00000  Uiso   1.00
O123   O     0.33914   0.92824   0.88252   0.00000  Uiso   1.00
O124   O     0.90036   0.33880   0.89004   0.00000  Uiso   1.00
O125   O     0.89891   0.24184   0.87420   0.00000  Uiso   1.00
O126   O     0.96691   0.29712   0.81347   0.00000  Uiso   1.00
O127   O     0.54546  -0.00000   0.88202   0.00000  Uiso   1.00
O128   O     0.07003   0.74435   0.18149   0.00000  Uiso   1.00
O129   O     0.13126   0.73873   0.09739   0.00000  Uiso   1.00
O130   O     0.07203   0.65614   0.11616   0.00000  Uiso   1.00
O131   O     0.66349   0.90106   0.88797   0.00000  Uiso   1.00
O132   O     0.76053   0.90030   0.87078   0.00000  Uiso   1.00
O133   O     0.70398   0.96756   0.81065   0.00000  Uiso   1.00
O134   O     0.26034   0.06417   0.18335   0.00000  Uiso   1.00
O135   O     0.25834   0.12724   0.10078   0.00000  Uiso   1.00
O136   O     0.34584   0.07473   0.11517   0.00000  Uiso   1.00
O137   O     0.10008   0.66154   0.89035   0.00000  Uiso   1.00
O138   O     0.00000   0.54546   0.11798   0.00000  Uiso   1.00
O139   O     0.10127   0.75844   0.87393   0.00000  Uiso   1.00
O140   O     0.03293   0.70269   0.81405   0.00000  Uiso   1.00
O141   O     0.93453   0.26023   0.18592   0.00000  Uiso   1.00
O142   O     0.87328   0.25713   0.10168   0.00000  Uiso   1.00
O143   O     0.92628   0.34462   0.11547   0.00000  Uiso   1.00
O144   O     0.33479   0.09523   0.88624   0.00000  Uiso   1.00
O145   O     0.23799   0.09851   0.86818   0.00000  Uiso   1.00
O146   O     0.29381   0.03258   0.80523   0.00000  Uiso   1.00
O147   O     0.74000   0.93583   0.18789   0.00000  Uiso   1.00
O148   O     0.74473   0.87487   0.10340   0.00000  Uiso   1.00
S1     S     0.09256   0.29238   0.16030   0.00000  Uiso   1.00
S2     S     0.10639   0.70689   0.14774   0.00000  Uiso   1.00
S3     S     0.70664   0.90666   0.84115   0.00000  Uiso   1.00
S4     S     0.29356   0.10415   0.14931   0.00000  Uiso   1.00
S5     S     0.09442   0.70490   0.84382   0.00000  Uiso   1.00
S6     S     0.89573   0.29310   0.14987   0.00000  Uiso   1.00
S7     S     0.29197   0.09221   0.83875   0.00000  Uiso   1.00
S8     S     0.70793   0.89668   0.15121   0.00000  Uiso   1.00
S9     S     0.59394   0.79452   0.65714   0.00000  Uiso   1.00
S10    S     0.39559   0.20476   0.35271   0.00000  Uiso   1.00
S11    S     0.79345   0.40691   0.65864   0.00000  Uiso   1.00
S12    S     0.89536   0.70485   0.85258   0.00000  Uiso   1.00
S13    S     0.20678   0.60279   0.34944   0.00000  Uiso   1.00
S14    S     0.40883   0.20792   0.66117   0.00000  Uiso   1.00
S15    S     0.60176   0.79240   0.34880   0.00000  Uiso   1.00
S16    S     0.20553   0.59387   0.65744   0.00000  Uiso   1.00
S17    S     0.79223   0.39720   0.34817   0.00000  Uiso   1.00
S18    S     0.40458   0.79701   0.34615   0.00000  Uiso   1.00
S19    S     0.60368   0.20842   0.65050   0.00000  Uiso   1.00
S20    S     0.20413   0.40488   0.34532   0.00000  Uiso   1.00
S21    S     0.79405   0.60418   0.64883   0.00000  Uiso   1.00
S22    S     0.59377   0.20565   0.34265   0.00000  Uiso   1.00
S23    S     0.29394   0.90621   0.15800   0.00000  Uiso   1.00
S24    S     0.39679   0.79204   0.65055   0.00000  Uiso   1.00
S25    S     0.79390   0.59399   0.34266   0.00000  Uiso   1.00
S26    S     0.20847   0.39793   0.65251   0.00000  Uiso   1.00
S27    S     0.70884   0.10287   0.84711   0.00000  Uiso   1.00
S28    S     0.91249   0.71209   0.16853   0.00000  Uiso   1.00
S29    S     0.10314   0.29293   0.84983   0.00000  Uiso   1.00
S30    S     0.70675   0.09283   0.15907   0.00000  Uiso   1.00
S31    S     0.28950   0.89745   0.84488   0.00000  Uiso   1.00
S32    S     0.90571   0.29521   0.84375   0.00000  Uiso   1.00
Zn1    Zn    0.06497   0.50000   0.29947   0.00000  Uiso   1.00
Zn2    Zn    0.43503  -0.00000   0.20053   0.00000  Uiso   1.00
Zn3    Zn    0.00000   0.43503   0.79947   0.00000  Uiso   1.00
Zn4    Zn    0.00000   0.56497   0.20053   0.00000  Uiso   1.00
Zn5    Zn    0.43503  -0.00000   0.79947   0.00000  Uiso   1.00
Zn6    Zn    0.56497  -0.00000   0.20053   0.00000  Uiso   1.00
Zn7    Zn    0.00000   0.56497   0.79947   0.00000  Uiso   1.00
Zn8    Zn    0.00000   0.43503   0.20053   0.00000  Uiso   1.00
Zn9    Zn    0.93503   0.50000   0.70053   0.00000  Uiso   1.00
Zn10   Zn    0.50000   0.93503   0.29947   0.00000  Uiso   1.00
Zn11   Zn    0.50000   0.06497   0.70053   0.00000  Uiso   1.00
Zn12   Zn    0.93503   0.50000   0.29947   0.00000  Uiso   1.00
Zn13   Zn    0.06497   0.50000   0.70053   0.00000  Uiso   1.00
Zn14   Zn    0.50000   0.06497   0.29947   0.00000  Uiso   1.00
Zn15   Zn    0.50000   0.93503   0.70053   0.00000  Uiso   1.00
Zn16   Zn    0.56497  -0.00000   0.79947   0.00000  Uiso   1.00
loop_
_geom_bond_atom_site_label_1
_geom_bond_atom_site_label_2
_geom_bond_distance
_geom_bond_site_symmetry_2
_ccdc_geom_bond_type
C1     C24     1.473   .     S
C1     C73     1.389   .     A
C1     C102    1.391   .     A
C2     C83     1.382   .     A
C2     C52     1.472   .     S
C2     C94     1.382   .     A
C3     S13     1.771   .     S
C3     C27     1.448   .     A
C3     C94     1.395   .     A
C4     C32     1.436   .     A
C4     S14     1.770   .     S
C4     C95     1.390   .     A
C5     S15     1.771   .     S
C5     C33     1.450   .     A
C5     C97     1.396   .     A
C6     C30     1.435   .     A
C6     C98     1.389   .     A
C6     S16     1.771   .     S
C7     C99     1.395   .     A
C7     S17     1.768   .     S
C7     C31     1.447   .     A
C8     C19     1.436   .     A
C8     S18     1.773   .     S
C8     C100    1.389   .     A
C9     S19     1.774   .     S
C9     C20     1.448   .     A
C9     C101    1.396   .     A
C10    C102    1.391   .     A
C10    S20     1.773   .     S
C10    C17     1.435   .     A
C11    C18     1.449   .     A
C11    S21     1.772   .     S
C11    C103    1.395   .     A
C12    C23     1.435   .     A
C12    C104    1.390   .     A
C12    S22     1.773   .     S
C13    C91     1.390   .     A
C13    C84     1.389   .     A
C13    C41     1.472   .     S
C14    S24     1.770   .     S
C14    C105    1.396   .     A
C14    C25     1.448   .     A
C15    C106    1.390   .     A
C15    S25     1.771   .     S
C15    C21     1.435   .     A
C16    C22     1.448   .     A
C16    S26     1.768   .     S
C16    C108    1.395   .     A
C17    C109    1.435   .     A
C17    C66     1.498   .     S
C18    C65     1.525   .     S
C18    C110    1.449   .     A
C19    C111    1.435   .     A
C19    C72     1.496   .     S
C20    C71     1.528   .     S
C20    C112    1.447   .     A
C21    C113    1.435   .     A
C21    C70     1.499   .     S
C22    C69     1.527   .     S
C22    C114    1.448   .     A
C23    C68     1.497   .     S
C23    C115    1.435   .     A
C24    C92     1.381   .     A
C24    C86     1.382   .     A
C25    C67     1.528   .     S
C25    C116    1.446   .     A
C26    C117    1.436   .     A
C26    C57     1.497   .     S
C26    C128    1.435   .     A
C27    C56     1.526   .     S
C27    C119    1.451   .     A
C28    C120    1.435   .     A
C28    C126    1.436   .     A
C28    C64     1.498   .     S
C29    C62     1.526   .     S
C29    C127    1.450   .     A
C29    C121    1.449   .     A
C30    C122    1.436   .     A
C30    C61     1.497   .     S
C31    C60     1.527   .     S
C31    C123    1.447   .     A
C32    C59     1.500   .     S
C32    C124    1.435   .     A
C33    C125    1.449   .     A
C33    C58     1.529   .     S
C34    C87     1.390   .     A
C34    C107    1.471   .     S
C34    C98     1.388   .     A
C35    C96     1.471   .     S
C35    C99     1.382   .     A
C35    C88     1.382   .     A
C36    C89     1.387   .     A
C36    C95     1.389   .     A
C36    C85     1.471   .     S
C37    C90     1.381   .     A
C37    C74     1.472   .     S
C37    C97     1.381   .     A
C38    C55     1.414   .     S
C38    C39     1.193   1_455 S
C39    C54     1.414   1_655 S
C39    C38     1.193   1_655 S
C40    C53     1.414   .     S
C40    C42     1.193   .     S
C41    C75     1.382   .     A
C41    C103    1.381   .     A
C42    C51     1.414   .     S
C43    C50     1.414   .     S
C43    C44     1.193   1_556 S
C44    C49     1.414   .     S
C44    C43     1.193   1_554 S
C45    C48     1.414   .     S
C45    C46     1.193   1_556 S
C46    C47     1.414   .     S
C46    C45     1.193   1_554 S
C47    O138    1.290   .     A
C47    O94     1.290   .     S
C48    O105    1.290   .     A
C48    O2      1.290   .     S
C49    O116    1.289   .     A
C49    O13     1.289   .     A
C50    O24     1.289   .     S
C50    O127    1.289   .     S
C51    O35     1.290   1_545 A
C51    O58     1.290   .     S
C52    C100    1.389   .     A
C52    C76     1.391   .     A
C53    O46     1.290   .     A
C53    O59     1.290   1_545 S
C54    C39     1.414   1_455 S
C54    O56     1.289   1_455 A
C54    O60     1.289   .     S
C55    O57     1.289   .     A
C55    O62     1.289   1_455 S
C56    O96     1.298   .     A
C56    O63     1.297   .     A
C57    O64     1.289   .     A
C57    O97     1.290   .     A
C58    O65     1.299   .     A
C58    O93     1.298   .     A
C59    O95     1.290   .     A
C59    O66     1.291   .     A
C60    O91     1.298   .     A
C60    O67     1.298   .     A
C61    O92     1.290   .     A
C61    O68     1.289   .     A
C62    O89     1.297   .     A
C62    O69     1.298   .     A
C63    C118    1.471   .     S
C63    C101    1.381   .     A
C63    C77     1.381   .     A
C64    O90     1.289   .     A
C64    O70     1.290   .     A
C65    O71     1.297   .     A
C65    O87     1.298   .     A
C66    O73     1.290   .     A
C66    O88     1.288   .     A
C67    O85     1.297   .     A
C67    O74     1.300   .     A
C68    O86     1.289   .     A
C68    O75     1.290   .     A
C69    O76     1.297   .     A
C69    O82     1.298   .     A
C70    O84     1.289   .     A
C70    O77     1.290   .     A
C71    O80     1.296   .     A
C71    O78     1.299   .     A
C72    O81     1.288   .     A
C72    O79     1.290   .     A
C73    H1      1.081   .     S
C73    C109    1.390   .     A
C74    C78     1.389   .     A
C74    C106    1.389   .     A
C75    H12     1.080   .     S
C75    C110    1.395   .     A
C76    H23     1.082   .     S
C76    C111    1.390   .     A
C77    C112    1.395   .     A
C77    H34     1.081   .     S
C78    C113    1.390   .     A
C78    H45     1.081   .     S
C79    H56     1.081   .     S
C79    C85     1.382   .     A
C79    C114    1.396   .     A
C80    H62     1.082   .     S
C80    C115    1.389   .     A
C80    C96     1.388   .     A
C81    H63     1.081   .     S
C81    C116    1.394   .     A
C81    C107    1.381   .     A
C82    C118    1.388   .     A
C82    H64     1.082   .     S
C82    C117    1.390   .     A
C83    C119    1.396   .     A
C83    H2      1.081   .     S
C84    C120    1.388   .     A
C84    H3      1.082   .     S
C85    C108    1.380   .     A
C86    C121    1.396   .     A
C86    H4      1.081   .     S
C87    C122    1.391   .     A
C87    H5      1.082   .     S
C88    H6      1.081   .     S
C88    C123    1.395   .     A
C89    C124    1.388   .     A
C89    H7      1.082   .     S
C90    C125    1.396   .     A
C90    H8      1.081   .     S
C91    C126    1.389   .     A
C91    H9      1.082   .     S
C92    C127    1.395   .     A
C92    H10     1.081   .     S
C93    H11     1.082   .     S
C93    C128    1.390   .     A
C93    C118    1.389   .     A
C94    H13     1.081   .     S
C95    H14     1.082   .     S
C96    C104    1.389   .     A
C97    H15     1.081   .     S
C98    H16     1.082   .     S
C99    H17     1.081   .     S
C100   H18     1.082   .     S
C101   H19     1.081   .     S
C102   H20     1.081   .     S
C103   H21     1.081   .     S
C104   H22     1.082   .     S
C105   C107    1.383   .     A
C105   H24     1.081   .     S
C106   H25     1.082   .     S
C108   H26     1.081   .     S
C109   S1      1.771   .     S
C110   S12     1.775   .     S
C111   S23     1.774   .     S
C112   S27     1.767   .     S
C113   S28     1.770   .     S
C114   S29     1.773   .     S
C115   S30     1.771   .     S
C116   S31     1.764   .     S
C117   S32     1.772   .     S
C119   S2      1.777   .     S
C120   S3      1.769   .     S
C121   S4      1.774   .     S
C122   S5      1.774   .     S
C123   S6      1.769   .     S
C124   S7      1.766   .     S
C125   S8      1.772   .     S
C126   S9      1.770   .     S
C127   S10     1.774   .     S
C128   S11     1.773   .     S
H27    O100    0.987   .     S
H28    O103    0.990   .     S
H29    O107    0.989   .     S
H30    O110    0.989   .     S
H31    O113    0.986   .     S
H32    O117    0.989   .     S
H33    O120    0.988   .     S
H35    O123    0.990   .     S
H36    O126    0.989   .     S
H37    O130    0.990   .     S
H38    O133    0.986   .     S
H39    O136    0.994   .     S
H40    O140    0.989   .     S
H41    O143    0.989   .     S
H42    O146    0.985   .     S
H43    O3      0.990   .     S
H44    O6      0.987   .     S
H46    O9      0.990   .     S
H47    O12     0.988   .     S
H48    O16     0.989   .     S
H49    O19     0.996   .     S
H50    O22     0.989   .     S
H51    O26     0.988   .     S
H52    O29     0.990   .     S
H53    O32     0.989   .     S
H54    O36     0.990   .     S
H55    O39     0.989   .     S
H57    O42     0.989   .     S
H58    O45     0.989   .     S
H59    O49     0.991   .     S
H60    O52     0.988   .     S
H61    O55     0.989   .     S
O1     Zn4     1.959   .     S
O1     Zn1     1.957   .     S
O1     Zn8     1.959   .     S
O1     Zn12    1.958   1_455 S
O2     Zn3     1.900   .     S
O3     S8      1.679   .     S
O4     S9      1.504   .     D
O5     S9      1.504   .     D
O6     S9      1.668   .     S
O7     S10     1.500   .     D
O8     S10     1.506   .     D
O9     S10     1.678   .     S
O10    S11     1.504   .     D
O11    S11     1.503   .     D
O12    S11     1.669   .     S
O13    Zn6     1.900   .     S
O14    S13     1.500   .     D
O15    S13     1.505   .     D
O16    S13     1.679   .     S
O17    S14     1.504   .     D
O18    S14     1.504   .     D
O19    S14     1.668   .     S
O20    S15     1.499   .     D
O21    S15     1.506   .     D
O22    S15     1.680   .     S
O23    S16     1.504   .     D
O24    Zn5     1.900   .     S
O25    S16     1.503   .     D
O26    S16     1.667   .     S
O27    S17     1.501   .     D
O28    S17     1.506   .     D
O29    S17     1.680   .     S
O30    S18     1.504   .     D
O31    S18     1.503   .     D
O32    S18     1.668   .     S
O33    S19     1.507   .     D
O34    S19     1.512   .     D
O35    Zn15    1.901   .     S
O35    C51     1.290   1_565 A
O36    S19     1.682   .     S
O37    S20     1.504   .     D
O38    S20     1.503   .     D
O39    S20     1.668   .     S
O40    S21     1.500   .     D
O41    S21     1.505   .     D
O42    S21     1.678   .     S
O43    S22     1.504   .     D
O44    S22     1.503   .     D
O45    S22     1.669   .     S
O46    Zn14    1.901   .     S
O47    S24     1.502   .     D
O48    S24     1.506   .     D
O49    S24     1.679   .     S
O50    S25     1.504   .     D
O51    S25     1.503   .     D
O52    S25     1.665   .     S
O53    S26     1.499   .     D
O54    S26     1.505   .     D
O55    S26     1.678   .     S
O56    C54     1.289   1_655 A
O56    Zn9     1.901   .     S
O57    Zn1     1.901   .     S
O58    Zn11    1.900   .     S
O59    Zn10    1.900   .     S
O59    C53     1.290   1_565 S
O60    Zn13    1.900   .     S
O61    Zn9     1.957   1_455 S
O61    Zn3     1.959   .     S
O61    Zn7     1.959   .     S
O61    Zn13    1.958   .     S
O62    Zn12    1.900   .     S
O62    C55     1.289   1_655 S
O63    Zn4     1.970   .     S
O64    Zn3     1.970   1_655 S
O65    Zn6     1.972   1_565 S
O66    Zn5     1.972   .     S
O67    Zn8     1.970   1_655 S
O68    Zn7     1.970   .     S
O69    Zn2     1.972   .     S
O70    Zn16    1.972   1_565 S
O71    Zn7     1.971   1_655 S
O72    Zn10    1.959   1_545 S
O72    Zn2     1.957   .     S
O72    Zn6     1.958   .     S
O72    Zn14    1.959   .     S
O73    Zn8     1.971   .     S
O74    Zn5     1.970   1_565 S
O75    Zn6     1.970   .     S
O76    Zn3     1.972   .     S
O77    Zn4     1.972   1_655 S
O78    Zn16    1.971   .     S
O79    Zn2     1.971   1_565 S
O80    Zn11    1.970   .     S
O81    Zn10    1.970   .     S
O82    Zn13    1.972   .     S
O83    Zn11    1.959   .     S
O83    Zn5     1.958   .     S
O83    Zn15    1.959   1_545 S
O83    Zn16    1.957   .     S
O84    Zn12    1.972   .     S
O85    Zn15    1.970   .     S
O86    Zn14    1.970   .     S
O87    Zn9     1.972   .     S
O88    Zn1     1.972   .     S
O89    Zn14    1.971   .     S
O90    Zn15    1.971   .     S
O91    Zn12    1.970   .     S
O92    Zn13    1.970   .     S
O93    Zn10    1.972   .     S
O94    Zn8     1.901   .     S
O95    Zn11    1.972   .     S
O96    Zn1     1.971   .     S
O97    Zn9     1.971   .     S
O98    S1      1.504   .     D
O99    S1      1.503   .     D
O100   S1      1.667   .     S
O101   S12     1.501   .     D
O102   S12     1.506   .     D
O103   S12     1.678   .     S
O104   S23     1.504   .     D
O105   Zn7     1.901   .     S
O106   S23     1.504   .     D
O107   S23     1.670   .     S
O108   S27     1.500   .     D
O109   S27     1.505   .     D
O110   S27     1.679   .     S
O111   S28     1.504   .     D
O112   S28     1.504   .     D
O113   S28     1.677   .     S
O114   S29     1.502   .     D
O115   S29     1.507   .     D
O116   Zn2     1.901   .     S
O117   S29     1.679   .     S
O118   S30     1.504   .     D
O119   S30     1.503   .     D
O120   S30     1.667   .     S
O121   S31     1.501   .     D
O122   S31     1.505   .     D
O123   S31     1.679   .     S
O124   S32     1.504   .     D
O125   S32     1.503   .     D
O126   S32     1.668   .     S
O127   Zn16    1.901   .     S
O128   S2      1.503   .     D
O129   S2      1.507   .     D
O130   S2      1.681   .     S
O131   S3      1.504   .     D
O132   S3      1.504   .     D
O133   S3      1.665   .     S
O134   S4      1.501   .     D
O135   S4      1.506   .     D
O136   S4      1.678   .     S
O137   S5      1.504   .     D
O138   Zn4     1.900   .     S
O139   S5      1.504   .     D
O140   S5      1.670   .     S
O141   S6      1.500   .     D
O142   S6      1.505   .     D
O143   S6      1.678   .     S
O144   S7      1.503   .     D
O145   S7      1.505   .     D
O146   S7      1.664   .     S
O147   S8      1.502   .     D
O148   S8      1.507   .     D
Zn2    O79     1.971   1_545 S
Zn3    O64     1.970   1_455 S
Zn4    O77     1.972   1_455 S
Zn5    O74     1.970   1_545 S
Zn6    O65     1.972   1_545 S
Zn7    O71     1.971   1_455 S
Zn8    O67     1.970   1_455 S
Zn9    O61     1.957   1_655 S
Zn10   O72     1.959   1_565 S
Zn12   O1      1.958   1_655 S
Zn15   O83     1.959   1_565 S
Zn16   O70     1.972   1_545 S
