data_str_m2_o1_o17_pcu_sym.78
_audit_creation_date              2020-01-03
_audit_creation_method            'Materials Studio'
_symmetry_space_group_name_H-M    'P1'
_symmetry_Int_Tables_number       1
_symmetry_cell_setting            triclinic
loop_
_symmetry_equiv_pos_as_xyz
  x,y,z
_cell_length_a                    32.4937
_cell_length_b                    28.9959
_cell_length_c                    29.9585
_cell_angle_alpha                 90.4862
_cell_angle_beta                  92.3428
_cell_angle_gamma                 89.9983
loop_
_atom_site_label
_atom_site_type_symbol
_atom_site_fract_x
_atom_site_fract_y
_atom_site_fract_z
_atom_site_U_iso_or_equiv
_atom_site_adp_type
_atom_site_occupancy
C1     C     0.08751   0.16668   0.25028   0.00000  Uiso   1.00
C2     C     0.04282   0.16673   0.25061   0.00000  Uiso   1.00
C3     C     0.14514   0.02428   0.21748   0.00000  Uiso   1.00
C4     C     0.18813   0.30907   0.28260   0.00000  Uiso   1.00
C5     C     0.18833   0.02503   0.28243   0.00000  Uiso   1.00
C6     C     0.14489   0.30833   0.21765   0.00000  Uiso   1.00
C7     C     0.16646   0.16656   0.16458   0.00000  Uiso   1.00
C8     C     0.16686   0.16672   0.33540   0.00000  Uiso   1.00
C9     C     0.19881   0.18831   0.40829   0.00000  Uiso   1.00
C10    C     0.13543   0.14322   0.09163   0.00000  Uiso   1.00
C11    C     0.16695   0.16645   0.38366   0.00000  Uiso   1.00
C12    C     0.24582   0.16668   0.24977   0.00000  Uiso   1.00
C13    C     0.16652   0.16650   0.11629   0.00000  Uiso   1.00
C14    C     0.13580   0.14300   0.40499   0.00000  Uiso   1.00
C15    C     0.19740   0.19036   0.09491   0.00000  Uiso   1.00
C16    C     0.13555   0.14268   0.45152   0.00000  Uiso   1.00
C17    C     0.19803   0.19005   0.04839   0.00000  Uiso   1.00
C18    C     0.16701   0.16604   0.47657   0.00000  Uiso   1.00
C19    C     0.16678   0.16633   0.02336   0.00000  Uiso   1.00
C20    C     0.19879   0.18894   0.45482   0.00000  Uiso   1.00
C21    C     0.13528   0.14296   0.04510   0.00000  Uiso   1.00
C22    C     0.10435   0.11967   0.47342   0.00000  Uiso   1.00
C23    C     0.10424   0.11978   0.01998   0.00000  Uiso   1.00
C24    C     0.22939   0.21278   0.02649   0.00000  Uiso   1.00
C25    C     0.12228   0.04766   0.18071   0.00000  Uiso   1.00
C26    C     0.21046   0.28601   0.32000   0.00000  Uiso   1.00
C27    C     0.21339   0.04942   0.31750   0.00000  Uiso   1.00
C28    C     0.12017   0.28398   0.18234   0.00000  Uiso   1.00
C29    C     0.22988   0.21202   0.47994   0.00000  Uiso   1.00
C30    C     0.02122   0.12491   0.24912   0.00000  Uiso   1.00
C31    C     0.31209   0.20862   0.25139   0.00000  Uiso   1.00
C32    C     0.31198   0.12494   0.24789   0.00000  Uiso   1.00
C33    C     0.02136   0.20860   0.25203   0.00000  Uiso   1.00
C34    C     0.29051   0.16676   0.24955   0.00000  Uiso   1.00
Cu35   Cu    0.16667   0.21355   0.25000   0.00000  Uiso   1.00
Cu36   Cu    0.16667   0.11978   0.25000   0.00000  Uiso   1.00
H37    H     0.22389   0.20395   0.39112   0.00000  Uiso   1.00
H38    H     0.29621   0.24140   0.25231   0.00000  Uiso   1.00
H39    H     0.29606   0.09221   0.24555   0.00000  Uiso   1.00
H40    H     0.03734   0.24135   0.25380   0.00000  Uiso   1.00
H41    H     0.06960   0.07819   0.15881   0.00000  Uiso   1.00
H42    H     0.21690   0.28149   0.38709   0.00000  Uiso   1.00
H43    H     0.26808   0.07770   0.33623   0.00000  Uiso   1.00
H44    H     0.11524   0.26377   0.11775   0.00000  Uiso   1.00
H45    H     0.11103   0.12614   0.10870   0.00000  Uiso   1.00
H46    H     0.11168   0.12553   0.38528   0.00000  Uiso   1.00
H47    H     0.22118   0.20844   0.11460   0.00000  Uiso   1.00
H48    H     0.08007   0.10164   0.45454   0.00000  Uiso   1.00
H49    H     0.25357   0.23098   0.04536   0.00000  Uiso   1.00
H50    H     0.07991   0.10176   0.03635   0.00000  Uiso   1.00
H51    H     0.25439   0.22972   0.46358   0.00000  Uiso   1.00
H52    H     0.03703   0.09210   0.24887   0.00000  Uiso   1.00
N53    N     0.16667   0.28402   0.25000   0.00000  Uiso   1.00
N54    N     0.16667   0.04931   0.25000   0.00000  Uiso   1.00
O55    O     0.10655   0.20625   0.25000   0.00000  Uiso   1.00
O56    O     0.08271   0.06449   0.18697   0.00000  Uiso   1.00
O57    O     0.24326   0.26679   0.31425   0.00000  Uiso   1.00
O58    O     0.19588   0.29099   0.36303   0.00000  Uiso   1.00
O59    O     0.19993   0.05462   0.35474   0.00000  Uiso   1.00
O60    O     0.25374   0.06227   0.30937   0.00000  Uiso   1.00
O61    O     0.08557   0.27041   0.18977   0.00000  Uiso   1.00
O62    O     0.13521   0.28016   0.13940   0.00000  Uiso   1.00
O63    O     0.22679   0.12709   0.25000   0.00000  Uiso   1.00
O64    O     0.22679   0.20625   0.25000   0.00000  Uiso   1.00
O65    O     0.10655   0.12709   0.25000   0.00000  Uiso   1.00
O66    O     0.16666   0.20627   0.18513   0.00000  Uiso   1.00
O67    O     0.16668   0.12707   0.31487   0.00000  Uiso   1.00
O68    O     0.16668   0.20627   0.31487   0.00000  Uiso   1.00
O69    O     0.16666   0.12707   0.18513   0.00000  Uiso   1.00
O70    O     0.13680   0.04853   0.14372   0.00000  Uiso   1.00
C71    C     0.42084   0.16668   0.25028   0.00000  Uiso   1.00
C72    C     0.37615   0.16673   0.25061   0.00000  Uiso   1.00
C73    C     0.47847   0.02428   0.21748   0.00000  Uiso   1.00
C74    C     0.52146   0.30907   0.28260   0.00000  Uiso   1.00
C75    C     0.52167   0.02503   0.28243   0.00000  Uiso   1.00
C76    C     0.47823   0.30833   0.21765   0.00000  Uiso   1.00
C77    C     0.49980   0.16656   0.16458   0.00000  Uiso   1.00
C78    C     0.50019   0.16672   0.33540   0.00000  Uiso   1.00
C79    C     0.53214   0.18831   0.40829   0.00000  Uiso   1.00
C80    C     0.46876   0.14322   0.09163   0.00000  Uiso   1.00
C81    C     0.50028   0.16645   0.38366   0.00000  Uiso   1.00
C82    C     0.57916   0.16668   0.24977   0.00000  Uiso   1.00
C83    C     0.49985   0.16650   0.11629   0.00000  Uiso   1.00
C84    C     0.46913   0.14300   0.40499   0.00000  Uiso   1.00
C85    C     0.53073   0.19036   0.09491   0.00000  Uiso   1.00
C86    C     0.46888   0.14268   0.45152   0.00000  Uiso   1.00
C87    C     0.53136   0.19005   0.04839   0.00000  Uiso   1.00
C88    C     0.50034   0.16604   0.47657   0.00000  Uiso   1.00
C89    C     0.50012   0.16633   0.02336   0.00000  Uiso   1.00
C90    C     0.53212   0.18894   0.45482   0.00000  Uiso   1.00
C91    C     0.46861   0.14296   0.04510   0.00000  Uiso   1.00
C92    C     0.43768   0.11967   0.47342   0.00000  Uiso   1.00
C93    C     0.43757   0.11978   0.01998   0.00000  Uiso   1.00
C94    C     0.56272   0.21278   0.02649   0.00000  Uiso   1.00
C95    C     0.45561   0.04766   0.18071   0.00000  Uiso   1.00
C96    C     0.54380   0.28601   0.32000   0.00000  Uiso   1.00
C97    C     0.54672   0.04942   0.31750   0.00000  Uiso   1.00
C98    C     0.45351   0.28398   0.18234   0.00000  Uiso   1.00
C99    C     0.56321   0.21202   0.47994   0.00000  Uiso   1.00
C100   C     0.35456   0.12491   0.24912   0.00000  Uiso   1.00
C101   C     0.64542   0.20862   0.25139   0.00000  Uiso   1.00
C102   C     0.64532   0.12494   0.24789   0.00000  Uiso   1.00
C103   C     0.35469   0.20860   0.25203   0.00000  Uiso   1.00
C104   C     0.62384   0.16676   0.24955   0.00000  Uiso   1.00
Cu105  Cu    0.50000   0.21355   0.25000   0.00000  Uiso   1.00
Cu106  Cu    0.50000   0.11978   0.25000   0.00000  Uiso   1.00
H107   H     0.55723   0.20395   0.39112   0.00000  Uiso   1.00
H108   H     0.62954   0.24140   0.25231   0.00000  Uiso   1.00
H109   H     0.62939   0.09221   0.24555   0.00000  Uiso   1.00
H110   H     0.37068   0.24135   0.25380   0.00000  Uiso   1.00
H111   H     0.40294   0.07819   0.15881   0.00000  Uiso   1.00
H112   H     0.55023   0.28149   0.38709   0.00000  Uiso   1.00
H113   H     0.60142   0.07770   0.33623   0.00000  Uiso   1.00
H114   H     0.44857   0.26377   0.11775   0.00000  Uiso   1.00
H115   H     0.44436   0.12614   0.10870   0.00000  Uiso   1.00
H116   H     0.44501   0.12553   0.38528   0.00000  Uiso   1.00
H117   H     0.55451   0.20844   0.11460   0.00000  Uiso   1.00
H118   H     0.41340   0.10164   0.45454   0.00000  Uiso   1.00
H119   H     0.58690   0.23098   0.04536   0.00000  Uiso   1.00
H120   H     0.41324   0.10176   0.03635   0.00000  Uiso   1.00
H121   H     0.58773   0.22972   0.46358   0.00000  Uiso   1.00
H122   H     0.37036   0.09210   0.24887   0.00000  Uiso   1.00
N123   N     0.50000   0.28402   0.25000   0.00000  Uiso   1.00
N124   N     0.50000   0.04931   0.25000   0.00000  Uiso   1.00
O125   O     0.43988   0.20625   0.25000   0.00000  Uiso   1.00
O126   O     0.41605   0.06449   0.18697   0.00000  Uiso   1.00
O127   O     0.57659   0.26679   0.31425   0.00000  Uiso   1.00
O128   O     0.52921   0.29099   0.36303   0.00000  Uiso   1.00
O129   O     0.53326   0.05462   0.35474   0.00000  Uiso   1.00
O130   O     0.58707   0.06227   0.30937   0.00000  Uiso   1.00
O131   O     0.41890   0.27041   0.18977   0.00000  Uiso   1.00
O132   O     0.46854   0.28016   0.13940   0.00000  Uiso   1.00
O133   O     0.56012   0.12709   0.25000   0.00000  Uiso   1.00
O134   O     0.56012   0.20625   0.25000   0.00000  Uiso   1.00
O135   O     0.43988   0.12709   0.25000   0.00000  Uiso   1.00
O136   O     0.49999   0.20627   0.18513   0.00000  Uiso   1.00
O137   O     0.50001   0.12707   0.31487   0.00000  Uiso   1.00
O138   O     0.50001   0.20627   0.31487   0.00000  Uiso   1.00
O139   O     0.49999   0.12707   0.18513   0.00000  Uiso   1.00
O140   O     0.47013   0.04853   0.14372   0.00000  Uiso   1.00
C141   C     0.75418   0.16668   0.25028   0.00000  Uiso   1.00
C142   C     0.70949   0.16673   0.25061   0.00000  Uiso   1.00
C143   C     0.81180   0.02428   0.21748   0.00000  Uiso   1.00
C144   C     0.85479   0.30907   0.28260   0.00000  Uiso   1.00
C145   C     0.85500   0.02503   0.28243   0.00000  Uiso   1.00
C146   C     0.81156   0.30833   0.21765   0.00000  Uiso   1.00
C147   C     0.83313   0.16656   0.16458   0.00000  Uiso   1.00
C148   C     0.83353   0.16672   0.33540   0.00000  Uiso   1.00
C149   C     0.86548   0.18831   0.40829   0.00000  Uiso   1.00
C150   C     0.80209   0.14322   0.09163   0.00000  Uiso   1.00
C151   C     0.83361   0.16645   0.38366   0.00000  Uiso   1.00
C152   C     0.91249   0.16668   0.24977   0.00000  Uiso   1.00
C153   C     0.83318   0.16650   0.11629   0.00000  Uiso   1.00
C154   C     0.80247   0.14300   0.40499   0.00000  Uiso   1.00
C155   C     0.86407   0.19036   0.09491   0.00000  Uiso   1.00
C156   C     0.80221   0.14268   0.45152   0.00000  Uiso   1.00
C157   C     0.86469   0.19005   0.04839   0.00000  Uiso   1.00
C158   C     0.83367   0.16604   0.47657   0.00000  Uiso   1.00
C159   C     0.83345   0.16633   0.02336   0.00000  Uiso   1.00
C160   C     0.86546   0.18894   0.45482   0.00000  Uiso   1.00
C161   C     0.80194   0.14296   0.04510   0.00000  Uiso   1.00
C162   C     0.77102   0.11967   0.47342   0.00000  Uiso   1.00
C163   C     0.77090   0.11978   0.01998   0.00000  Uiso   1.00
C164   C     0.89605   0.21278   0.02649   0.00000  Uiso   1.00
C165   C     0.78894   0.04766   0.18071   0.00000  Uiso   1.00
C166   C     0.87713   0.28601   0.32000   0.00000  Uiso   1.00
C167   C     0.88005   0.04942   0.31750   0.00000  Uiso   1.00
C168   C     0.78684   0.28398   0.18234   0.00000  Uiso   1.00
C169   C     0.89655   0.21202   0.47994   0.00000  Uiso   1.00
C170   C     0.68789   0.12491   0.24912   0.00000  Uiso   1.00
C171   C     0.97876   0.20862   0.25139   0.00000  Uiso   1.00
C172   C     0.97865   0.12494   0.24789   0.00000  Uiso   1.00
C173   C     0.68803   0.20860   0.25203   0.00000  Uiso   1.00
C174   C     0.95718   0.16676   0.24955   0.00000  Uiso   1.00
Cu175  Cu    0.83333   0.21355   0.25000   0.00000  Uiso   1.00
Cu176  Cu    0.83333   0.11978   0.25000   0.00000  Uiso   1.00
H177   H     0.89056   0.20395   0.39112   0.00000  Uiso   1.00
H178   H     0.96288   0.24140   0.25231   0.00000  Uiso   1.00
H179   H     0.96273   0.09221   0.24555   0.00000  Uiso   1.00
H180   H     0.70401   0.24135   0.25380   0.00000  Uiso   1.00
H181   H     0.73627   0.07819   0.15881   0.00000  Uiso   1.00
H182   H     0.88356   0.28149   0.38709   0.00000  Uiso   1.00
H183   H     0.93475   0.07770   0.33623   0.00000  Uiso   1.00
H184   H     0.78190   0.26377   0.11775   0.00000  Uiso   1.00
H185   H     0.77770   0.12614   0.10870   0.00000  Uiso   1.00
H186   H     0.77834   0.12553   0.38528   0.00000  Uiso   1.00
H187   H     0.88784   0.20844   0.11460   0.00000  Uiso   1.00
H188   H     0.74674   0.10164   0.45454   0.00000  Uiso   1.00
H189   H     0.92023   0.23098   0.04536   0.00000  Uiso   1.00
H190   H     0.74658   0.10176   0.03635   0.00000  Uiso   1.00
H191   H     0.92106   0.22972   0.46358   0.00000  Uiso   1.00
H192   H     0.70370   0.09210   0.24887   0.00000  Uiso   1.00
N193   N     0.83333   0.28402   0.25000   0.00000  Uiso   1.00
N194   N     0.83333   0.04931   0.25000   0.00000  Uiso   1.00
O195   O     0.77321   0.20625   0.25000   0.00000  Uiso   1.00
O196   O     0.74938   0.06449   0.18697   0.00000  Uiso   1.00
O197   O     0.90992   0.26679   0.31425   0.00000  Uiso   1.00
O198   O     0.86255   0.29099   0.36303   0.00000  Uiso   1.00
O199   O     0.86660   0.05462   0.35474   0.00000  Uiso   1.00
O200   O     0.92040   0.06227   0.30937   0.00000  Uiso   1.00
O201   O     0.75224   0.27041   0.18977   0.00000  Uiso   1.00
O202   O     0.80188   0.28016   0.13940   0.00000  Uiso   1.00
O203   O     0.89345   0.12709   0.25000   0.00000  Uiso   1.00
O204   O     0.89345   0.20625   0.25000   0.00000  Uiso   1.00
O205   O     0.77321   0.12709   0.25000   0.00000  Uiso   1.00
O206   O     0.83332   0.20627   0.18513   0.00000  Uiso   1.00
O207   O     0.83334   0.12707   0.31487   0.00000  Uiso   1.00
O208   O     0.83334   0.20627   0.31487   0.00000  Uiso   1.00
O209   O     0.83332   0.12707   0.18513   0.00000  Uiso   1.00
O210   O     0.80347   0.04853   0.14372   0.00000  Uiso   1.00
C211   C     0.08751   0.50001   0.25028   0.00000  Uiso   1.00
C212   C     0.04282   0.50006   0.25061   0.00000  Uiso   1.00
C213   C     0.14514   0.35761   0.21748   0.00000  Uiso   1.00
C214   C     0.18813   0.64240   0.28260   0.00000  Uiso   1.00
C215   C     0.18833   0.35836   0.28243   0.00000  Uiso   1.00
C216   C     0.14489   0.64166   0.21765   0.00000  Uiso   1.00
C217   C     0.16646   0.49989   0.16458   0.00000  Uiso   1.00
C218   C     0.16686   0.50005   0.33540   0.00000  Uiso   1.00
C219   C     0.19881   0.52165   0.40829   0.00000  Uiso   1.00
C220   C     0.13543   0.47655   0.09163   0.00000  Uiso   1.00
C221   C     0.16695   0.49978   0.38366   0.00000  Uiso   1.00
C222   C     0.24582   0.50001   0.24977   0.00000  Uiso   1.00
C223   C     0.16652   0.49984   0.11629   0.00000  Uiso   1.00
C224   C     0.13580   0.47634   0.40499   0.00000  Uiso   1.00
C225   C     0.19740   0.52369   0.09491   0.00000  Uiso   1.00
C226   C     0.13555   0.47601   0.45152   0.00000  Uiso   1.00
C227   C     0.19803   0.52339   0.04839   0.00000  Uiso   1.00
C228   C     0.16701   0.49937   0.47657   0.00000  Uiso   1.00
C229   C     0.16678   0.49966   0.02336   0.00000  Uiso   1.00
C230   C     0.19879   0.52227   0.45482   0.00000  Uiso   1.00
C231   C     0.13528   0.47629   0.04510   0.00000  Uiso   1.00
C232   C     0.10435   0.45301   0.47342   0.00000  Uiso   1.00
C233   C     0.10424   0.45311   0.01998   0.00000  Uiso   1.00
C234   C     0.22939   0.54611   0.02649   0.00000  Uiso   1.00
C235   C     0.12228   0.38099   0.18071   0.00000  Uiso   1.00
C236   C     0.21046   0.61934   0.32000   0.00000  Uiso   1.00
C237   C     0.21339   0.38275   0.31750   0.00000  Uiso   1.00
C238   C     0.12017   0.61732   0.18234   0.00000  Uiso   1.00
C239   C     0.22988   0.54536   0.47994   0.00000  Uiso   1.00
C240   C     0.02122   0.45824   0.24912   0.00000  Uiso   1.00
C241   C     0.31209   0.54195   0.25139   0.00000  Uiso   1.00
C242   C     0.31198   0.45828   0.24789   0.00000  Uiso   1.00
C243   C     0.02136   0.54193   0.25203   0.00000  Uiso   1.00
C244   C     0.29051   0.50009   0.24955   0.00000  Uiso   1.00
Cu245  Cu    0.16667   0.54689   0.25000   0.00000  Uiso   1.00
Cu246  Cu    0.16667   0.45311   0.25000   0.00000  Uiso   1.00
H247   H     0.22389   0.53729   0.39112   0.00000  Uiso   1.00
H248   H     0.29621   0.57474   0.25231   0.00000  Uiso   1.00
H249   H     0.29606   0.42554   0.24555   0.00000  Uiso   1.00
H250   H     0.03734   0.57468   0.25380   0.00000  Uiso   1.00
H251   H     0.06960   0.41152   0.15881   0.00000  Uiso   1.00
H252   H     0.21690   0.61483   0.38709   0.00000  Uiso   1.00
H253   H     0.26808   0.41103   0.33623   0.00000  Uiso   1.00
H254   H     0.11524   0.59710   0.11775   0.00000  Uiso   1.00
H255   H     0.11103   0.45947   0.10870   0.00000  Uiso   1.00
H256   H     0.11168   0.45886   0.38528   0.00000  Uiso   1.00
H257   H     0.22118   0.54177   0.11460   0.00000  Uiso   1.00
H258   H     0.08007   0.43498   0.45454   0.00000  Uiso   1.00
H259   H     0.25357   0.56432   0.04536   0.00000  Uiso   1.00
H260   H     0.07991   0.43509   0.03635   0.00000  Uiso   1.00
H261   H     0.25439   0.56305   0.46358   0.00000  Uiso   1.00
H262   H     0.03703   0.42543   0.24887   0.00000  Uiso   1.00
N263   N     0.16667   0.61736   0.25000   0.00000  Uiso   1.00
N264   N     0.16667   0.38264   0.25000   0.00000  Uiso   1.00
O265   O     0.10655   0.53958   0.25000   0.00000  Uiso   1.00
O266   O     0.08271   0.39782   0.18697   0.00000  Uiso   1.00
O267   O     0.24326   0.60012   0.31425   0.00000  Uiso   1.00
O268   O     0.19588   0.62432   0.36303   0.00000  Uiso   1.00
O269   O     0.19993   0.38795   0.35474   0.00000  Uiso   1.00
O270   O     0.25374   0.39561   0.30937   0.00000  Uiso   1.00
O271   O     0.08557   0.60375   0.18977   0.00000  Uiso   1.00
O272   O     0.13521   0.61349   0.13940   0.00000  Uiso   1.00
O273   O     0.22679   0.46042   0.25000   0.00000  Uiso   1.00
O274   O     0.22679   0.53958   0.25000   0.00000  Uiso   1.00
O275   O     0.10655   0.46042   0.25000   0.00000  Uiso   1.00
O276   O     0.16666   0.53960   0.18513   0.00000  Uiso   1.00
O277   O     0.16668   0.46040   0.31487   0.00000  Uiso   1.00
O278   O     0.16668   0.53960   0.31487   0.00000  Uiso   1.00
O279   O     0.16666   0.46040   0.18513   0.00000  Uiso   1.00
O280   O     0.13680   0.38187   0.14372   0.00000  Uiso   1.00
C281   C     0.42084   0.50001   0.25028   0.00000  Uiso   1.00
C282   C     0.37615   0.50006   0.25061   0.00000  Uiso   1.00
C283   C     0.47847   0.35761   0.21748   0.00000  Uiso   1.00
C284   C     0.52146   0.64240   0.28260   0.00000  Uiso   1.00
C285   C     0.52167   0.35836   0.28243   0.00000  Uiso   1.00
C286   C     0.47823   0.64166   0.21765   0.00000  Uiso   1.00
C287   C     0.49980   0.49989   0.16458   0.00000  Uiso   1.00
C288   C     0.50019   0.50005   0.33540   0.00000  Uiso   1.00
C289   C     0.53214   0.52165   0.40829   0.00000  Uiso   1.00
C290   C     0.46876   0.47655   0.09163   0.00000  Uiso   1.00
C291   C     0.50028   0.49978   0.38366   0.00000  Uiso   1.00
C292   C     0.57916   0.50001   0.24977   0.00000  Uiso   1.00
C293   C     0.49985   0.49984   0.11629   0.00000  Uiso   1.00
C294   C     0.46913   0.47634   0.40499   0.00000  Uiso   1.00
C295   C     0.53073   0.52369   0.09491   0.00000  Uiso   1.00
C296   C     0.46888   0.47601   0.45152   0.00000  Uiso   1.00
C297   C     0.53136   0.52339   0.04839   0.00000  Uiso   1.00
C298   C     0.50034   0.49937   0.47657   0.00000  Uiso   1.00
C299   C     0.50012   0.49966   0.02336   0.00000  Uiso   1.00
C300   C     0.53212   0.52227   0.45482   0.00000  Uiso   1.00
C301   C     0.46861   0.47629   0.04510   0.00000  Uiso   1.00
C302   C     0.43768   0.45301   0.47342   0.00000  Uiso   1.00
C303   C     0.43757   0.45311   0.01998   0.00000  Uiso   1.00
C304   C     0.56272   0.54611   0.02649   0.00000  Uiso   1.00
C305   C     0.45561   0.38099   0.18071   0.00000  Uiso   1.00
C306   C     0.54380   0.61934   0.32000   0.00000  Uiso   1.00
C307   C     0.54672   0.38275   0.31750   0.00000  Uiso   1.00
C308   C     0.45351   0.61732   0.18234   0.00000  Uiso   1.00
C309   C     0.56321   0.54536   0.47994   0.00000  Uiso   1.00
C310   C     0.35456   0.45824   0.24912   0.00000  Uiso   1.00
C311   C     0.64542   0.54195   0.25139   0.00000  Uiso   1.00
C312   C     0.64532   0.45828   0.24789   0.00000  Uiso   1.00
C313   C     0.35469   0.54193   0.25203   0.00000  Uiso   1.00
C314   C     0.62384   0.50009   0.24955   0.00000  Uiso   1.00
Cu315  Cu    0.50000   0.54689   0.25000   0.00000  Uiso   1.00
Cu316  Cu    0.50000   0.45311   0.25000   0.00000  Uiso   1.00
H317   H     0.55723   0.53729   0.39112   0.00000  Uiso   1.00
H318   H     0.62954   0.57474   0.25231   0.00000  Uiso   1.00
H319   H     0.62939   0.42554   0.24555   0.00000  Uiso   1.00
H320   H     0.37068   0.57468   0.25380   0.00000  Uiso   1.00
H321   H     0.40294   0.41152   0.15881   0.00000  Uiso   1.00
H322   H     0.55023   0.61483   0.38709   0.00000  Uiso   1.00
H323   H     0.60142   0.41103   0.33623   0.00000  Uiso   1.00
H324   H     0.44857   0.59710   0.11775   0.00000  Uiso   1.00
H325   H     0.44436   0.45947   0.10870   0.00000  Uiso   1.00
H326   H     0.44501   0.45886   0.38528   0.00000  Uiso   1.00
H327   H     0.55451   0.54177   0.11460   0.00000  Uiso   1.00
H328   H     0.41340   0.43498   0.45454   0.00000  Uiso   1.00
H329   H     0.58690   0.56432   0.04536   0.00000  Uiso   1.00
H330   H     0.41324   0.43509   0.03635   0.00000  Uiso   1.00
H331   H     0.58773   0.56305   0.46358   0.00000  Uiso   1.00
H332   H     0.37036   0.42543   0.24887   0.00000  Uiso   1.00
N333   N     0.50000   0.61736   0.25000   0.00000  Uiso   1.00
N334   N     0.50000   0.38264   0.25000   0.00000  Uiso   1.00
O335   O     0.43988   0.53958   0.25000   0.00000  Uiso   1.00
O336   O     0.41605   0.39782   0.18697   0.00000  Uiso   1.00
O337   O     0.57659   0.60012   0.31425   0.00000  Uiso   1.00
O338   O     0.52921   0.62432   0.36303   0.00000  Uiso   1.00
O339   O     0.53326   0.38795   0.35474   0.00000  Uiso   1.00
O340   O     0.58707   0.39561   0.30937   0.00000  Uiso   1.00
O341   O     0.41890   0.60375   0.18977   0.00000  Uiso   1.00
O342   O     0.46854   0.61349   0.13940   0.00000  Uiso   1.00
O343   O     0.56012   0.46042   0.25000   0.00000  Uiso   1.00
O344   O     0.56012   0.53958   0.25000   0.00000  Uiso   1.00
O345   O     0.43988   0.46042   0.25000   0.00000  Uiso   1.00
O346   O     0.49999   0.53960   0.18513   0.00000  Uiso   1.00
O347   O     0.50001   0.46040   0.31487   0.00000  Uiso   1.00
O348   O     0.50001   0.53960   0.31487   0.00000  Uiso   1.00
O349   O     0.49999   0.46040   0.18513   0.00000  Uiso   1.00
O350   O     0.47013   0.38187   0.14372   0.00000  Uiso   1.00
C351   C     0.75418   0.50001   0.25028   0.00000  Uiso   1.00
C352   C     0.70949   0.50006   0.25061   0.00000  Uiso   1.00
C353   C     0.81180   0.35761   0.21748   0.00000  Uiso   1.00
C354   C     0.85479   0.64240   0.28260   0.00000  Uiso   1.00
C355   C     0.85500   0.35836   0.28243   0.00000  Uiso   1.00
C356   C     0.81156   0.64166   0.21765   0.00000  Uiso   1.00
C357   C     0.83313   0.49989   0.16458   0.00000  Uiso   1.00
C358   C     0.83353   0.50005   0.33540   0.00000  Uiso   1.00
C359   C     0.86548   0.52165   0.40829   0.00000  Uiso   1.00
C360   C     0.80209   0.47655   0.09163   0.00000  Uiso   1.00
C361   C     0.83361   0.49978   0.38366   0.00000  Uiso   1.00
C362   C     0.91249   0.50001   0.24977   0.00000  Uiso   1.00
C363   C     0.83318   0.49984   0.11629   0.00000  Uiso   1.00
C364   C     0.80247   0.47634   0.40499   0.00000  Uiso   1.00
C365   C     0.86407   0.52369   0.09491   0.00000  Uiso   1.00
C366   C     0.80221   0.47601   0.45152   0.00000  Uiso   1.00
C367   C     0.86469   0.52339   0.04839   0.00000  Uiso   1.00
C368   C     0.83367   0.49937   0.47657   0.00000  Uiso   1.00
C369   C     0.83345   0.49966   0.02336   0.00000  Uiso   1.00
C370   C     0.86546   0.52227   0.45482   0.00000  Uiso   1.00
C371   C     0.80194   0.47629   0.04510   0.00000  Uiso   1.00
C372   C     0.77102   0.45301   0.47342   0.00000  Uiso   1.00
C373   C     0.77090   0.45311   0.01998   0.00000  Uiso   1.00
C374   C     0.89605   0.54611   0.02649   0.00000  Uiso   1.00
C375   C     0.78894   0.38099   0.18071   0.00000  Uiso   1.00
C376   C     0.87713   0.61934   0.32000   0.00000  Uiso   1.00
C377   C     0.88005   0.38275   0.31750   0.00000  Uiso   1.00
C378   C     0.78684   0.61732   0.18234   0.00000  Uiso   1.00
C379   C     0.89655   0.54536   0.47994   0.00000  Uiso   1.00
C380   C     0.68789   0.45824   0.24912   0.00000  Uiso   1.00
C381   C     0.97876   0.54195   0.25139   0.00000  Uiso   1.00
C382   C     0.97865   0.45828   0.24789   0.00000  Uiso   1.00
C383   C     0.68803   0.54193   0.25203   0.00000  Uiso   1.00
C384   C     0.95718   0.50009   0.24955   0.00000  Uiso   1.00
Cu385  Cu    0.83333   0.54689   0.25000   0.00000  Uiso   1.00
Cu386  Cu    0.83333   0.45311   0.25000   0.00000  Uiso   1.00
H387   H     0.89056   0.53729   0.39112   0.00000  Uiso   1.00
H388   H     0.96288   0.57474   0.25231   0.00000  Uiso   1.00
H389   H     0.96273   0.42554   0.24555   0.00000  Uiso   1.00
H390   H     0.70401   0.57468   0.25380   0.00000  Uiso   1.00
H391   H     0.73627   0.41152   0.15881   0.00000  Uiso   1.00
H392   H     0.88356   0.61483   0.38709   0.00000  Uiso   1.00
H393   H     0.93475   0.41103   0.33623   0.00000  Uiso   1.00
H394   H     0.78190   0.59710   0.11775   0.00000  Uiso   1.00
H395   H     0.77770   0.45947   0.10870   0.00000  Uiso   1.00
H396   H     0.77834   0.45886   0.38528   0.00000  Uiso   1.00
H397   H     0.88784   0.54177   0.11460   0.00000  Uiso   1.00
H398   H     0.74674   0.43498   0.45454   0.00000  Uiso   1.00
H399   H     0.92023   0.56432   0.04536   0.00000  Uiso   1.00
H400   H     0.74658   0.43509   0.03635   0.00000  Uiso   1.00
H401   H     0.92106   0.56305   0.46358   0.00000  Uiso   1.00
H402   H     0.70370   0.42543   0.24887   0.00000  Uiso   1.00
N403   N     0.83333   0.61736   0.25000   0.00000  Uiso   1.00
N404   N     0.83333   0.38264   0.25000   0.00000  Uiso   1.00
O405   O     0.77321   0.53958   0.25000   0.00000  Uiso   1.00
O406   O     0.74938   0.39782   0.18697   0.00000  Uiso   1.00
O407   O     0.90992   0.60012   0.31425   0.00000  Uiso   1.00
O408   O     0.86255   0.62432   0.36303   0.00000  Uiso   1.00
O409   O     0.86660   0.38795   0.35474   0.00000  Uiso   1.00
O410   O     0.92040   0.39561   0.30937   0.00000  Uiso   1.00
O411   O     0.75224   0.60375   0.18977   0.00000  Uiso   1.00
O412   O     0.80188   0.61349   0.13940   0.00000  Uiso   1.00
O413   O     0.89345   0.46042   0.25000   0.00000  Uiso   1.00
O414   O     0.89345   0.53958   0.25000   0.00000  Uiso   1.00
O415   O     0.77321   0.46042   0.25000   0.00000  Uiso   1.00
O416   O     0.83332   0.53960   0.18513   0.00000  Uiso   1.00
O417   O     0.83334   0.46040   0.31487   0.00000  Uiso   1.00
O418   O     0.83334   0.53960   0.31487   0.00000  Uiso   1.00
O419   O     0.83332   0.46040   0.18513   0.00000  Uiso   1.00
O420   O     0.80347   0.38187   0.14372   0.00000  Uiso   1.00
C421   C     0.08751   0.83334   0.25028   0.00000  Uiso   1.00
C422   C     0.04282   0.83339   0.25061   0.00000  Uiso   1.00
C423   C     0.14514   0.69094   0.21748   0.00000  Uiso   1.00
C424   C     0.18813   0.97573   0.28260   0.00000  Uiso   1.00
C425   C     0.18833   0.69169   0.28243   0.00000  Uiso   1.00
C426   C     0.14489   0.97500   0.21765   0.00000  Uiso   1.00
C427   C     0.16646   0.83322   0.16458   0.00000  Uiso   1.00
C428   C     0.16686   0.83339   0.33540   0.00000  Uiso   1.00
C429   C     0.19881   0.85498   0.40829   0.00000  Uiso   1.00
C430   C     0.13543   0.80989   0.09163   0.00000  Uiso   1.00
C431   C     0.16695   0.83311   0.38366   0.00000  Uiso   1.00
C432   C     0.24582   0.83335   0.24977   0.00000  Uiso   1.00
C433   C     0.16652   0.83317   0.11629   0.00000  Uiso   1.00
C434   C     0.13580   0.80967   0.40499   0.00000  Uiso   1.00
C435   C     0.19740   0.85703   0.09491   0.00000  Uiso   1.00
C436   C     0.13555   0.80934   0.45152   0.00000  Uiso   1.00
C437   C     0.19803   0.85672   0.04839   0.00000  Uiso   1.00
C438   C     0.16701   0.83270   0.47657   0.00000  Uiso   1.00
C439   C     0.16678   0.83300   0.02336   0.00000  Uiso   1.00
C440   C     0.19879   0.85560   0.45482   0.00000  Uiso   1.00
C441   C     0.13528   0.80962   0.04510   0.00000  Uiso   1.00
C442   C     0.10435   0.78634   0.47342   0.00000  Uiso   1.00
C443   C     0.10424   0.78644   0.01998   0.00000  Uiso   1.00
C444   C     0.22939   0.87945   0.02649   0.00000  Uiso   1.00
C445   C     0.12228   0.71433   0.18071   0.00000  Uiso   1.00
C446   C     0.21046   0.95267   0.32000   0.00000  Uiso   1.00
C447   C     0.21339   0.71608   0.31750   0.00000  Uiso   1.00
C448   C     0.12017   0.95065   0.18234   0.00000  Uiso   1.00
C449   C     0.22988   0.87869   0.47994   0.00000  Uiso   1.00
C450   C     0.02122   0.79157   0.24912   0.00000  Uiso   1.00
C451   C     0.31209   0.87528   0.25139   0.00000  Uiso   1.00
C452   C     0.31198   0.79161   0.24789   0.00000  Uiso   1.00
C453   C     0.02136   0.87526   0.25203   0.00000  Uiso   1.00
C454   C     0.29051   0.83342   0.24955   0.00000  Uiso   1.00
Cu455  Cu    0.16667   0.88022   0.25000   0.00000  Uiso   1.00
Cu456  Cu    0.16667   0.78645   0.25000   0.00000  Uiso   1.00
H457   H     0.22389   0.87062   0.39112   0.00000  Uiso   1.00
H458   H     0.29621   0.90807   0.25231   0.00000  Uiso   1.00
H459   H     0.29606   0.75887   0.24555   0.00000  Uiso   1.00
H460   H     0.03734   0.90802   0.25380   0.00000  Uiso   1.00
H461   H     0.06960   0.74485   0.15881   0.00000  Uiso   1.00
H462   H     0.21690   0.94816   0.38709   0.00000  Uiso   1.00
H463   H     0.26808   0.74436   0.33623   0.00000  Uiso   1.00
H464   H     0.11524   0.93044   0.11775   0.00000  Uiso   1.00
H465   H     0.11103   0.79280   0.10870   0.00000  Uiso   1.00
H466   H     0.11168   0.79219   0.38528   0.00000  Uiso   1.00
H467   H     0.22118   0.87511   0.11460   0.00000  Uiso   1.00
H468   H     0.08007   0.76831   0.45454   0.00000  Uiso   1.00
H469   H     0.25357   0.89765   0.04536   0.00000  Uiso   1.00
H470   H     0.07991   0.76842   0.03635   0.00000  Uiso   1.00
H471   H     0.25439   0.89638   0.46358   0.00000  Uiso   1.00
H472   H     0.03703   0.75876   0.24887   0.00000  Uiso   1.00
N473   N     0.16667   0.95069   0.25000   0.00000  Uiso   1.00
N474   N     0.16667   0.71598   0.25000   0.00000  Uiso   1.00
O475   O     0.10655   0.87291   0.25000   0.00000  Uiso   1.00
O476   O     0.08271   0.73116   0.18697   0.00000  Uiso   1.00
O477   O     0.24326   0.93345   0.31425   0.00000  Uiso   1.00
O478   O     0.19588   0.95765   0.36303   0.00000  Uiso   1.00
O479   O     0.19993   0.72129   0.35474   0.00000  Uiso   1.00
O480   O     0.25374   0.72894   0.30937   0.00000  Uiso   1.00
O481   O     0.08557   0.93708   0.18977   0.00000  Uiso   1.00
O482   O     0.13521   0.94682   0.13940   0.00000  Uiso   1.00
O483   O     0.22679   0.79375   0.25000   0.00000  Uiso   1.00
O484   O     0.22679   0.87291   0.25000   0.00000  Uiso   1.00
O485   O     0.10655   0.79375   0.25000   0.00000  Uiso   1.00
O486   O     0.16666   0.87293   0.18513   0.00000  Uiso   1.00
O487   O     0.16668   0.79373   0.31487   0.00000  Uiso   1.00
O488   O     0.16668   0.87293   0.31487   0.00000  Uiso   1.00
O489   O     0.16666   0.79373   0.18513   0.00000  Uiso   1.00
O490   O     0.13680   0.71520   0.14372   0.00000  Uiso   1.00
C491   C     0.42084   0.83334   0.25028   0.00000  Uiso   1.00
C492   C     0.37615   0.83339   0.25061   0.00000  Uiso   1.00
C493   C     0.47847   0.69094   0.21748   0.00000  Uiso   1.00
C494   C     0.52146   0.97573   0.28260   0.00000  Uiso   1.00
C495   C     0.52167   0.69169   0.28243   0.00000  Uiso   1.00
C496   C     0.47823   0.97500   0.21765   0.00000  Uiso   1.00
C497   C     0.49980   0.83322   0.16458   0.00000  Uiso   1.00
C498   C     0.50019   0.83339   0.33540   0.00000  Uiso   1.00
C499   C     0.53214   0.85498   0.40829   0.00000  Uiso   1.00
C500   C     0.46876   0.80989   0.09163   0.00000  Uiso   1.00
C501   C     0.50028   0.83311   0.38366   0.00000  Uiso   1.00
C502   C     0.57916   0.83335   0.24977   0.00000  Uiso   1.00
C503   C     0.49985   0.83317   0.11629   0.00000  Uiso   1.00
C504   C     0.46913   0.80967   0.40499   0.00000  Uiso   1.00
C505   C     0.53073   0.85703   0.09491   0.00000  Uiso   1.00
C506   C     0.46888   0.80934   0.45152   0.00000  Uiso   1.00
C507   C     0.53136   0.85672   0.04839   0.00000  Uiso   1.00
C508   C     0.50034   0.83270   0.47657   0.00000  Uiso   1.00
C509   C     0.50012   0.83300   0.02336   0.00000  Uiso   1.00
C510   C     0.53212   0.85560   0.45482   0.00000  Uiso   1.00
C511   C     0.46861   0.80962   0.04510   0.00000  Uiso   1.00
C512   C     0.43768   0.78634   0.47342   0.00000  Uiso   1.00
C513   C     0.43757   0.78644   0.01998   0.00000  Uiso   1.00
C514   C     0.56272   0.87945   0.02649   0.00000  Uiso   1.00
C515   C     0.45561   0.71433   0.18071   0.00000  Uiso   1.00
C516   C     0.54380   0.95267   0.32000   0.00000  Uiso   1.00
C517   C     0.54672   0.71608   0.31750   0.00000  Uiso   1.00
C518   C     0.45351   0.95065   0.18234   0.00000  Uiso   1.00
C519   C     0.56321   0.87869   0.47994   0.00000  Uiso   1.00
C520   C     0.35456   0.79157   0.24912   0.00000  Uiso   1.00
C521   C     0.64542   0.87528   0.25139   0.00000  Uiso   1.00
C522   C     0.64532   0.79161   0.24789   0.00000  Uiso   1.00
C523   C     0.35469   0.87526   0.25203   0.00000  Uiso   1.00
C524   C     0.62384   0.83342   0.24955   0.00000  Uiso   1.00
Cu525  Cu    0.50000   0.88022   0.25000   0.00000  Uiso   1.00
Cu526  Cu    0.50000   0.78645   0.25000   0.00000  Uiso   1.00
H527   H     0.55723   0.87062   0.39112   0.00000  Uiso   1.00
H528   H     0.62954   0.90807   0.25231   0.00000  Uiso   1.00
H529   H     0.62939   0.75887   0.24555   0.00000  Uiso   1.00
H530   H     0.37068   0.90802   0.25380   0.00000  Uiso   1.00
H531   H     0.40294   0.74485   0.15881   0.00000  Uiso   1.00
H532   H     0.55023   0.94816   0.38709   0.00000  Uiso   1.00
H533   H     0.60142   0.74436   0.33623   0.00000  Uiso   1.00
H534   H     0.44857   0.93044   0.11775   0.00000  Uiso   1.00
H535   H     0.44436   0.79280   0.10870   0.00000  Uiso   1.00
H536   H     0.44501   0.79219   0.38528   0.00000  Uiso   1.00
H537   H     0.55451   0.87511   0.11460   0.00000  Uiso   1.00
H538   H     0.41340   0.76831   0.45454   0.00000  Uiso   1.00
H539   H     0.58690   0.89765   0.04536   0.00000  Uiso   1.00
H540   H     0.41324   0.76842   0.03635   0.00000  Uiso   1.00
H541   H     0.58773   0.89638   0.46358   0.00000  Uiso   1.00
H542   H     0.37036   0.75876   0.24887   0.00000  Uiso   1.00
N543   N     0.50000   0.95069   0.25000   0.00000  Uiso   1.00
N544   N     0.50000   0.71598   0.25000   0.00000  Uiso   1.00
O545   O     0.43988   0.87291   0.25000   0.00000  Uiso   1.00
O546   O     0.41605   0.73116   0.18697   0.00000  Uiso   1.00
O547   O     0.57659   0.93345   0.31425   0.00000  Uiso   1.00
O548   O     0.52921   0.95765   0.36303   0.00000  Uiso   1.00
O549   O     0.53326   0.72129   0.35474   0.00000  Uiso   1.00
O550   O     0.58707   0.72894   0.30937   0.00000  Uiso   1.00
O551   O     0.41890   0.93708   0.18977   0.00000  Uiso   1.00
O552   O     0.46854   0.94682   0.13940   0.00000  Uiso   1.00
O553   O     0.56012   0.79375   0.25000   0.00000  Uiso   1.00
O554   O     0.56012   0.87291   0.25000   0.00000  Uiso   1.00
O555   O     0.43988   0.79375   0.25000   0.00000  Uiso   1.00
O556   O     0.49999   0.87293   0.18513   0.00000  Uiso   1.00
O557   O     0.50001   0.79373   0.31487   0.00000  Uiso   1.00
O558   O     0.50001   0.87293   0.31487   0.00000  Uiso   1.00
O559   O     0.49999   0.79373   0.18513   0.00000  Uiso   1.00
O560   O     0.47013   0.71520   0.14372   0.00000  Uiso   1.00
C561   C     0.75418   0.83334   0.25028   0.00000  Uiso   1.00
C562   C     0.70949   0.83339   0.25061   0.00000  Uiso   1.00
C563   C     0.81180   0.69094   0.21748   0.00000  Uiso   1.00
C564   C     0.85479   0.97573   0.28260   0.00000  Uiso   1.00
C565   C     0.85500   0.69169   0.28243   0.00000  Uiso   1.00
C566   C     0.81156   0.97500   0.21765   0.00000  Uiso   1.00
C567   C     0.83313   0.83322   0.16458   0.00000  Uiso   1.00
C568   C     0.83353   0.83339   0.33540   0.00000  Uiso   1.00
C569   C     0.86548   0.85498   0.40829   0.00000  Uiso   1.00
C570   C     0.80209   0.80989   0.09163   0.00000  Uiso   1.00
C571   C     0.83361   0.83311   0.38366   0.00000  Uiso   1.00
C572   C     0.91249   0.83335   0.24977   0.00000  Uiso   1.00
C573   C     0.83318   0.83317   0.11629   0.00000  Uiso   1.00
C574   C     0.80247   0.80967   0.40499   0.00000  Uiso   1.00
C575   C     0.86407   0.85703   0.09491   0.00000  Uiso   1.00
C576   C     0.80221   0.80934   0.45152   0.00000  Uiso   1.00
C577   C     0.86469   0.85672   0.04839   0.00000  Uiso   1.00
C578   C     0.83367   0.83270   0.47657   0.00000  Uiso   1.00
C579   C     0.83345   0.83300   0.02336   0.00000  Uiso   1.00
C580   C     0.86546   0.85560   0.45482   0.00000  Uiso   1.00
C581   C     0.80194   0.80962   0.04510   0.00000  Uiso   1.00
C582   C     0.77102   0.78634   0.47342   0.00000  Uiso   1.00
C583   C     0.77090   0.78644   0.01998   0.00000  Uiso   1.00
C584   C     0.89605   0.87945   0.02649   0.00000  Uiso   1.00
C585   C     0.78894   0.71433   0.18071   0.00000  Uiso   1.00
C586   C     0.87713   0.95267   0.32000   0.00000  Uiso   1.00
C587   C     0.88005   0.71608   0.31750   0.00000  Uiso   1.00
C588   C     0.78684   0.95065   0.18234   0.00000  Uiso   1.00
C589   C     0.89655   0.87869   0.47994   0.00000  Uiso   1.00
C590   C     0.68789   0.79157   0.24912   0.00000  Uiso   1.00
C591   C     0.97876   0.87528   0.25139   0.00000  Uiso   1.00
C592   C     0.97865   0.79161   0.24789   0.00000  Uiso   1.00
C593   C     0.68803   0.87526   0.25203   0.00000  Uiso   1.00
C594   C     0.95718   0.83342   0.24955   0.00000  Uiso   1.00
Cu595  Cu    0.83333   0.88022   0.25000   0.00000  Uiso   1.00
Cu596  Cu    0.83333   0.78645   0.25000   0.00000  Uiso   1.00
H597   H     0.89056   0.87062   0.39112   0.00000  Uiso   1.00
H598   H     0.96288   0.90807   0.25231   0.00000  Uiso   1.00
H599   H     0.96273   0.75887   0.24555   0.00000  Uiso   1.00
H600   H     0.70401   0.90802   0.25380   0.00000  Uiso   1.00
H601   H     0.73627   0.74485   0.15881   0.00000  Uiso   1.00
H602   H     0.88356   0.94816   0.38709   0.00000  Uiso   1.00
H603   H     0.93475   0.74436   0.33623   0.00000  Uiso   1.00
H604   H     0.78190   0.93044   0.11775   0.00000  Uiso   1.00
H605   H     0.77770   0.79280   0.10870   0.00000  Uiso   1.00
H606   H     0.77834   0.79219   0.38528   0.00000  Uiso   1.00
H607   H     0.88784   0.87511   0.11460   0.00000  Uiso   1.00
H608   H     0.74674   0.76831   0.45454   0.00000  Uiso   1.00
H609   H     0.92023   0.89765   0.04536   0.00000  Uiso   1.00
H610   H     0.74658   0.76842   0.03635   0.00000  Uiso   1.00
H611   H     0.92106   0.89638   0.46358   0.00000  Uiso   1.00
H612   H     0.70370   0.75876   0.24887   0.00000  Uiso   1.00
N613   N     0.83333   0.95069   0.25000   0.00000  Uiso   1.00
N614   N     0.83333   0.71598   0.25000   0.00000  Uiso   1.00
O615   O     0.77321   0.87291   0.25000   0.00000  Uiso   1.00
O616   O     0.74938   0.73116   0.18697   0.00000  Uiso   1.00
O617   O     0.90992   0.93345   0.31425   0.00000  Uiso   1.00
O618   O     0.86255   0.95765   0.36303   0.00000  Uiso   1.00
O619   O     0.86660   0.72129   0.35474   0.00000  Uiso   1.00
O620   O     0.92040   0.72894   0.30937   0.00000  Uiso   1.00
O621   O     0.75224   0.93708   0.18977   0.00000  Uiso   1.00
O622   O     0.80188   0.94682   0.13940   0.00000  Uiso   1.00
O623   O     0.89345   0.79375   0.25000   0.00000  Uiso   1.00
O624   O     0.89345   0.87291   0.25000   0.00000  Uiso   1.00
O625   O     0.77321   0.79375   0.25000   0.00000  Uiso   1.00
O626   O     0.83332   0.87293   0.18513   0.00000  Uiso   1.00
O627   O     0.83334   0.79373   0.31487   0.00000  Uiso   1.00
O628   O     0.83334   0.87293   0.31487   0.00000  Uiso   1.00
O629   O     0.83332   0.79373   0.18513   0.00000  Uiso   1.00
O630   O     0.80347   0.71520   0.14372   0.00000  Uiso   1.00
C631   C     0.08751   0.16668   0.75028   0.00000  Uiso   1.00
C632   C     0.04282   0.16673   0.75061   0.00000  Uiso   1.00
C633   C     0.14514   0.02428   0.71748   0.00000  Uiso   1.00
C634   C     0.18813   0.30907   0.78260   0.00000  Uiso   1.00
C635   C     0.18833   0.02503   0.78243   0.00000  Uiso   1.00
C636   C     0.14489   0.30833   0.71765   0.00000  Uiso   1.00
C637   C     0.16646   0.16656   0.66458   0.00000  Uiso   1.00
C638   C     0.16686   0.16672   0.83540   0.00000  Uiso   1.00
C639   C     0.19881   0.18831   0.90829   0.00000  Uiso   1.00
C640   C     0.13543   0.14322   0.59163   0.00000  Uiso   1.00
C641   C     0.16695   0.16645   0.88366   0.00000  Uiso   1.00
C642   C     0.24582   0.16668   0.74977   0.00000  Uiso   1.00
C643   C     0.16652   0.16650   0.61629   0.00000  Uiso   1.00
C644   C     0.13580   0.14300   0.90499   0.00000  Uiso   1.00
C645   C     0.19740   0.19036   0.59491   0.00000  Uiso   1.00
C646   C     0.13555   0.14268   0.95152   0.00000  Uiso   1.00
C647   C     0.19803   0.19005   0.54839   0.00000  Uiso   1.00
C648   C     0.16701   0.16604   0.97657   0.00000  Uiso   1.00
C649   C     0.16678   0.16633   0.52336   0.00000  Uiso   1.00
C650   C     0.19879   0.18894   0.95482   0.00000  Uiso   1.00
C651   C     0.13528   0.14296   0.54510   0.00000  Uiso   1.00
C652   C     0.10435   0.11967   0.97342   0.00000  Uiso   1.00
C653   C     0.10424   0.11978   0.51998   0.00000  Uiso   1.00
C654   C     0.22939   0.21278   0.52649   0.00000  Uiso   1.00
C655   C     0.12228   0.04766   0.68071   0.00000  Uiso   1.00
C656   C     0.21046   0.28601   0.82000   0.00000  Uiso   1.00
C657   C     0.21339   0.04942   0.81750   0.00000  Uiso   1.00
C658   C     0.12017   0.28398   0.68234   0.00000  Uiso   1.00
C659   C     0.22988   0.21202   0.97994   0.00000  Uiso   1.00
C660   C     0.02122   0.12491   0.74912   0.00000  Uiso   1.00
C661   C     0.31209   0.20862   0.75139   0.00000  Uiso   1.00
C662   C     0.31198   0.12494   0.74789   0.00000  Uiso   1.00
C663   C     0.02136   0.20860   0.75203   0.00000  Uiso   1.00
C664   C     0.29051   0.16676   0.74955   0.00000  Uiso   1.00
Cu665  Cu    0.16667   0.21355   0.75000   0.00000  Uiso   1.00
Cu666  Cu    0.16667   0.11978   0.75000   0.00000  Uiso   1.00
H667   H     0.22389   0.20395   0.89112   0.00000  Uiso   1.00
H668   H     0.29621   0.24140   0.75231   0.00000  Uiso   1.00
H669   H     0.29606   0.09221   0.74555   0.00000  Uiso   1.00
H670   H     0.03734   0.24135   0.75380   0.00000  Uiso   1.00
H671   H     0.06960   0.07819   0.65881   0.00000  Uiso   1.00
H672   H     0.21690   0.28149   0.88709   0.00000  Uiso   1.00
H673   H     0.26808   0.07770   0.83623   0.00000  Uiso   1.00
H674   H     0.11524   0.26377   0.61775   0.00000  Uiso   1.00
H675   H     0.11103   0.12614   0.60870   0.00000  Uiso   1.00
H676   H     0.11168   0.12553   0.88528   0.00000  Uiso   1.00
H677   H     0.22118   0.20844   0.61460   0.00000  Uiso   1.00
H678   H     0.08007   0.10164   0.95454   0.00000  Uiso   1.00
H679   H     0.25357   0.23098   0.54536   0.00000  Uiso   1.00
H680   H     0.07991   0.10176   0.53635   0.00000  Uiso   1.00
H681   H     0.25439   0.22972   0.96358   0.00000  Uiso   1.00
H682   H     0.03703   0.09210   0.74887   0.00000  Uiso   1.00
N683   N     0.16667   0.28402   0.75000   0.00000  Uiso   1.00
N684   N     0.16667   0.04931   0.75000   0.00000  Uiso   1.00
O685   O     0.10655   0.20625   0.75000   0.00000  Uiso   1.00
O686   O     0.08271   0.06449   0.68697   0.00000  Uiso   1.00
O687   O     0.24326   0.26679   0.81425   0.00000  Uiso   1.00
O688   O     0.19588   0.29099   0.86303   0.00000  Uiso   1.00
O689   O     0.19993   0.05462   0.85474   0.00000  Uiso   1.00
O690   O     0.25374   0.06227   0.80937   0.00000  Uiso   1.00
O691   O     0.08557   0.27041   0.68977   0.00000  Uiso   1.00
O692   O     0.13521   0.28016   0.63940   0.00000  Uiso   1.00
O693   O     0.22679   0.12709   0.75000   0.00000  Uiso   1.00
O694   O     0.22679   0.20625   0.75000   0.00000  Uiso   1.00
O695   O     0.10655   0.12709   0.75000   0.00000  Uiso   1.00
O696   O     0.16666   0.20627   0.68513   0.00000  Uiso   1.00
O697   O     0.16668   0.12707   0.81487   0.00000  Uiso   1.00
O698   O     0.16668   0.20627   0.81487   0.00000  Uiso   1.00
O699   O     0.16666   0.12707   0.68513   0.00000  Uiso   1.00
O700   O     0.13680   0.04853   0.64372   0.00000  Uiso   1.00
C701   C     0.42084   0.16668   0.75028   0.00000  Uiso   1.00
C702   C     0.37615   0.16673   0.75061   0.00000  Uiso   1.00
C703   C     0.47847   0.02428   0.71748   0.00000  Uiso   1.00
C704   C     0.52146   0.30907   0.78260   0.00000  Uiso   1.00
C705   C     0.52167   0.02503   0.78243   0.00000  Uiso   1.00
C706   C     0.47823   0.30833   0.71765   0.00000  Uiso   1.00
C707   C     0.49980   0.16656   0.66458   0.00000  Uiso   1.00
C708   C     0.50019   0.16672   0.83540   0.00000  Uiso   1.00
C709   C     0.53214   0.18831   0.90829   0.00000  Uiso   1.00
C710   C     0.46876   0.14322   0.59163   0.00000  Uiso   1.00
C711   C     0.50028   0.16645   0.88366   0.00000  Uiso   1.00
C712   C     0.57916   0.16668   0.74977   0.00000  Uiso   1.00
C713   C     0.49985   0.16650   0.61629   0.00000  Uiso   1.00
C714   C     0.46913   0.14300   0.90499   0.00000  Uiso   1.00
C715   C     0.53073   0.19036   0.59491   0.00000  Uiso   1.00
C716   C     0.46888   0.14268   0.95152   0.00000  Uiso   1.00
C717   C     0.53136   0.19005   0.54839   0.00000  Uiso   1.00
C718   C     0.50034   0.16604   0.97657   0.00000  Uiso   1.00
C719   C     0.50012   0.16633   0.52336   0.00000  Uiso   1.00
C720   C     0.53212   0.18894   0.95482   0.00000  Uiso   1.00
C721   C     0.46861   0.14296   0.54510   0.00000  Uiso   1.00
C722   C     0.43768   0.11967   0.97342   0.00000  Uiso   1.00
C723   C     0.43757   0.11978   0.51998   0.00000  Uiso   1.00
C724   C     0.56272   0.21278   0.52649   0.00000  Uiso   1.00
C725   C     0.45561   0.04766   0.68071   0.00000  Uiso   1.00
C726   C     0.54380   0.28601   0.82000   0.00000  Uiso   1.00
C727   C     0.54672   0.04942   0.81750   0.00000  Uiso   1.00
C728   C     0.45351   0.28398   0.68234   0.00000  Uiso   1.00
C729   C     0.56321   0.21202   0.97994   0.00000  Uiso   1.00
C730   C     0.35456   0.12491   0.74912   0.00000  Uiso   1.00
C731   C     0.64542   0.20862   0.75139   0.00000  Uiso   1.00
C732   C     0.64532   0.12494   0.74789   0.00000  Uiso   1.00
C733   C     0.35469   0.20860   0.75203   0.00000  Uiso   1.00
C734   C     0.62384   0.16676   0.74955   0.00000  Uiso   1.00
Cu735  Cu    0.50000   0.21355   0.75000   0.00000  Uiso   1.00
Cu736  Cu    0.50000   0.11978   0.75000   0.00000  Uiso   1.00
H737   H     0.55723   0.20395   0.89112   0.00000  Uiso   1.00
H738   H     0.62954   0.24140   0.75231   0.00000  Uiso   1.00
H739   H     0.62939   0.09221   0.74555   0.00000  Uiso   1.00
H740   H     0.37068   0.24135   0.75380   0.00000  Uiso   1.00
H741   H     0.40294   0.07819   0.65881   0.00000  Uiso   1.00
H742   H     0.55023   0.28149   0.88709   0.00000  Uiso   1.00
H743   H     0.60142   0.07770   0.83623   0.00000  Uiso   1.00
H744   H     0.44857   0.26377   0.61775   0.00000  Uiso   1.00
H745   H     0.44436   0.12614   0.60870   0.00000  Uiso   1.00
H746   H     0.44501   0.12553   0.88528   0.00000  Uiso   1.00
H747   H     0.55451   0.20844   0.61460   0.00000  Uiso   1.00
H748   H     0.41340   0.10164   0.95454   0.00000  Uiso   1.00
H749   H     0.58690   0.23098   0.54536   0.00000  Uiso   1.00
H750   H     0.41324   0.10176   0.53635   0.00000  Uiso   1.00
H751   H     0.58773   0.22972   0.96358   0.00000  Uiso   1.00
H752   H     0.37036   0.09210   0.74887   0.00000  Uiso   1.00
N753   N     0.50000   0.28402   0.75000   0.00000  Uiso   1.00
N754   N     0.50000   0.04931   0.75000   0.00000  Uiso   1.00
O755   O     0.43988   0.20625   0.75000   0.00000  Uiso   1.00
O756   O     0.41605   0.06449   0.68697   0.00000  Uiso   1.00
O757   O     0.57659   0.26679   0.81425   0.00000  Uiso   1.00
O758   O     0.52921   0.29099   0.86303   0.00000  Uiso   1.00
O759   O     0.53326   0.05462   0.85474   0.00000  Uiso   1.00
O760   O     0.58707   0.06227   0.80937   0.00000  Uiso   1.00
O761   O     0.41890   0.27041   0.68977   0.00000  Uiso   1.00
O762   O     0.46854   0.28016   0.63940   0.00000  Uiso   1.00
O763   O     0.56012   0.12709   0.75000   0.00000  Uiso   1.00
O764   O     0.56012   0.20625   0.75000   0.00000  Uiso   1.00
O765   O     0.43988   0.12709   0.75000   0.00000  Uiso   1.00
O766   O     0.49999   0.20627   0.68513   0.00000  Uiso   1.00
O767   O     0.50001   0.12707   0.81487   0.00000  Uiso   1.00
O768   O     0.50001   0.20627   0.81487   0.00000  Uiso   1.00
O769   O     0.49999   0.12707   0.68513   0.00000  Uiso   1.00
O770   O     0.47013   0.04853   0.64372   0.00000  Uiso   1.00
C771   C     0.75418   0.16668   0.75028   0.00000  Uiso   1.00
C772   C     0.70949   0.16673   0.75061   0.00000  Uiso   1.00
C773   C     0.81180   0.02428   0.71748   0.00000  Uiso   1.00
C774   C     0.85479   0.30907   0.78260   0.00000  Uiso   1.00
C775   C     0.85500   0.02503   0.78243   0.00000  Uiso   1.00
C776   C     0.81156   0.30833   0.71765   0.00000  Uiso   1.00
C777   C     0.83313   0.16656   0.66458   0.00000  Uiso   1.00
C778   C     0.83353   0.16672   0.83540   0.00000  Uiso   1.00
C779   C     0.86548   0.18831   0.90829   0.00000  Uiso   1.00
C780   C     0.80209   0.14322   0.59163   0.00000  Uiso   1.00
C781   C     0.83361   0.16645   0.88366   0.00000  Uiso   1.00
C782   C     0.91249   0.16668   0.74977   0.00000  Uiso   1.00
C783   C     0.83318   0.16650   0.61629   0.00000  Uiso   1.00
C784   C     0.80247   0.14300   0.90499   0.00000  Uiso   1.00
C785   C     0.86407   0.19036   0.59491   0.00000  Uiso   1.00
C786   C     0.80221   0.14268   0.95152   0.00000  Uiso   1.00
C787   C     0.86469   0.19005   0.54839   0.00000  Uiso   1.00
C788   C     0.83367   0.16604   0.97657   0.00000  Uiso   1.00
C789   C     0.83345   0.16633   0.52336   0.00000  Uiso   1.00
C790   C     0.86546   0.18894   0.95482   0.00000  Uiso   1.00
C791   C     0.80194   0.14296   0.54510   0.00000  Uiso   1.00
C792   C     0.77102   0.11967   0.97342   0.00000  Uiso   1.00
C793   C     0.77090   0.11978   0.51998   0.00000  Uiso   1.00
C794   C     0.89605   0.21278   0.52649   0.00000  Uiso   1.00
C795   C     0.78894   0.04766   0.68071   0.00000  Uiso   1.00
C796   C     0.87713   0.28601   0.82000   0.00000  Uiso   1.00
C797   C     0.88005   0.04942   0.81750   0.00000  Uiso   1.00
C798   C     0.78684   0.28398   0.68234   0.00000  Uiso   1.00
C799   C     0.89655   0.21202   0.97994   0.00000  Uiso   1.00
C800   C     0.68789   0.12491   0.74912   0.00000  Uiso   1.00
C801   C     0.97876   0.20862   0.75139   0.00000  Uiso   1.00
C802   C     0.97865   0.12494   0.74789   0.00000  Uiso   1.00
C803   C     0.68803   0.20860   0.75203   0.00000  Uiso   1.00
C804   C     0.95718   0.16676   0.74955   0.00000  Uiso   1.00
Cu805  Cu    0.83333   0.21355   0.75000   0.00000  Uiso   1.00
Cu806  Cu    0.83333   0.11978   0.75000   0.00000  Uiso   1.00
H807   H     0.89056   0.20395   0.89112   0.00000  Uiso   1.00
H808   H     0.96288   0.24140   0.75231   0.00000  Uiso   1.00
H809   H     0.96273   0.09221   0.74555   0.00000  Uiso   1.00
H810   H     0.70401   0.24135   0.75380   0.00000  Uiso   1.00
H811   H     0.73627   0.07819   0.65881   0.00000  Uiso   1.00
H812   H     0.88356   0.28149   0.88709   0.00000  Uiso   1.00
H813   H     0.93475   0.07770   0.83623   0.00000  Uiso   1.00
H814   H     0.78190   0.26377   0.61775   0.00000  Uiso   1.00
H815   H     0.77770   0.12614   0.60870   0.00000  Uiso   1.00
H816   H     0.77834   0.12553   0.88528   0.00000  Uiso   1.00
H817   H     0.88784   0.20844   0.61460   0.00000  Uiso   1.00
H818   H     0.74674   0.10164   0.95454   0.00000  Uiso   1.00
H819   H     0.92023   0.23098   0.54536   0.00000  Uiso   1.00
H820   H     0.74658   0.10176   0.53635   0.00000  Uiso   1.00
H821   H     0.92106   0.22972   0.96358   0.00000  Uiso   1.00
H822   H     0.70370   0.09210   0.74887   0.00000  Uiso   1.00
N823   N     0.83333   0.28402   0.75000   0.00000  Uiso   1.00
N824   N     0.83333   0.04931   0.75000   0.00000  Uiso   1.00
O825   O     0.77321   0.20625   0.75000   0.00000  Uiso   1.00
O826   O     0.74938   0.06449   0.68697   0.00000  Uiso   1.00
O827   O     0.90992   0.26679   0.81425   0.00000  Uiso   1.00
O828   O     0.86255   0.29099   0.86303   0.00000  Uiso   1.00
O829   O     0.86660   0.05462   0.85474   0.00000  Uiso   1.00
O830   O     0.92040   0.06227   0.80937   0.00000  Uiso   1.00
O831   O     0.75224   0.27041   0.68977   0.00000  Uiso   1.00
O832   O     0.80188   0.28016   0.63940   0.00000  Uiso   1.00
O833   O     0.89345   0.12709   0.75000   0.00000  Uiso   1.00
O834   O     0.89345   0.20625   0.75000   0.00000  Uiso   1.00
O835   O     0.77321   0.12709   0.75000   0.00000  Uiso   1.00
O836   O     0.83332   0.20627   0.68513   0.00000  Uiso   1.00
O837   O     0.83334   0.12707   0.81487   0.00000  Uiso   1.00
O838   O     0.83334   0.20627   0.81487   0.00000  Uiso   1.00
O839   O     0.83332   0.12707   0.68513   0.00000  Uiso   1.00
O840   O     0.80347   0.04853   0.64372   0.00000  Uiso   1.00
C841   C     0.08751   0.50001   0.75028   0.00000  Uiso   1.00
C842   C     0.04282   0.50006   0.75061   0.00000  Uiso   1.00
C843   C     0.14514   0.35761   0.71748   0.00000  Uiso   1.00
C844   C     0.18813   0.64240   0.78260   0.00000  Uiso   1.00
C845   C     0.18833   0.35836   0.78243   0.00000  Uiso   1.00
C846   C     0.14489   0.64166   0.71765   0.00000  Uiso   1.00
C847   C     0.16646   0.49989   0.66458   0.00000  Uiso   1.00
C848   C     0.16686   0.50005   0.83540   0.00000  Uiso   1.00
C849   C     0.19881   0.52165   0.90829   0.00000  Uiso   1.00
C850   C     0.13543   0.47655   0.59163   0.00000  Uiso   1.00
C851   C     0.16695   0.49978   0.88366   0.00000  Uiso   1.00
C852   C     0.24582   0.50001   0.74977   0.00000  Uiso   1.00
C853   C     0.16652   0.49984   0.61629   0.00000  Uiso   1.00
C854   C     0.13580   0.47634   0.90499   0.00000  Uiso   1.00
C855   C     0.19740   0.52369   0.59491   0.00000  Uiso   1.00
C856   C     0.13555   0.47601   0.95152   0.00000  Uiso   1.00
C857   C     0.19803   0.52339   0.54839   0.00000  Uiso   1.00
C858   C     0.16701   0.49937   0.97657   0.00000  Uiso   1.00
C859   C     0.16678   0.49966   0.52336   0.00000  Uiso   1.00
C860   C     0.19879   0.52227   0.95482   0.00000  Uiso   1.00
C861   C     0.13528   0.47629   0.54510   0.00000  Uiso   1.00
C862   C     0.10435   0.45301   0.97342   0.00000  Uiso   1.00
C863   C     0.10424   0.45311   0.51998   0.00000  Uiso   1.00
C864   C     0.22939   0.54611   0.52649   0.00000  Uiso   1.00
C865   C     0.12228   0.38099   0.68071   0.00000  Uiso   1.00
C866   C     0.21046   0.61934   0.82000   0.00000  Uiso   1.00
C867   C     0.21339   0.38275   0.81750   0.00000  Uiso   1.00
C868   C     0.12017   0.61732   0.68234   0.00000  Uiso   1.00
C869   C     0.22988   0.54536   0.97994   0.00000  Uiso   1.00
C870   C     0.02122   0.45824   0.74912   0.00000  Uiso   1.00
C871   C     0.31209   0.54195   0.75139   0.00000  Uiso   1.00
C872   C     0.31198   0.45828   0.74789   0.00000  Uiso   1.00
C873   C     0.02136   0.54193   0.75203   0.00000  Uiso   1.00
C874   C     0.29051   0.50009   0.74955   0.00000  Uiso   1.00
Cu875  Cu    0.16667   0.54689   0.75000   0.00000  Uiso   1.00
Cu876  Cu    0.16667   0.45311   0.75000   0.00000  Uiso   1.00
H877   H     0.22389   0.53729   0.89112   0.00000  Uiso   1.00
H878   H     0.29621   0.57474   0.75231   0.00000  Uiso   1.00
H879   H     0.29606   0.42554   0.74555   0.00000  Uiso   1.00
H880   H     0.03734   0.57468   0.75380   0.00000  Uiso   1.00
H881   H     0.06960   0.41152   0.65881   0.00000  Uiso   1.00
H882   H     0.21690   0.61483   0.88709   0.00000  Uiso   1.00
H883   H     0.26808   0.41103   0.83623   0.00000  Uiso   1.00
H884   H     0.11524   0.59710   0.61775   0.00000  Uiso   1.00
H885   H     0.11103   0.45947   0.60870   0.00000  Uiso   1.00
H886   H     0.11168   0.45886   0.88528   0.00000  Uiso   1.00
H887   H     0.22118   0.54177   0.61460   0.00000  Uiso   1.00
H888   H     0.08007   0.43498   0.95454   0.00000  Uiso   1.00
H889   H     0.25357   0.56432   0.54536   0.00000  Uiso   1.00
H890   H     0.07991   0.43509   0.53635   0.00000  Uiso   1.00
H891   H     0.25439   0.56305   0.96358   0.00000  Uiso   1.00
H892   H     0.03703   0.42543   0.74887   0.00000  Uiso   1.00
N893   N     0.16667   0.61736   0.75000   0.00000  Uiso   1.00
N894   N     0.16667   0.38264   0.75000   0.00000  Uiso   1.00
O895   O     0.10655   0.53958   0.75000   0.00000  Uiso   1.00
O896   O     0.08271   0.39782   0.68697   0.00000  Uiso   1.00
O897   O     0.24326   0.60012   0.81425   0.00000  Uiso   1.00
O898   O     0.19588   0.62432   0.86303   0.00000  Uiso   1.00
O899   O     0.19993   0.38795   0.85474   0.00000  Uiso   1.00
O900   O     0.25374   0.39561   0.80937   0.00000  Uiso   1.00
O901   O     0.08557   0.60375   0.68977   0.00000  Uiso   1.00
O902   O     0.13521   0.61349   0.63940   0.00000  Uiso   1.00
O903   O     0.22679   0.46042   0.75000   0.00000  Uiso   1.00
O904   O     0.22679   0.53958   0.75000   0.00000  Uiso   1.00
O905   O     0.10655   0.46042   0.75000   0.00000  Uiso   1.00
O906   O     0.16666   0.53960   0.68513   0.00000  Uiso   1.00
O907   O     0.16668   0.46040   0.81487   0.00000  Uiso   1.00
O908   O     0.16668   0.53960   0.81487   0.00000  Uiso   1.00
O909   O     0.16666   0.46040   0.68513   0.00000  Uiso   1.00
O910   O     0.13680   0.38187   0.64372   0.00000  Uiso   1.00
C911   C     0.42084   0.50001   0.75028   0.00000  Uiso   1.00
C912   C     0.37615   0.50006   0.75061   0.00000  Uiso   1.00
C913   C     0.47847   0.35761   0.71748   0.00000  Uiso   1.00
C914   C     0.52146   0.64240   0.78260   0.00000  Uiso   1.00
C915   C     0.52167   0.35836   0.78243   0.00000  Uiso   1.00
C916   C     0.47823   0.64166   0.71765   0.00000  Uiso   1.00
C917   C     0.49980   0.49989   0.66458   0.00000  Uiso   1.00
C918   C     0.50019   0.50005   0.83540   0.00000  Uiso   1.00
C919   C     0.53214   0.52165   0.90829   0.00000  Uiso   1.00
C920   C     0.46876   0.47655   0.59163   0.00000  Uiso   1.00
C921   C     0.50028   0.49978   0.88366   0.00000  Uiso   1.00
C922   C     0.57916   0.50001   0.74977   0.00000  Uiso   1.00
C923   C     0.49985   0.49984   0.61629   0.00000  Uiso   1.00
C924   C     0.46913   0.47634   0.90499   0.00000  Uiso   1.00
C925   C     0.53073   0.52369   0.59491   0.00000  Uiso   1.00
C926   C     0.46888   0.47601   0.95152   0.00000  Uiso   1.00
C927   C     0.53136   0.52339   0.54839   0.00000  Uiso   1.00
C928   C     0.50034   0.49937   0.97657   0.00000  Uiso   1.00
C929   C     0.50012   0.49966   0.52336   0.00000  Uiso   1.00
C930   C     0.53212   0.52227   0.95482   0.00000  Uiso   1.00
C931   C     0.46861   0.47629   0.54510   0.00000  Uiso   1.00
C932   C     0.43768   0.45301   0.97342   0.00000  Uiso   1.00
C933   C     0.43757   0.45311   0.51998   0.00000  Uiso   1.00
C934   C     0.56272   0.54611   0.52649   0.00000  Uiso   1.00
C935   C     0.45561   0.38099   0.68071   0.00000  Uiso   1.00
C936   C     0.54380   0.61934   0.82000   0.00000  Uiso   1.00
C937   C     0.54672   0.38275   0.81750   0.00000  Uiso   1.00
C938   C     0.45351   0.61732   0.68234   0.00000  Uiso   1.00
C939   C     0.56321   0.54536   0.97994   0.00000  Uiso   1.00
C940   C     0.35456   0.45824   0.74912   0.00000  Uiso   1.00
C941   C     0.64542   0.54195   0.75139   0.00000  Uiso   1.00
C942   C     0.64532   0.45828   0.74789   0.00000  Uiso   1.00
C943   C     0.35469   0.54193   0.75203   0.00000  Uiso   1.00
C944   C     0.62384   0.50009   0.74955   0.00000  Uiso   1.00
Cu945  Cu    0.50000   0.54689   0.75000   0.00000  Uiso   1.00
Cu946  Cu    0.50000   0.45311   0.75000   0.00000  Uiso   1.00
H947   H     0.55723   0.53729   0.89112   0.00000  Uiso   1.00
H948   H     0.62954   0.57474   0.75231   0.00000  Uiso   1.00
H949   H     0.62939   0.42554   0.74555   0.00000  Uiso   1.00
H950   H     0.37068   0.57468   0.75380   0.00000  Uiso   1.00
H951   H     0.40294   0.41152   0.65881   0.00000  Uiso   1.00
H952   H     0.55023   0.61483   0.88709   0.00000  Uiso   1.00
H953   H     0.60142   0.41103   0.83623   0.00000  Uiso   1.00
H954   H     0.44857   0.59710   0.61775   0.00000  Uiso   1.00
H955   H     0.44436   0.45947   0.60870   0.00000  Uiso   1.00
H956   H     0.44501   0.45886   0.88528   0.00000  Uiso   1.00
H957   H     0.55451   0.54177   0.61460   0.00000  Uiso   1.00
H958   H     0.41340   0.43498   0.95454   0.00000  Uiso   1.00
H959   H     0.58690   0.56432   0.54536   0.00000  Uiso   1.00
H960   H     0.41324   0.43509   0.53635   0.00000  Uiso   1.00
H961   H     0.58773   0.56305   0.96358   0.00000  Uiso   1.00
H962   H     0.37036   0.42543   0.74887   0.00000  Uiso   1.00
N963   N     0.50000   0.61736   0.75000   0.00000  Uiso   1.00
N964   N     0.50000   0.38264   0.75000   0.00000  Uiso   1.00
O965   O     0.43988   0.53958   0.75000   0.00000  Uiso   1.00
O966   O     0.41605   0.39782   0.68697   0.00000  Uiso   1.00
O967   O     0.57659   0.60012   0.81425   0.00000  Uiso   1.00
O968   O     0.52921   0.62432   0.86303   0.00000  Uiso   1.00
O969   O     0.53326   0.38795   0.85474   0.00000  Uiso   1.00
O970   O     0.58707   0.39561   0.80937   0.00000  Uiso   1.00
O971   O     0.41890   0.60375   0.68977   0.00000  Uiso   1.00
O972   O     0.46854   0.61349   0.63940   0.00000  Uiso   1.00
O973   O     0.56012   0.46042   0.75000   0.00000  Uiso   1.00
O974   O     0.56012   0.53958   0.75000   0.00000  Uiso   1.00
O975   O     0.43988   0.46042   0.75000   0.00000  Uiso   1.00
O976   O     0.49999   0.53960   0.68513   0.00000  Uiso   1.00
O977   O     0.50001   0.46040   0.81487   0.00000  Uiso   1.00
O978   O     0.50001   0.53960   0.81487   0.00000  Uiso   1.00
O979   O     0.49999   0.46040   0.68513   0.00000  Uiso   1.00
O980   O     0.47013   0.38187   0.64372   0.00000  Uiso   1.00
C981   C     0.75418   0.50001   0.75028   0.00000  Uiso   1.00
C982   C     0.70949   0.50006   0.75061   0.00000  Uiso   1.00
C983   C     0.81180   0.35761   0.71748   0.00000  Uiso   1.00
C984   C     0.85479   0.64240   0.78260   0.00000  Uiso   1.00
C985   C     0.85500   0.35836   0.78243   0.00000  Uiso   1.00
C986   C     0.81156   0.64166   0.71765   0.00000  Uiso   1.00
C987   C     0.83313   0.49989   0.66458   0.00000  Uiso   1.00
C988   C     0.83353   0.50005   0.83540   0.00000  Uiso   1.00
C989   C     0.86548   0.52165   0.90829   0.00000  Uiso   1.00
C990   C     0.80209   0.47655   0.59163   0.00000  Uiso   1.00
C991   C     0.83361   0.49978   0.88366   0.00000  Uiso   1.00
C992   C     0.91249   0.50001   0.74977   0.00000  Uiso   1.00
C993   C     0.83318   0.49984   0.61629   0.00000  Uiso   1.00
C994   C     0.80247   0.47634   0.90499   0.00000  Uiso   1.00
C995   C     0.86407   0.52369   0.59491   0.00000  Uiso   1.00
C996   C     0.80221   0.47601   0.95152   0.00000  Uiso   1.00
C997   C     0.86469   0.52339   0.54839   0.00000  Uiso   1.00
C998   C     0.83367   0.49937   0.97657   0.00000  Uiso   1.00
C999   C     0.83345   0.49966   0.52336   0.00000  Uiso   1.00
C1000  C     0.86546   0.52227   0.95482   0.00000  Uiso   1.00
C1001  C     0.80194   0.47629   0.54510   0.00000  Uiso   1.00
C1002  C     0.77102   0.45301   0.97342   0.00000  Uiso   1.00
C1003  C     0.77090   0.45311   0.51998   0.00000  Uiso   1.00
C1004  C     0.89605   0.54611   0.52649   0.00000  Uiso   1.00
C1005  C     0.78894   0.38099   0.68071   0.00000  Uiso   1.00
C1006  C     0.87713   0.61934   0.82000   0.00000  Uiso   1.00
C1007  C     0.88005   0.38275   0.81750   0.00000  Uiso   1.00
C1008  C     0.78684   0.61732   0.68234   0.00000  Uiso   1.00
C1009  C     0.89655   0.54536   0.97994   0.00000  Uiso   1.00
C1010  C     0.68789   0.45824   0.74912   0.00000  Uiso   1.00
C1011  C     0.97876   0.54195   0.75139   0.00000  Uiso   1.00
C1012  C     0.97865   0.45828   0.74789   0.00000  Uiso   1.00
C1013  C     0.68803   0.54193   0.75203   0.00000  Uiso   1.00
C1014  C     0.95718   0.50009   0.74955   0.00000  Uiso   1.00
Cu1015 Cu    0.83333   0.54689   0.75000   0.00000  Uiso   1.00
Cu1016 Cu    0.83333   0.45311   0.75000   0.00000  Uiso   1.00
H1017  H     0.89056   0.53729   0.89112   0.00000  Uiso   1.00
H1018  H     0.96288   0.57474   0.75231   0.00000  Uiso   1.00
H1019  H     0.96273   0.42554   0.74555   0.00000  Uiso   1.00
H1020  H     0.70401   0.57468   0.75380   0.00000  Uiso   1.00
H1021  H     0.73627   0.41152   0.65881   0.00000  Uiso   1.00
H1022  H     0.88356   0.61483   0.88709   0.00000  Uiso   1.00
H1023  H     0.93475   0.41103   0.83623   0.00000  Uiso   1.00
H1024  H     0.78190   0.59710   0.61775   0.00000  Uiso   1.00
H1025  H     0.77770   0.45947   0.60870   0.00000  Uiso   1.00
H1026  H     0.77834   0.45886   0.88528   0.00000  Uiso   1.00
H1027  H     0.88784   0.54177   0.61460   0.00000  Uiso   1.00
H1028  H     0.74674   0.43498   0.95454   0.00000  Uiso   1.00
H1029  H     0.92023   0.56432   0.54536   0.00000  Uiso   1.00
H1030  H     0.74658   0.43509   0.53635   0.00000  Uiso   1.00
H1031  H     0.92106   0.56305   0.96358   0.00000  Uiso   1.00
H1032  H     0.70370   0.42543   0.74887   0.00000  Uiso   1.00
N1033  N     0.83333   0.61736   0.75000   0.00000  Uiso   1.00
N1034  N     0.83333   0.38264   0.75000   0.00000  Uiso   1.00
O1035  O     0.77321   0.53958   0.75000   0.00000  Uiso   1.00
O1036  O     0.74938   0.39782   0.68697   0.00000  Uiso   1.00
O1037  O     0.90992   0.60012   0.81425   0.00000  Uiso   1.00
O1038  O     0.86255   0.62432   0.86303   0.00000  Uiso   1.00
O1039  O     0.86660   0.38795   0.85474   0.00000  Uiso   1.00
O1040  O     0.92040   0.39561   0.80937   0.00000  Uiso   1.00
O1041  O     0.75224   0.60375   0.68977   0.00000  Uiso   1.00
O1042  O     0.80188   0.61349   0.63940   0.00000  Uiso   1.00
O1043  O     0.89345   0.46042   0.75000   0.00000  Uiso   1.00
O1044  O     0.89345   0.53958   0.75000   0.00000  Uiso   1.00
O1045  O     0.77321   0.46042   0.75000   0.00000  Uiso   1.00
O1046  O     0.83332   0.53960   0.68513   0.00000  Uiso   1.00
O1047  O     0.83334   0.46040   0.81487   0.00000  Uiso   1.00
O1048  O     0.83334   0.53960   0.81487   0.00000  Uiso   1.00
O1049  O     0.83332   0.46040   0.68513   0.00000  Uiso   1.00
O1050  O     0.80347   0.38187   0.64372   0.00000  Uiso   1.00
C1051  C     0.08751   0.83334   0.75028   0.00000  Uiso   1.00
C1052  C     0.04282   0.83339   0.75061   0.00000  Uiso   1.00
C1053  C     0.14514   0.69094   0.71748   0.00000  Uiso   1.00
C1054  C     0.18813   0.97573   0.78260   0.00000  Uiso   1.00
C1055  C     0.18833   0.69169   0.78243   0.00000  Uiso   1.00
C1056  C     0.14489   0.97500   0.71765   0.00000  Uiso   1.00
C1057  C     0.16646   0.83322   0.66458   0.00000  Uiso   1.00
C1058  C     0.16686   0.83339   0.83540   0.00000  Uiso   1.00
C1059  C     0.19881   0.85498   0.90829   0.00000  Uiso   1.00
C1060  C     0.13543   0.80989   0.59163   0.00000  Uiso   1.00
C1061  C     0.16695   0.83311   0.88366   0.00000  Uiso   1.00
C1062  C     0.24582   0.83335   0.74977   0.00000  Uiso   1.00
C1063  C     0.16652   0.83317   0.61629   0.00000  Uiso   1.00
C1064  C     0.13580   0.80967   0.90499   0.00000  Uiso   1.00
C1065  C     0.19740   0.85703   0.59491   0.00000  Uiso   1.00
C1066  C     0.13555   0.80934   0.95152   0.00000  Uiso   1.00
C1067  C     0.19803   0.85672   0.54839   0.00000  Uiso   1.00
C1068  C     0.16701   0.83270   0.97657   0.00000  Uiso   1.00
C1069  C     0.16678   0.83300   0.52336   0.00000  Uiso   1.00
C1070  C     0.19879   0.85560   0.95482   0.00000  Uiso   1.00
C1071  C     0.13528   0.80962   0.54510   0.00000  Uiso   1.00
C1072  C     0.10435   0.78634   0.97342   0.00000  Uiso   1.00
C1073  C     0.10424   0.78644   0.51998   0.00000  Uiso   1.00
C1074  C     0.22939   0.87945   0.52649   0.00000  Uiso   1.00
C1075  C     0.12228   0.71433   0.68071   0.00000  Uiso   1.00
C1076  C     0.21046   0.95267   0.82000   0.00000  Uiso   1.00
C1077  C     0.21339   0.71608   0.81750   0.00000  Uiso   1.00
C1078  C     0.12017   0.95065   0.68234   0.00000  Uiso   1.00
C1079  C     0.22988   0.87869   0.97994   0.00000  Uiso   1.00
C1080  C     0.02122   0.79157   0.74912   0.00000  Uiso   1.00
C1081  C     0.31209   0.87528   0.75139   0.00000  Uiso   1.00
C1082  C     0.31198   0.79161   0.74789   0.00000  Uiso   1.00
C1083  C     0.02136   0.87526   0.75203   0.00000  Uiso   1.00
C1084  C     0.29051   0.83342   0.74955   0.00000  Uiso   1.00
Cu1085 Cu    0.16667   0.88022   0.75000   0.00000  Uiso   1.00
Cu1086 Cu    0.16667   0.78645   0.75000   0.00000  Uiso   1.00
H1087  H     0.22389   0.87062   0.89112   0.00000  Uiso   1.00
H1088  H     0.29621   0.90807   0.75231   0.00000  Uiso   1.00
H1089  H     0.29606   0.75887   0.74555   0.00000  Uiso   1.00
H1090  H     0.03734   0.90802   0.75380   0.00000  Uiso   1.00
H1091  H     0.06960   0.74485   0.65881   0.00000  Uiso   1.00
H1092  H     0.21690   0.94816   0.88709   0.00000  Uiso   1.00
H1093  H     0.26808   0.74436   0.83623   0.00000  Uiso   1.00
H1094  H     0.11524   0.93044   0.61775   0.00000  Uiso   1.00
H1095  H     0.11103   0.79280   0.60870   0.00000  Uiso   1.00
H1096  H     0.11168   0.79219   0.88528   0.00000  Uiso   1.00
H1097  H     0.22118   0.87511   0.61460   0.00000  Uiso   1.00
H1098  H     0.08007   0.76831   0.95454   0.00000  Uiso   1.00
H1099  H     0.25357   0.89765   0.54536   0.00000  Uiso   1.00
H1100  H     0.07991   0.76842   0.53635   0.00000  Uiso   1.00
H1101  H     0.25439   0.89638   0.96358   0.00000  Uiso   1.00
H1102  H     0.03703   0.75876   0.74887   0.00000  Uiso   1.00
N1103  N     0.16667   0.95069   0.75000   0.00000  Uiso   1.00
N1104  N     0.16667   0.71598   0.75000   0.00000  Uiso   1.00
O1105  O     0.10655   0.87291   0.75000   0.00000  Uiso   1.00
O1106  O     0.08271   0.73116   0.68697   0.00000  Uiso   1.00
O1107  O     0.24326   0.93345   0.81425   0.00000  Uiso   1.00
O1108  O     0.19588   0.95765   0.86303   0.00000  Uiso   1.00
O1109  O     0.19993   0.72129   0.85474   0.00000  Uiso   1.00
O1110  O     0.25374   0.72894   0.80937   0.00000  Uiso   1.00
O1111  O     0.08557   0.93708   0.68977   0.00000  Uiso   1.00
O1112  O     0.13521   0.94682   0.63940   0.00000  Uiso   1.00
O1113  O     0.22679   0.79375   0.75000   0.00000  Uiso   1.00
O1114  O     0.22679   0.87291   0.75000   0.00000  Uiso   1.00
O1115  O     0.10655   0.79375   0.75000   0.00000  Uiso   1.00
O1116  O     0.16666   0.87293   0.68513   0.00000  Uiso   1.00
O1117  O     0.16668   0.79373   0.81487   0.00000  Uiso   1.00
O1118  O     0.16668   0.87293   0.81487   0.00000  Uiso   1.00
O1119  O     0.16666   0.79373   0.68513   0.00000  Uiso   1.00
O1120  O     0.13680   0.71520   0.64372   0.00000  Uiso   1.00
C1121  C     0.42084   0.83334   0.75028   0.00000  Uiso   1.00
C1122  C     0.37615   0.83339   0.75061   0.00000  Uiso   1.00
C1123  C     0.47847   0.69094   0.71748   0.00000  Uiso   1.00
C1124  C     0.52146   0.97573   0.78260   0.00000  Uiso   1.00
C1125  C     0.52167   0.69169   0.78243   0.00000  Uiso   1.00
C1126  C     0.47823   0.97500   0.71765   0.00000  Uiso   1.00
C1127  C     0.49980   0.83322   0.66458   0.00000  Uiso   1.00
C1128  C     0.50019   0.83339   0.83540   0.00000  Uiso   1.00
C1129  C     0.53214   0.85498   0.90829   0.00000  Uiso   1.00
C1130  C     0.46876   0.80989   0.59163   0.00000  Uiso   1.00
C1131  C     0.50028   0.83311   0.88366   0.00000  Uiso   1.00
C1132  C     0.57916   0.83335   0.74977   0.00000  Uiso   1.00
C1133  C     0.49985   0.83317   0.61629   0.00000  Uiso   1.00
C1134  C     0.46913   0.80967   0.90499   0.00000  Uiso   1.00
C1135  C     0.53073   0.85703   0.59491   0.00000  Uiso   1.00
C1136  C     0.46888   0.80934   0.95152   0.00000  Uiso   1.00
C1137  C     0.53136   0.85672   0.54839   0.00000  Uiso   1.00
C1138  C     0.50034   0.83270   0.97657   0.00000  Uiso   1.00
C1139  C     0.50012   0.83300   0.52336   0.00000  Uiso   1.00
C1140  C     0.53212   0.85560   0.95482   0.00000  Uiso   1.00
C1141  C     0.46861   0.80962   0.54510   0.00000  Uiso   1.00
C1142  C     0.43768   0.78634   0.97342   0.00000  Uiso   1.00
C1143  C     0.43757   0.78644   0.51998   0.00000  Uiso   1.00
C1144  C     0.56272   0.87945   0.52649   0.00000  Uiso   1.00
C1145  C     0.45561   0.71433   0.68071   0.00000  Uiso   1.00
C1146  C     0.54380   0.95267   0.82000   0.00000  Uiso   1.00
C1147  C     0.54672   0.71608   0.81750   0.00000  Uiso   1.00
C1148  C     0.45351   0.95065   0.68234   0.00000  Uiso   1.00
C1149  C     0.56321   0.87869   0.97994   0.00000  Uiso   1.00
C1150  C     0.35456   0.79157   0.74912   0.00000  Uiso   1.00
C1151  C     0.64542   0.87528   0.75139   0.00000  Uiso   1.00
C1152  C     0.64532   0.79161   0.74789   0.00000  Uiso   1.00
C1153  C     0.35469   0.87526   0.75203   0.00000  Uiso   1.00
C1154  C     0.62384   0.83342   0.74955   0.00000  Uiso   1.00
Cu1155 Cu    0.50000   0.88022   0.75000   0.00000  Uiso   1.00
Cu1156 Cu    0.50000   0.78645   0.75000   0.00000  Uiso   1.00
H1157  H     0.55723   0.87062   0.89112   0.00000  Uiso   1.00
H1158  H     0.62954   0.90807   0.75231   0.00000  Uiso   1.00
H1159  H     0.62939   0.75887   0.74555   0.00000  Uiso   1.00
H1160  H     0.37068   0.90802   0.75380   0.00000  Uiso   1.00
H1161  H     0.40294   0.74485   0.65881   0.00000  Uiso   1.00
H1162  H     0.55023   0.94816   0.88709   0.00000  Uiso   1.00
H1163  H     0.60142   0.74436   0.83623   0.00000  Uiso   1.00
H1164  H     0.44857   0.93044   0.61775   0.00000  Uiso   1.00
H1165  H     0.44436   0.79280   0.60870   0.00000  Uiso   1.00
H1166  H     0.44501   0.79219   0.88528   0.00000  Uiso   1.00
H1167  H     0.55451   0.87511   0.61460   0.00000  Uiso   1.00
H1168  H     0.41340   0.76831   0.95454   0.00000  Uiso   1.00
H1169  H     0.58690   0.89765   0.54536   0.00000  Uiso   1.00
H1170  H     0.41324   0.76842   0.53635   0.00000  Uiso   1.00
H1171  H     0.58773   0.89638   0.96358   0.00000  Uiso   1.00
H1172  H     0.37036   0.75876   0.74887   0.00000  Uiso   1.00
N1173  N     0.50000   0.95069   0.75000   0.00000  Uiso   1.00
N1174  N     0.50000   0.71598   0.75000   0.00000  Uiso   1.00
O1175  O     0.43988   0.87291   0.75000   0.00000  Uiso   1.00
O1176  O     0.41605   0.73116   0.68697   0.00000  Uiso   1.00
O1177  O     0.57659   0.93345   0.81425   0.00000  Uiso   1.00
O1178  O     0.52921   0.95765   0.86303   0.00000  Uiso   1.00
O1179  O     0.53326   0.72129   0.85474   0.00000  Uiso   1.00
O1180  O     0.58707   0.72894   0.80937   0.00000  Uiso   1.00
O1181  O     0.41890   0.93708   0.68977   0.00000  Uiso   1.00
O1182  O     0.46854   0.94682   0.63940   0.00000  Uiso   1.00
O1183  O     0.56012   0.79375   0.75000   0.00000  Uiso   1.00
O1184  O     0.56012   0.87291   0.75000   0.00000  Uiso   1.00
O1185  O     0.43988   0.79375   0.75000   0.00000  Uiso   1.00
O1186  O     0.49999   0.87293   0.68513   0.00000  Uiso   1.00
O1187  O     0.50001   0.79373   0.81487   0.00000  Uiso   1.00
O1188  O     0.50001   0.87293   0.81487   0.00000  Uiso   1.00
O1189  O     0.49999   0.79373   0.68513   0.00000  Uiso   1.00
O1190  O     0.47013   0.71520   0.64372   0.00000  Uiso   1.00
C1191  C     0.75418   0.83334   0.75028   0.00000  Uiso   1.00
C1192  C     0.70949   0.83339   0.75061   0.00000  Uiso   1.00
C1193  C     0.81180   0.69094   0.71748   0.00000  Uiso   1.00
C1194  C     0.85479   0.97573   0.78260   0.00000  Uiso   1.00
C1195  C     0.85500   0.69169   0.78243   0.00000  Uiso   1.00
C1196  C     0.81156   0.97500   0.71765   0.00000  Uiso   1.00
C1197  C     0.83313   0.83322   0.66458   0.00000  Uiso   1.00
C1198  C     0.83353   0.83339   0.83540   0.00000  Uiso   1.00
C1199  C     0.86548   0.85498   0.90829   0.00000  Uiso   1.00
C1200  C     0.80209   0.80989   0.59163   0.00000  Uiso   1.00
C1201  C     0.83361   0.83311   0.88366   0.00000  Uiso   1.00
C1202  C     0.91249   0.83335   0.74977   0.00000  Uiso   1.00
C1203  C     0.83318   0.83317   0.61629   0.00000  Uiso   1.00
C1204  C     0.80247   0.80967   0.90499   0.00000  Uiso   1.00
C1205  C     0.86407   0.85703   0.59491   0.00000  Uiso   1.00
C1206  C     0.80221   0.80934   0.95152   0.00000  Uiso   1.00
C1207  C     0.86469   0.85672   0.54839   0.00000  Uiso   1.00
C1208  C     0.83367   0.83270   0.97657   0.00000  Uiso   1.00
C1209  C     0.83345   0.83300   0.52336   0.00000  Uiso   1.00
C1210  C     0.86546   0.85560   0.95482   0.00000  Uiso   1.00
C1211  C     0.80194   0.80962   0.54510   0.00000  Uiso   1.00
C1212  C     0.77102   0.78634   0.97342   0.00000  Uiso   1.00
C1213  C     0.77090   0.78644   0.51998   0.00000  Uiso   1.00
C1214  C     0.89605   0.87945   0.52649   0.00000  Uiso   1.00
C1215  C     0.78894   0.71433   0.68071   0.00000  Uiso   1.00
C1216  C     0.87713   0.95267   0.82000   0.00000  Uiso   1.00
C1217  C     0.88005   0.71608   0.81750   0.00000  Uiso   1.00
C1218  C     0.78684   0.95065   0.68234   0.00000  Uiso   1.00
C1219  C     0.89655   0.87869   0.97994   0.00000  Uiso   1.00
C1220  C     0.68789   0.79157   0.74912   0.00000  Uiso   1.00
C1221  C     0.97876   0.87528   0.75139   0.00000  Uiso   1.00
C1222  C     0.97865   0.79161   0.74789   0.00000  Uiso   1.00
C1223  C     0.68803   0.87526   0.75203   0.00000  Uiso   1.00
C1224  C     0.95718   0.83342   0.74955   0.00000  Uiso   1.00
Cu1225 Cu    0.83333   0.88022   0.75000   0.00000  Uiso   1.00
Cu1226 Cu    0.83333   0.78645   0.75000   0.00000  Uiso   1.00
H1227  H     0.89056   0.87062   0.89112   0.00000  Uiso   1.00
H1228  H     0.96288   0.90807   0.75231   0.00000  Uiso   1.00
H1229  H     0.96273   0.75887   0.74555   0.00000  Uiso   1.00
H1230  H     0.70401   0.90802   0.75380   0.00000  Uiso   1.00
H1231  H     0.73627   0.74485   0.65881   0.00000  Uiso   1.00
H1232  H     0.88356   0.94816   0.88709   0.00000  Uiso   1.00
H1233  H     0.93475   0.74436   0.83623   0.00000  Uiso   1.00
H1234  H     0.78190   0.93044   0.61775   0.00000  Uiso   1.00
H1235  H     0.77770   0.79280   0.60870   0.00000  Uiso   1.00
H1236  H     0.77834   0.79219   0.88528   0.00000  Uiso   1.00
H1237  H     0.88784   0.87511   0.61460   0.00000  Uiso   1.00
H1238  H     0.74674   0.76831   0.95454   0.00000  Uiso   1.00
H1239  H     0.92023   0.89765   0.54536   0.00000  Uiso   1.00
H1240  H     0.74658   0.76842   0.53635   0.00000  Uiso   1.00
H1241  H     0.92106   0.89638   0.96358   0.00000  Uiso   1.00
H1242  H     0.70370   0.75876   0.74887   0.00000  Uiso   1.00
N1243  N     0.83333   0.95069   0.75000   0.00000  Uiso   1.00
N1244  N     0.83333   0.71598   0.75000   0.00000  Uiso   1.00
O1245  O     0.77321   0.87291   0.75000   0.00000  Uiso   1.00
O1246  O     0.74938   0.73116   0.68697   0.00000  Uiso   1.00
O1247  O     0.90992   0.93345   0.81425   0.00000  Uiso   1.00
O1248  O     0.86255   0.95765   0.86303   0.00000  Uiso   1.00
O1249  O     0.86660   0.72129   0.85474   0.00000  Uiso   1.00
O1250  O     0.92040   0.72894   0.80937   0.00000  Uiso   1.00
O1251  O     0.75224   0.93708   0.68977   0.00000  Uiso   1.00
O1252  O     0.80188   0.94682   0.63940   0.00000  Uiso   1.00
O1253  O     0.89345   0.79375   0.75000   0.00000  Uiso   1.00
O1254  O     0.89345   0.87291   0.75000   0.00000  Uiso   1.00
O1255  O     0.77321   0.79375   0.75000   0.00000  Uiso   1.00
O1256  O     0.83332   0.87293   0.68513   0.00000  Uiso   1.00
O1257  O     0.83334   0.79373   0.81487   0.00000  Uiso   1.00
O1258  O     0.83334   0.87293   0.81487   0.00000  Uiso   1.00
O1259  O     0.83332   0.79373   0.68513   0.00000  Uiso   1.00
O1260  O     0.80347   0.71520   0.64372   0.00000  Uiso   1.00
loop_
_geom_bond_atom_site_label_1
_geom_bond_atom_site_label_2
_geom_bond_distance
_geom_bond_site_symmetry_2
_ccdc_geom_bond_type
C1     O65     1.304   .     A
C1     C2      1.453   .     S
C1     O55     1.304   .     A
C2     C33     1.401   .     A
C2     C30     1.401   .     A
C3     N54     1.378   .     A
C3     C25     1.473   .     S
C3     C426    1.429   1_545 S
C4     N53     1.378   .     A
C4     C26     1.475   .     S
C4     C215    1.429   .     S
C5     C27     1.478   .     S
C5     N54     1.375   .     A
C5     C424    1.429   1_545 S
C6     N53     1.375   .     A
C6     C28     1.477   .     S
C6     C213    1.429   .     S
C7     O69     1.305   .     A
C7     O66     1.301   .     A
C7     C13     1.447   .     S
C8     C11     1.446   .     S
C8     O68     1.306   .     A
C8     O67     1.299   .     A
C9     C11     1.396   .     A
C9     C20     1.394   .     A
C9     H37     1.083   .     S
C10    C21     1.394   .     A
C10    H45     1.083   .     S
C10    C13     1.397   .     A
C11    C14     1.398   .     A
C12    O64     1.303   .     A
C12    C34     1.452   .     S
C12    O63     1.304   .     A
C13    C15     1.398   .     A
C14    H46     1.085   .     S
C14    C16     1.395   .     A
C15    H47     1.085   .     S
C15    C17     1.395   .     A
C16    C18     1.413   .     A
C16    C22     1.402   .     A
C17    C24     1.402   .     A
C17    C19     1.413   .     A
C18    C20     1.412   .     A
C18    C649    1.402   .     S
C19    C21     1.412   .     A
C19    C648    1.402   1_554 S
C20    C29     1.402   .     A
C21    C23     1.402   .     A
C22    H48     1.084   .     S
C22    C653    1.395   .     S
C23    H50     1.084   .     S
C23    C652    1.395   1_554 S
C24    H49     1.084   .     S
C24    C659    1.395   1_554 S
C25    O56     1.394   .     S
C25    O70     1.223   .     D
C26    O58     1.398   .     S
C26    O57     1.220   .     D
C27    O59     1.223   .     D
C27    O60     1.395   .     S
C28    O61     1.221   .     D
C28    O62     1.398   .     S
C29    H51     1.084   .     S
C29    C654    1.395   .     S
C30    H52     1.081   .     S
C30    C172    1.382   1_455 S
C31    H38     1.082   .     S
C31    C34     1.401   .     A
C31    C103    1.384   .     S
C32    H39     1.082   .     S
C32    C34     1.400   .     A
C32    C100    1.382   .     S
C33    H40     1.082   .     S
C33    C171    1.384   1_455 S
Cu35   O64     1.965   .     S
Cu35   N53     2.043   .     S
Cu35   Cu36    2.719   .     S
Cu35   O68     1.957   .     S
Cu35   O66     1.953   .     S
Cu35   O55     1.965   .     S
Cu36   O63     1.965   .     S
Cu36   O67     1.953   .     S
Cu36   N54     2.043   .     S
Cu36   O69     1.957   .     S
Cu36   O65     1.965   .     S
H41    O56     1.014   .     S
H42    O58     1.012   .     S
H43    O60     1.014   .     S
H44    O62     1.014   .     S
C71    O135    1.304   .     A
C71    C72     1.453   .     S
C71    O125    1.304   .     A
C72    C103    1.401   .     A
C72    C100    1.401   .     A
C73    N124    1.378   .     A
C73    C95     1.473   .     S
C73    C496    1.429   1_545 S
C74    N123    1.378   .     A
C74    C96     1.475   .     S
C74    C285    1.429   .     S
C75    C97     1.478   .     S
C75    N124    1.375   .     A
C75    C494    1.429   1_545 S
C76    N123    1.375   .     A
C76    C98     1.477   .     S
C76    C283    1.429   .     S
C77    O139    1.305   .     A
C77    O136    1.301   .     A
C77    C83     1.447   .     S
C78    C81     1.446   .     S
C78    O138    1.306   .     A
C78    O137    1.299   .     A
C79    C81     1.396   .     A
C79    C90     1.394   .     A
C79    H107    1.083   .     S
C80    C91     1.394   .     A
C80    H115    1.083   .     S
C80    C83     1.397   .     A
C81    C84     1.398   .     A
C82    O134    1.303   .     A
C82    C104    1.452   .     S
C82    O133    1.304   .     A
C83    C85     1.398   .     A
C84    H116    1.085   .     S
C84    C86     1.395   .     A
C85    H117    1.085   .     S
C85    C87     1.395   .     A
C86    C88     1.413   .     A
C86    C92     1.402   .     A
C87    C94     1.402   .     A
C87    C89     1.413   .     A
C88    C90     1.412   .     A
C88    C719    1.402   .     S
C89    C91     1.412   .     A
C89    C718    1.402   1_554 S
C90    C99     1.402   .     A
C91    C93     1.402   .     A
C92    H118    1.084   .     S
C92    C723    1.395   .     S
C93    H120    1.084   .     S
C93    C722    1.395   1_554 S
C94    H119    1.084   .     S
C94    C729    1.395   1_554 S
C95    O126    1.394   .     S
C95    O140    1.223   .     D
C96    O128    1.398   .     S
C96    O127    1.220   .     D
C97    O129    1.223   .     D
C97    O130    1.395   .     S
C98    O131    1.221   .     D
C98    O132    1.398   .     S
C99    H121    1.084   .     S
C99    C724    1.395   .     S
C100   H122    1.081   .     S
C101   H108    1.082   .     S
C101   C104    1.401   .     A
C101   C173    1.384   .     S
C102   H109    1.082   .     S
C102   C104    1.400   .     A
C102   C170    1.382   .     S
C103   H110    1.082   .     S
Cu105  O134    1.965   .     S
Cu105  N123    2.043   .     S
Cu105  Cu106   2.719   .     S
Cu105  O138    1.957   .     S
Cu105  O136    1.953   .     S
Cu105  O125    1.965   .     S
Cu106  O133    1.965   .     S
Cu106  O137    1.953   .     S
Cu106  N124    2.043   .     S
Cu106  O139    1.957   .     S
Cu106  O135    1.965   .     S
H111   O126    1.014   .     S
H112   O128    1.012   .     S
H113   O130    1.014   .     S
H114   O132    1.014   .     S
C141   O205    1.304   .     A
C141   C142    1.453   .     S
C141   O195    1.304   .     A
C142   C173    1.401   .     A
C142   C170    1.401   .     A
C143   N194    1.378   .     A
C143   C165    1.473   .     S
C143   C566    1.429   1_545 S
C144   N193    1.378   .     A
C144   C166    1.475   .     S
C144   C355    1.429   .     S
C145   C167    1.478   .     S
C145   N194    1.375   .     A
C145   C564    1.429   1_545 S
C146   N193    1.375   .     A
C146   C168    1.477   .     S
C146   C353    1.429   .     S
C147   O209    1.305   .     A
C147   O206    1.301   .     A
C147   C153    1.447   .     S
C148   C151    1.446   .     S
C148   O208    1.306   .     A
C148   O207    1.299   .     A
C149   C151    1.396   .     A
C149   C160    1.394   .     A
C149   H177    1.083   .     S
C150   C161    1.394   .     A
C150   H185    1.083   .     S
C150   C153    1.397   .     A
C151   C154    1.398   .     A
C152   O204    1.303   .     A
C152   C174    1.452   .     S
C152   O203    1.304   .     A
C153   C155    1.398   .     A
C154   H186    1.085   .     S
C154   C156    1.395   .     A
C155   H187    1.085   .     S
C155   C157    1.395   .     A
C156   C158    1.413   .     A
C156   C162    1.402   .     A
C157   C164    1.402   .     A
C157   C159    1.413   .     A
C158   C160    1.412   .     A
C158   C789    1.402   .     S
C159   C161    1.412   .     A
C159   C788    1.402   1_554 S
C160   C169    1.402   .     A
C161   C163    1.402   .     A
C162   H188    1.084   .     S
C162   C793    1.395   .     S
C163   H190    1.084   .     S
C163   C792    1.395   1_554 S
C164   H189    1.084   .     S
C164   C799    1.395   1_554 S
C165   O196    1.394   .     S
C165   O210    1.223   .     D
C166   O198    1.398   .     S
C166   O197    1.220   .     D
C167   O199    1.223   .     D
C167   O200    1.395   .     S
C168   O201    1.221   .     D
C168   O202    1.398   .     S
C169   H191    1.084   .     S
C169   C794    1.395   .     S
C170   H192    1.081   .     S
C171   H178    1.082   .     S
C171   C174    1.401   .     A
C171   C33     1.384   1_655 S
C172   H179    1.082   .     S
C172   C174    1.400   .     A
C172   C30     1.382   1_655 S
C173   H180    1.082   .     S
Cu175  O204    1.965   .     S
Cu175  N193    2.043   .     S
Cu175  Cu176   2.719   .     S
Cu175  O208    1.957   .     S
Cu175  O206    1.953   .     S
Cu175  O195    1.965   .     S
Cu176  O203    1.965   .     S
Cu176  O207    1.953   .     S
Cu176  N194    2.043   .     S
Cu176  O209    1.957   .     S
Cu176  O205    1.965   .     S
H181   O196    1.014   .     S
H182   O198    1.012   .     S
H183   O200    1.014   .     S
H184   O202    1.014   .     S
C211   O275    1.304   .     A
C211   C212    1.453   .     S
C211   O265    1.304   .     A
C212   C243    1.401   .     A
C212   C240    1.401   .     A
C213   N264    1.378   .     A
C213   C235    1.473   .     S
C214   N263    1.378   .     A
C214   C236    1.475   .     S
C214   C425    1.429   .     S
C215   C237    1.478   .     S
C215   N264    1.375   .     A
C216   N263    1.375   .     A
C216   C238    1.477   .     S
C216   C423    1.429   .     S
C217   O279    1.305   .     A
C217   O276    1.301   .     A
C217   C223    1.447   .     S
C218   C221    1.446   .     S
C218   O278    1.306   .     A
C218   O277    1.299   .     A
C219   C221    1.396   .     A
C219   C230    1.394   .     A
C219   H247    1.083   .     S
C220   C231    1.394   .     A
C220   H255    1.083   .     S
C220   C223    1.397   .     A
C221   C224    1.398   .     A
C222   O274    1.303   .     A
C222   C244    1.452   .     S
C222   O273    1.304   .     A
C223   C225    1.398   .     A
C224   H256    1.085   .     S
C224   C226    1.395   .     A
C225   H257    1.085   .     S
C225   C227    1.395   .     A
C226   C228    1.413   .     A
C226   C232    1.402   .     A
C227   C234    1.402   .     A
C227   C229    1.413   .     A
C228   C230    1.412   .     A
C228   C859    1.402   .     S
C229   C231    1.412   .     A
C229   C858    1.402   1_554 S
C230   C239    1.402   .     A
C231   C233    1.402   .     A
C232   H258    1.084   .     S
C232   C863    1.395   .     S
C233   H260    1.084   .     S
C233   C862    1.395   1_554 S
C234   H259    1.084   .     S
C234   C869    1.395   1_554 S
C235   O266    1.394   .     S
C235   O280    1.223   .     D
C236   O268    1.398   .     S
C236   O267    1.220   .     D
C237   O269    1.223   .     D
C237   O270    1.395   .     S
C238   O271    1.221   .     D
C238   O272    1.398   .     S
C239   H261    1.084   .     S
C239   C864    1.395   .     S
C240   H262    1.081   .     S
C240   C382    1.382   1_455 S
C241   H248    1.082   .     S
C241   C244    1.401   .     A
C241   C313    1.384   .     S
C242   H249    1.082   .     S
C242   C244    1.400   .     A
C242   C310    1.382   .     S
C243   H250    1.082   .     S
C243   C381    1.384   1_455 S
Cu245  O274    1.965   .     S
Cu245  N263    2.043   .     S
Cu245  Cu246   2.719   .     S
Cu245  O278    1.957   .     S
Cu245  O276    1.953   .     S
Cu245  O265    1.965   .     S
Cu246  O273    1.965   .     S
Cu246  O277    1.953   .     S
Cu246  N264    2.043   .     S
Cu246  O279    1.957   .     S
Cu246  O275    1.965   .     S
H251   O266    1.014   .     S
H252   O268    1.012   .     S
H253   O270    1.014   .     S
H254   O272    1.014   .     S
C281   O345    1.304   .     A
C281   C282    1.453   .     S
C281   O335    1.304   .     A
C282   C313    1.401   .     A
C282   C310    1.401   .     A
C283   N334    1.378   .     A
C283   C305    1.473   .     S
C284   N333    1.378   .     A
C284   C306    1.475   .     S
C284   C495    1.429   .     S
C285   C307    1.478   .     S
C285   N334    1.375   .     A
C286   N333    1.375   .     A
C286   C308    1.477   .     S
C286   C493    1.429   .     S
C287   O349    1.305   .     A
C287   O346    1.301   .     A
C287   C293    1.447   .     S
C288   C291    1.446   .     S
C288   O348    1.306   .     A
C288   O347    1.299   .     A
C289   C291    1.396   .     A
C289   C300    1.394   .     A
C289   H317    1.083   .     S
C290   C301    1.394   .     A
C290   H325    1.083   .     S
C290   C293    1.397   .     A
C291   C294    1.398   .     A
C292   O344    1.303   .     A
C292   C314    1.452   .     S
C292   O343    1.304   .     A
C293   C295    1.398   .     A
C294   H326    1.085   .     S
C294   C296    1.395   .     A
C295   H327    1.085   .     S
C295   C297    1.395   .     A
C296   C298    1.413   .     A
C296   C302    1.402   .     A
C297   C304    1.402   .     A
C297   C299    1.413   .     A
C298   C300    1.412   .     A
C298   C929    1.402   .     S
C299   C301    1.412   .     A
C299   C928    1.402   1_554 S
C300   C309    1.402   .     A
C301   C303    1.402   .     A
C302   H328    1.084   .     S
C302   C933    1.395   .     S
C303   H330    1.084   .     S
C303   C932    1.395   1_554 S
C304   H329    1.084   .     S
C304   C939    1.395   1_554 S
C305   O336    1.394   .     S
C305   O350    1.223   .     D
C306   O338    1.398   .     S
C306   O337    1.220   .     D
C307   O339    1.223   .     D
C307   O340    1.395   .     S
C308   O341    1.221   .     D
C308   O342    1.398   .     S
C309   H331    1.084   .     S
C309   C934    1.395   .     S
C310   H332    1.081   .     S
C311   H318    1.082   .     S
C311   C314    1.401   .     A
C311   C383    1.384   .     S
C312   H319    1.082   .     S
C312   C314    1.400   .     A
C312   C380    1.382   .     S
C313   H320    1.082   .     S
Cu315  O344    1.965   .     S
Cu315  N333    2.043   .     S
Cu315  Cu316   2.719   .     S
Cu315  O348    1.957   .     S
Cu315  O346    1.953   .     S
Cu315  O335    1.965   .     S
Cu316  O343    1.965   .     S
Cu316  O347    1.953   .     S
Cu316  N334    2.043   .     S
Cu316  O349    1.957   .     S
Cu316  O345    1.965   .     S
H321   O336    1.014   .     S
H322   O338    1.012   .     S
H323   O340    1.014   .     S
H324   O342    1.014   .     S
C351   O415    1.304   .     A
C351   C352    1.453   .     S
C351   O405    1.304   .     A
C352   C383    1.401   .     A
C352   C380    1.401   .     A
C353   N404    1.378   .     A
C353   C375    1.473   .     S
C354   N403    1.378   .     A
C354   C376    1.475   .     S
C354   C565    1.429   .     S
C355   C377    1.478   .     S
C355   N404    1.375   .     A
C356   N403    1.375   .     A
C356   C378    1.477   .     S
C356   C563    1.429   .     S
C357   O419    1.305   .     A
C357   O416    1.301   .     A
C357   C363    1.447   .     S
C358   C361    1.446   .     S
C358   O418    1.306   .     A
C358   O417    1.299   .     A
C359   C361    1.396   .     A
C359   C370    1.394   .     A
C359   H387    1.083   .     S
C360   C371    1.394   .     A
C360   H395    1.083   .     S
C360   C363    1.397   .     A
C361   C364    1.398   .     A
C362   O414    1.303   .     A
C362   C384    1.452   .     S
C362   O413    1.304   .     A
C363   C365    1.398   .     A
C364   H396    1.085   .     S
C364   C366    1.395   .     A
C365   H397    1.085   .     S
C365   C367    1.395   .     A
C366   C368    1.413   .     A
C366   C372    1.402   .     A
C367   C374    1.402   .     A
C367   C369    1.413   .     A
C368   C370    1.412   .     A
C368   C999    1.402   .     S
C369   C371    1.412   .     A
C369   C998    1.402   1_554 S
C370   C379    1.402   .     A
C371   C373    1.402   .     A
C372   H398    1.084   .     S
C372   C1003   1.395   .     S
C373   H400    1.084   .     S
C373   C1002   1.395   1_554 S
C374   H399    1.084   .     S
C374   C1009   1.395   1_554 S
C375   O406    1.394   .     S
C375   O420    1.223   .     D
C376   O408    1.398   .     S
C376   O407    1.220   .     D
C377   O409    1.223   .     D
C377   O410    1.395   .     S
C378   O411    1.221   .     D
C378   O412    1.398   .     S
C379   H401    1.084   .     S
C379   C1004   1.395   .     S
C380   H402    1.081   .     S
C381   H388    1.082   .     S
C381   C384    1.401   .     A
C381   C243    1.384   1_655 S
C382   H389    1.082   .     S
C382   C384    1.400   .     A
C382   C240    1.382   1_655 S
C383   H390    1.082   .     S
Cu385  O414    1.965   .     S
Cu385  N403    2.043   .     S
Cu385  Cu386   2.719   .     S
Cu385  O418    1.957   .     S
Cu385  O416    1.953   .     S
Cu385  O405    1.965   .     S
Cu386  O413    1.965   .     S
Cu386  O417    1.953   .     S
Cu386  N404    2.043   .     S
Cu386  O419    1.957   .     S
Cu386  O415    1.965   .     S
H391   O406    1.014   .     S
H392   O408    1.012   .     S
H393   O410    1.014   .     S
H394   O412    1.014   .     S
C421   O485    1.304   .     A
C421   C422    1.453   .     S
C421   O475    1.304   .     A
C422   C453    1.401   .     A
C422   C450    1.401   .     A
C423   N474    1.378   .     A
C423   C445    1.473   .     S
C424   N473    1.378   .     A
C424   C446    1.475   .     S
C424   C5      1.429   1_565 S
C425   C447    1.478   .     S
C425   N474    1.375   .     A
C426   N473    1.375   .     A
C426   C448    1.477   .     S
C426   C3      1.429   1_565 S
C427   O489    1.305   .     A
C427   O486    1.301   .     A
C427   C433    1.447   .     S
C428   C431    1.446   .     S
C428   O488    1.306   .     A
C428   O487    1.299   .     A
C429   C431    1.396   .     A
C429   C440    1.394   .     A
C429   H457    1.083   .     S
C430   C441    1.394   .     A
C430   H465    1.083   .     S
C430   C433    1.397   .     A
C431   C434    1.398   .     A
C432   O484    1.303   .     A
C432   C454    1.452   .     S
C432   O483    1.304   .     A
C433   C435    1.398   .     A
C434   H466    1.085   .     S
C434   C436    1.395   .     A
C435   H467    1.085   .     S
C435   C437    1.395   .     A
C436   C438    1.413   .     A
C436   C442    1.402   .     A
C437   C444    1.402   .     A
C437   C439    1.413   .     A
C438   C440    1.412   .     A
C438   C1069   1.402   .     S
C439   C441    1.412   .     A
C439   C1068   1.402   1_554 S
C440   C449    1.402   .     A
C441   C443    1.402   .     A
C442   H468    1.084   .     S
C442   C1073   1.395   .     S
C443   H470    1.084   .     S
C443   C1072   1.395   1_554 S
C444   H469    1.084   .     S
C444   C1079   1.395   1_554 S
C445   O476    1.394   .     S
C445   O490    1.223   .     D
C446   O478    1.398   .     S
C446   O477    1.220   .     D
C447   O479    1.223   .     D
C447   O480    1.395   .     S
C448   O481    1.221   .     D
C448   O482    1.398   .     S
C449   H471    1.084   .     S
C449   C1074   1.395   .     S
C450   H472    1.081   .     S
C450   C592    1.382   1_455 S
C451   H458    1.082   .     S
C451   C454    1.401   .     A
C451   C523    1.384   .     S
C452   H459    1.082   .     S
C452   C454    1.400   .     A
C452   C520    1.382   .     S
C453   H460    1.082   .     S
C453   C591    1.384   1_455 S
Cu455  O484    1.965   .     S
Cu455  N473    2.043   .     S
Cu455  Cu456   2.719   .     S
Cu455  O488    1.957   .     S
Cu455  O486    1.953   .     S
Cu455  O475    1.965   .     S
Cu456  O483    1.965   .     S
Cu456  O487    1.953   .     S
Cu456  N474    2.043   .     S
Cu456  O489    1.957   .     S
Cu456  O485    1.965   .     S
H461   O476    1.014   .     S
H462   O478    1.012   .     S
H463   O480    1.014   .     S
H464   O482    1.014   .     S
C491   O555    1.304   .     A
C491   C492    1.453   .     S
C491   O545    1.304   .     A
C492   C523    1.401   .     A
C492   C520    1.401   .     A
C493   N544    1.378   .     A
C493   C515    1.473   .     S
C494   N543    1.378   .     A
C494   C516    1.475   .     S
C494   C75     1.429   1_565 S
C495   C517    1.478   .     S
C495   N544    1.375   .     A
C496   N543    1.375   .     A
C496   C518    1.477   .     S
C496   C73     1.429   1_565 S
C497   O559    1.305   .     A
C497   O556    1.301   .     A
C497   C503    1.447   .     S
C498   C501    1.446   .     S
C498   O558    1.306   .     A
C498   O557    1.299   .     A
C499   C501    1.396   .     A
C499   C510    1.394   .     A
C499   H527    1.083   .     S
C500   C511    1.394   .     A
C500   H535    1.083   .     S
C500   C503    1.397   .     A
C501   C504    1.398   .     A
C502   O554    1.303   .     A
C502   C524    1.452   .     S
C502   O553    1.304   .     A
C503   C505    1.398   .     A
C504   H536    1.085   .     S
C504   C506    1.395   .     A
C505   H537    1.085   .     S
C505   C507    1.395   .     A
C506   C508    1.413   .     A
C506   C512    1.402   .     A
C507   C514    1.402   .     A
C507   C509    1.413   .     A
C508   C510    1.412   .     A
C508   C1139   1.402   .     S
C509   C511    1.412   .     A
C509   C1138   1.402   1_554 S
C510   C519    1.402   .     A
C511   C513    1.402   .     A
C512   H538    1.084   .     S
C512   C1143   1.395   .     S
C513   H540    1.084   .     S
C513   C1142   1.395   1_554 S
C514   H539    1.084   .     S
C514   C1149   1.395   1_554 S
C515   O546    1.394   .     S
C515   O560    1.223   .     D
C516   O548    1.398   .     S
C516   O547    1.220   .     D
C517   O549    1.223   .     D
C517   O550    1.395   .     S
C518   O551    1.221   .     D
C518   O552    1.398   .     S
C519   H541    1.084   .     S
C519   C1144   1.395   .     S
C520   H542    1.081   .     S
C521   H528    1.082   .     S
C521   C524    1.401   .     A
C521   C593    1.384   .     S
C522   H529    1.082   .     S
C522   C524    1.400   .     A
C522   C590    1.382   .     S
C523   H530    1.082   .     S
Cu525  O554    1.965   .     S
Cu525  N543    2.043   .     S
Cu525  Cu526   2.719   .     S
Cu525  O558    1.957   .     S
Cu525  O556    1.953   .     S
Cu525  O545    1.965   .     S
Cu526  O553    1.965   .     S
Cu526  O557    1.953   .     S
Cu526  N544    2.043   .     S
Cu526  O559    1.957   .     S
Cu526  O555    1.965   .     S
H531   O546    1.014   .     S
H532   O548    1.012   .     S
H533   O550    1.014   .     S
H534   O552    1.014   .     S
C561   O625    1.304   .     A
C561   C562    1.453   .     S
C561   O615    1.304   .     A
C562   C593    1.401   .     A
C562   C590    1.401   .     A
C563   N614    1.378   .     A
C563   C585    1.473   .     S
C564   N613    1.378   .     A
C564   C586    1.475   .     S
C564   C145    1.429   1_565 S
C565   C587    1.478   .     S
C565   N614    1.375   .     A
C566   N613    1.375   .     A
C566   C588    1.477   .     S
C566   C143    1.429   1_565 S
C567   O629    1.305   .     A
C567   O626    1.301   .     A
C567   C573    1.447   .     S
C568   C571    1.446   .     S
C568   O628    1.306   .     A
C568   O627    1.299   .     A
C569   C571    1.396   .     A
C569   C580    1.394   .     A
C569   H597    1.083   .     S
C570   C581    1.394   .     A
C570   H605    1.083   .     S
C570   C573    1.397   .     A
C571   C574    1.398   .     A
C572   O624    1.303   .     A
C572   C594    1.452   .     S
C572   O623    1.304   .     A
C573   C575    1.398   .     A
C574   H606    1.085   .     S
C574   C576    1.395   .     A
C575   H607    1.085   .     S
C575   C577    1.395   .     A
C576   C578    1.413   .     A
C576   C582    1.402   .     A
C577   C584    1.402   .     A
C577   C579    1.413   .     A
C578   C580    1.412   .     A
C578   C1209   1.402   .     S
C579   C581    1.412   .     A
C579   C1208   1.402   1_554 S
C580   C589    1.402   .     A
C581   C583    1.402   .     A
C582   H608    1.084   .     S
C582   C1213   1.395   .     S
C583   H610    1.084   .     S
C583   C1212   1.395   1_554 S
C584   H609    1.084   .     S
C584   C1219   1.395   1_554 S
C585   O616    1.394   .     S
C585   O630    1.223   .     D
C586   O618    1.398   .     S
C586   O617    1.220   .     D
C587   O619    1.223   .     D
C587   O620    1.395   .     S
C588   O621    1.221   .     D
C588   O622    1.398   .     S
C589   H611    1.084   .     S
C589   C1214   1.395   .     S
C590   H612    1.081   .     S
C591   H598    1.082   .     S
C591   C594    1.401   .     A
C591   C453    1.384   1_655 S
C592   H599    1.082   .     S
C592   C594    1.400   .     A
C592   C450    1.382   1_655 S
C593   H600    1.082   .     S
Cu595  O624    1.965   .     S
Cu595  N613    2.043   .     S
Cu595  Cu596   2.719   .     S
Cu595  O628    1.957   .     S
Cu595  O626    1.953   .     S
Cu595  O615    1.965   .     S
Cu596  O623    1.965   .     S
Cu596  O627    1.953   .     S
Cu596  N614    2.043   .     S
Cu596  O629    1.957   .     S
Cu596  O625    1.965   .     S
H601   O616    1.014   .     S
H602   O618    1.012   .     S
H603   O620    1.014   .     S
H604   O622    1.014   .     S
C631   O695    1.304   .     A
C631   C632    1.453   .     S
C631   O685    1.304   .     A
C632   C663    1.401   .     A
C632   C660    1.401   .     A
C633   N684    1.378   .     A
C633   C655    1.473   .     S
C633   C1056   1.429   1_545 S
C634   N683    1.378   .     A
C634   C656    1.475   .     S
C634   C845    1.429   .     S
C635   C657    1.478   .     S
C635   N684    1.375   .     A
C635   C1054   1.429   1_545 S
C636   N683    1.375   .     A
C636   C658    1.477   .     S
C636   C843    1.429   .     S
C637   O699    1.305   .     A
C637   O696    1.301   .     A
C637   C643    1.447   .     S
C638   C641    1.446   .     S
C638   O698    1.306   .     A
C638   O697    1.299   .     A
C639   C641    1.396   .     A
C639   C650    1.394   .     A
C639   H667    1.083   .     S
C640   C651    1.394   .     A
C640   H675    1.083   .     S
C640   C643    1.397   .     A
C641   C644    1.398   .     A
C642   O694    1.303   .     A
C642   C664    1.452   .     S
C642   O693    1.304   .     A
C643   C645    1.398   .     A
C644   H676    1.085   .     S
C644   C646    1.395   .     A
C645   H677    1.085   .     S
C645   C647    1.395   .     A
C646   C648    1.413   .     A
C646   C652    1.402   .     A
C647   C654    1.402   .     A
C647   C649    1.413   .     A
C648   C650    1.412   .     A
C648   C19     1.402   1_556 S
C649   C651    1.412   .     A
C650   C659    1.402   .     A
C651   C653    1.402   .     A
C652   H678    1.084   .     S
C652   C23     1.395   1_556 S
C653   H680    1.084   .     S
C654   H679    1.084   .     S
C655   O686    1.394   .     S
C655   O700    1.223   .     D
C656   O688    1.398   .     S
C656   O687    1.220   .     D
C657   O689    1.223   .     D
C657   O690    1.395   .     S
C658   O691    1.221   .     D
C658   O692    1.398   .     S
C659   H681    1.084   .     S
C659   C24     1.395   1_556 S
C660   H682    1.081   .     S
C660   C802    1.382   1_455 S
C661   H668    1.082   .     S
C661   C664    1.401   .     A
C661   C733    1.384   .     S
C662   H669    1.082   .     S
C662   C664    1.400   .     A
C662   C730    1.382   .     S
C663   H670    1.082   .     S
C663   C801    1.384   1_455 S
Cu665  O694    1.965   .     S
Cu665  N683    2.043   .     S
Cu665  Cu666   2.719   .     S
Cu665  O698    1.957   .     S
Cu665  O696    1.953   .     S
Cu665  O685    1.965   .     S
Cu666  O693    1.965   .     S
Cu666  O697    1.953   .     S
Cu666  N684    2.043   .     S
Cu666  O699    1.957   .     S
Cu666  O695    1.965   .     S
H671   O686    1.014   .     S
H672   O688    1.012   .     S
H673   O690    1.014   .     S
H674   O692    1.014   .     S
C701   O765    1.304   .     A
C701   C702    1.453   .     S
C701   O755    1.304   .     A
C702   C733    1.401   .     A
C702   C730    1.401   .     A
C703   N754    1.378   .     A
C703   C725    1.473   .     S
C703   C1126   1.429   1_545 S
C704   N753    1.378   .     A
C704   C726    1.475   .     S
C704   C915    1.429   .     S
C705   C727    1.478   .     S
C705   N754    1.375   .     A
C705   C1124   1.429   1_545 S
C706   N753    1.375   .     A
C706   C728    1.477   .     S
C706   C913    1.429   .     S
C707   O769    1.305   .     A
C707   O766    1.301   .     A
C707   C713    1.447   .     S
C708   C711    1.446   .     S
C708   O768    1.306   .     A
C708   O767    1.299   .     A
C709   C711    1.396   .     A
C709   C720    1.394   .     A
C709   H737    1.083   .     S
C710   C721    1.394   .     A
C710   H745    1.083   .     S
C710   C713    1.397   .     A
C711   C714    1.398   .     A
C712   O764    1.303   .     A
C712   C734    1.452   .     S
C712   O763    1.304   .     A
C713   C715    1.398   .     A
C714   H746    1.085   .     S
C714   C716    1.395   .     A
C715   H747    1.085   .     S
C715   C717    1.395   .     A
C716   C718    1.413   .     A
C716   C722    1.402   .     A
C717   C724    1.402   .     A
C717   C719    1.413   .     A
C718   C720    1.412   .     A
C718   C89     1.402   1_556 S
C719   C721    1.412   .     A
C720   C729    1.402   .     A
C721   C723    1.402   .     A
C722   H748    1.084   .     S
C722   C93     1.395   1_556 S
C723   H750    1.084   .     S
C724   H749    1.084   .     S
C725   O756    1.394   .     S
C725   O770    1.223   .     D
C726   O758    1.398   .     S
C726   O757    1.220   .     D
C727   O759    1.223   .     D
C727   O760    1.395   .     S
C728   O761    1.221   .     D
C728   O762    1.398   .     S
C729   H751    1.084   .     S
C729   C94     1.395   1_556 S
C730   H752    1.081   .     S
C731   H738    1.082   .     S
C731   C734    1.401   .     A
C731   C803    1.384   .     S
C732   H739    1.082   .     S
C732   C734    1.400   .     A
C732   C800    1.382   .     S
C733   H740    1.082   .     S
Cu735  O764    1.965   .     S
Cu735  N753    2.043   .     S
Cu735  Cu736   2.719   .     S
Cu735  O768    1.957   .     S
Cu735  O766    1.953   .     S
Cu735  O755    1.965   .     S
Cu736  O763    1.965   .     S
Cu736  O767    1.953   .     S
Cu736  N754    2.043   .     S
Cu736  O769    1.957   .     S
Cu736  O765    1.965   .     S
H741   O756    1.014   .     S
H742   O758    1.012   .     S
H743   O760    1.014   .     S
H744   O762    1.014   .     S
C771   O835    1.304   .     A
C771   C772    1.453   .     S
C771   O825    1.304   .     A
C772   C803    1.401   .     A
C772   C800    1.401   .     A
C773   N824    1.378   .     A
C773   C795    1.473   .     S
C773   C1196   1.429   1_545 S
C774   N823    1.378   .     A
C774   C796    1.475   .     S
C774   C985    1.429   .     S
C775   C797    1.478   .     S
C775   N824    1.375   .     A
C775   C1194   1.429   1_545 S
C776   N823    1.375   .     A
C776   C798    1.477   .     S
C776   C983    1.429   .     S
C777   O839    1.305   .     A
C777   O836    1.301   .     A
C777   C783    1.447   .     S
C778   C781    1.446   .     S
C778   O838    1.306   .     A
C778   O837    1.299   .     A
C779   C781    1.396   .     A
C779   C790    1.394   .     A
C779   H807    1.083   .     S
C780   C791    1.394   .     A
C780   H815    1.083   .     S
C780   C783    1.397   .     A
C781   C784    1.398   .     A
C782   O834    1.303   .     A
C782   C804    1.452   .     S
C782   O833    1.304   .     A
C783   C785    1.398   .     A
C784   H816    1.085   .     S
C784   C786    1.395   .     A
C785   H817    1.085   .     S
C785   C787    1.395   .     A
C786   C788    1.413   .     A
C786   C792    1.402   .     A
C787   C794    1.402   .     A
C787   C789    1.413   .     A
C788   C790    1.412   .     A
C788   C159    1.402   1_556 S
C789   C791    1.412   .     A
C790   C799    1.402   .     A
C791   C793    1.402   .     A
C792   H818    1.084   .     S
C792   C163    1.395   1_556 S
C793   H820    1.084   .     S
C794   H819    1.084   .     S
C795   O826    1.394   .     S
C795   O840    1.223   .     D
C796   O828    1.398   .     S
C796   O827    1.220   .     D
C797   O829    1.223   .     D
C797   O830    1.395   .     S
C798   O831    1.221   .     D
C798   O832    1.398   .     S
C799   H821    1.084   .     S
C799   C164    1.395   1_556 S
C800   H822    1.081   .     S
C801   H808    1.082   .     S
C801   C804    1.401   .     A
C801   C663    1.384   1_655 S
C802   H809    1.082   .     S
C802   C804    1.400   .     A
C802   C660    1.382   1_655 S
C803   H810    1.082   .     S
Cu805  O834    1.965   .     S
Cu805  N823    2.043   .     S
Cu805  Cu806   2.719   .     S
Cu805  O838    1.957   .     S
Cu805  O836    1.953   .     S
Cu805  O825    1.965   .     S
Cu806  O833    1.965   .     S
Cu806  O837    1.953   .     S
Cu806  N824    2.043   .     S
Cu806  O839    1.957   .     S
Cu806  O835    1.965   .     S
H811   O826    1.014   .     S
H812   O828    1.012   .     S
H813   O830    1.014   .     S
H814   O832    1.014   .     S
C841   O905    1.304   .     A
C841   C842    1.453   .     S
C841   O895    1.304   .     A
C842   C873    1.401   .     A
C842   C870    1.401   .     A
C843   N894    1.378   .     A
C843   C865    1.473   .     S
C844   N893    1.378   .     A
C844   C866    1.475   .     S
C844   C1055   1.429   .     S
C845   C867    1.478   .     S
C845   N894    1.375   .     A
C846   N893    1.375   .     A
C846   C868    1.477   .     S
C846   C1053   1.429   .     S
C847   O909    1.305   .     A
C847   O906    1.301   .     A
C847   C853    1.447   .     S
C848   C851    1.446   .     S
C848   O908    1.306   .     A
C848   O907    1.299   .     A
C849   C851    1.396   .     A
C849   C860    1.394   .     A
C849   H877    1.083   .     S
C850   C861    1.394   .     A
C850   H885    1.083   .     S
C850   C853    1.397   .     A
C851   C854    1.398   .     A
C852   O904    1.303   .     A
C852   C874    1.452   .     S
C852   O903    1.304   .     A
C853   C855    1.398   .     A
C854   H886    1.085   .     S
C854   C856    1.395   .     A
C855   H887    1.085   .     S
C855   C857    1.395   .     A
C856   C858    1.413   .     A
C856   C862    1.402   .     A
C857   C864    1.402   .     A
C857   C859    1.413   .     A
C858   C860    1.412   .     A
C858   C229    1.402   1_556 S
C859   C861    1.412   .     A
C860   C869    1.402   .     A
C861   C863    1.402   .     A
C862   H888    1.084   .     S
C862   C233    1.395   1_556 S
C863   H890    1.084   .     S
C864   H889    1.084   .     S
C865   O896    1.394   .     S
C865   O910    1.223   .     D
C866   O898    1.398   .     S
C866   O897    1.220   .     D
C867   O899    1.223   .     D
C867   O900    1.395   .     S
C868   O901    1.221   .     D
C868   O902    1.398   .     S
C869   H891    1.084   .     S
C869   C234    1.395   1_556 S
C870   H892    1.081   .     S
C870   C1012   1.382   1_455 S
C871   H878    1.082   .     S
C871   C874    1.401   .     A
C871   C943    1.384   .     S
C872   H879    1.082   .     S
C872   C874    1.400   .     A
C872   C940    1.382   .     S
C873   H880    1.082   .     S
C873   C1011   1.384   1_455 S
Cu875  O904    1.965   .     S
Cu875  N893    2.043   .     S
Cu875  Cu876   2.719   .     S
Cu875  O908    1.957   .     S
Cu875  O906    1.953   .     S
Cu875  O895    1.965   .     S
Cu876  O903    1.965   .     S
Cu876  O907    1.953   .     S
Cu876  N894    2.043   .     S
Cu876  O909    1.957   .     S
Cu876  O905    1.965   .     S
H881   O896    1.014   .     S
H882   O898    1.012   .     S
H883   O900    1.014   .     S
H884   O902    1.014   .     S
C911   O975    1.304   .     A
C911   C912    1.453   .     S
C911   O965    1.304   .     A
C912   C943    1.401   .     A
C912   C940    1.401   .     A
C913   N964    1.378   .     A
C913   C935    1.473   .     S
C914   N963    1.378   .     A
C914   C936    1.475   .     S
C914   C1125   1.429   .     S
C915   C937    1.478   .     S
C915   N964    1.375   .     A
C916   N963    1.375   .     A
C916   C938    1.477   .     S
C916   C1123   1.429   .     S
C917   O979    1.305   .     A
C917   O976    1.301   .     A
C917   C923    1.447   .     S
C918   C921    1.446   .     S
C918   O978    1.306   .     A
C918   O977    1.299   .     A
C919   C921    1.396   .     A
C919   C930    1.394   .     A
C919   H947    1.083   .     S
C920   C931    1.394   .     A
C920   H955    1.083   .     S
C920   C923    1.397   .     A
C921   C924    1.398   .     A
C922   O974    1.303   .     A
C922   C944    1.452   .     S
C922   O973    1.304   .     A
C923   C925    1.398   .     A
C924   H956    1.085   .     S
C924   C926    1.395   .     A
C925   H957    1.085   .     S
C925   C927    1.395   .     A
C926   C928    1.413   .     A
C926   C932    1.402   .     A
C927   C934    1.402   .     A
C927   C929    1.413   .     A
C928   C930    1.412   .     A
C928   C299    1.402   1_556 S
C929   C931    1.412   .     A
C930   C939    1.402   .     A
C931   C933    1.402   .     A
C932   H958    1.084   .     S
C932   C303    1.395   1_556 S
C933   H960    1.084   .     S
C934   H959    1.084   .     S
C935   O966    1.394   .     S
C935   O980    1.223   .     D
C936   O968    1.398   .     S
C936   O967    1.220   .     D
C937   O969    1.223   .     D
C937   O970    1.395   .     S
C938   O971    1.221   .     D
C938   O972    1.398   .     S
C939   H961    1.084   .     S
C939   C304    1.395   1_556 S
C940   H962    1.081   .     S
C941   H948    1.082   .     S
C941   C944    1.401   .     A
C941   C1013   1.384   .     S
C942   H949    1.082   .     S
C942   C944    1.400   .     A
C942   C1010   1.382   .     S
C943   H950    1.082   .     S
Cu945  O974    1.965   .     S
Cu945  N963    2.043   .     S
Cu945  Cu946   2.719   .     S
Cu945  O978    1.957   .     S
Cu945  O976    1.953   .     S
Cu945  O965    1.965   .     S
Cu946  O973    1.965   .     S
Cu946  O977    1.953   .     S
Cu946  N964    2.043   .     S
Cu946  O979    1.957   .     S
Cu946  O975    1.965   .     S
H951   O966    1.014   .     S
H952   O968    1.012   .     S
H953   O970    1.014   .     S
H954   O972    1.014   .     S
C981   O1045   1.304   .     A
C981   C982    1.453   .     S
C981   O1035   1.304   .     A
C982   C1013   1.401   .     A
C982   C1010   1.401   .     A
C983   N1034   1.378   .     A
C983   C1005   1.473   .     S
C984   N1033   1.378   .     A
C984   C1006   1.475   .     S
C984   C1195   1.429   .     S
C985   C1007   1.478   .     S
C985   N1034   1.375   .     A
C986   N1033   1.375   .     A
C986   C1008   1.477   .     S
C986   C1193   1.429   .     S
C987   O1049   1.305   .     A
C987   O1046   1.301   .     A
C987   C993    1.447   .     S
C988   C991    1.446   .     S
C988   O1048   1.306   .     A
C988   O1047   1.299   .     A
C989   C991    1.396   .     A
C989   C1000   1.394   .     A
C989   H1017   1.083   .     S
C990   C1001   1.394   .     A
C990   H1025   1.083   .     S
C990   C993    1.397   .     A
C991   C994    1.398   .     A
C992   O1044   1.303   .     A
C992   C1014   1.452   .     S
C992   O1043   1.304   .     A
C993   C995    1.398   .     A
C994   H1026   1.085   .     S
C994   C996    1.395   .     A
C995   H1027   1.085   .     S
C995   C997    1.395   .     A
C996   C998    1.413   .     A
C996   C1002   1.402   .     A
C997   C1004   1.402   .     A
C997   C999    1.413   .     A
C998   C1000   1.412   .     A
C998   C369    1.402   1_556 S
C999   C1001   1.412   .     A
C1000  C1009   1.402   .     A
C1001  C1003   1.402   .     A
C1002  H1028   1.084   .     S
C1002  C373    1.395   1_556 S
C1003  H1030   1.084   .     S
C1004  H1029   1.084   .     S
C1005  O1036   1.394   .     S
C1005  O1050   1.223   .     D
C1006  O1038   1.398   .     S
C1006  O1037   1.220   .     D
C1007  O1039   1.223   .     D
C1007  O1040   1.395   .     S
C1008  O1041   1.221   .     D
C1008  O1042   1.398   .     S
C1009  H1031   1.084   .     S
C1009  C374    1.395   1_556 S
C1010  H1032   1.081   .     S
C1011  H1018   1.082   .     S
C1011  C1014   1.401   .     A
C1011  C873    1.384   1_655 S
C1012  H1019   1.082   .     S
C1012  C1014   1.400   .     A
C1012  C870    1.382   1_655 S
C1013  H1020   1.082   .     S
Cu1015 O1044   1.965   .     S
Cu1015 N1033   2.043   .     S
Cu1015 Cu1016  2.719   .     S
Cu1015 O1048   1.957   .     S
Cu1015 O1046   1.953   .     S
Cu1015 O1035   1.965   .     S
Cu1016 O1043   1.965   .     S
Cu1016 O1047   1.953   .     S
Cu1016 N1034   2.043   .     S
Cu1016 O1049   1.957   .     S
Cu1016 O1045   1.965   .     S
H1021  O1036   1.014   .     S
H1022  O1038   1.012   .     S
H1023  O1040   1.014   .     S
H1024  O1042   1.014   .     S
C1051  O1115   1.304   .     A
C1051  C1052   1.453   .     S
C1051  O1105   1.304   .     A
C1052  C1083   1.401   .     A
C1052  C1080   1.401   .     A
C1053  N1104   1.378   .     A
C1053  C1075   1.473   .     S
C1054  N1103   1.378   .     A
C1054  C1076   1.475   .     S
C1054  C635    1.429   1_565 S
C1055  C1077   1.478   .     S
C1055  N1104   1.375   .     A
C1056  N1103   1.375   .     A
C1056  C1078   1.477   .     S
C1056  C633    1.429   1_565 S
C1057  O1119   1.305   .     A
C1057  O1116   1.301   .     A
C1057  C1063   1.447   .     S
C1058  C1061   1.446   .     S
C1058  O1118   1.306   .     A
C1058  O1117   1.299   .     A
C1059  C1061   1.396   .     A
C1059  C1070   1.394   .     A
C1059  H1087   1.083   .     S
C1060  C1071   1.394   .     A
C1060  H1095   1.083   .     S
C1060  C1063   1.397   .     A
C1061  C1064   1.398   .     A
C1062  O1114   1.303   .     A
C1062  C1084   1.452   .     S
C1062  O1113   1.304   .     A
C1063  C1065   1.398   .     A
C1064  H1096   1.085   .     S
C1064  C1066   1.395   .     A
C1065  H1097   1.085   .     S
C1065  C1067   1.395   .     A
C1066  C1068   1.413   .     A
C1066  C1072   1.402   .     A
C1067  C1074   1.402   .     A
C1067  C1069   1.413   .     A
C1068  C1070   1.412   .     A
C1068  C439    1.402   1_556 S
C1069  C1071   1.412   .     A
C1070  C1079   1.402   .     A
C1071  C1073   1.402   .     A
C1072  H1098   1.084   .     S
C1072  C443    1.395   1_556 S
C1073  H1100   1.084   .     S
C1074  H1099   1.084   .     S
C1075  O1106   1.394   .     S
C1075  O1120   1.223   .     D
C1076  O1108   1.398   .     S
C1076  O1107   1.220   .     D
C1077  O1109   1.223   .     D
C1077  O1110   1.395   .     S
C1078  O1111   1.221   .     D
C1078  O1112   1.398   .     S
C1079  H1101   1.084   .     S
C1079  C444    1.395   1_556 S
C1080  H1102   1.081   .     S
C1080  C1222   1.382   1_455 S
C1081  H1088   1.082   .     S
C1081  C1084   1.401   .     A
C1081  C1153   1.384   .     S
C1082  H1089   1.082   .     S
C1082  C1084   1.400   .     A
C1082  C1150   1.382   .     S
C1083  H1090   1.082   .     S
C1083  C1221   1.384   1_455 S
Cu1085 O1114   1.965   .     S
Cu1085 N1103   2.043   .     S
Cu1085 Cu1086  2.719   .     S
Cu1085 O1118   1.957   .     S
Cu1085 O1116   1.953   .     S
Cu1085 O1105   1.965   .     S
Cu1086 O1113   1.965   .     S
Cu1086 O1117   1.953   .     S
Cu1086 N1104   2.043   .     S
Cu1086 O1119   1.957   .     S
Cu1086 O1115   1.965   .     S
H1091  O1106   1.014   .     S
H1092  O1108   1.012   .     S
H1093  O1110   1.014   .     S
H1094  O1112   1.014   .     S
C1121  O1185   1.304   .     A
C1121  C1122   1.453   .     S
C1121  O1175   1.304   .     A
C1122  C1153   1.401   .     A
C1122  C1150   1.401   .     A
C1123  N1174   1.378   .     A
C1123  C1145   1.473   .     S
C1124  N1173   1.378   .     A
C1124  C1146   1.475   .     S
C1124  C705    1.429   1_565 S
C1125  C1147   1.478   .     S
C1125  N1174   1.375   .     A
C1126  N1173   1.375   .     A
C1126  C1148   1.477   .     S
C1126  C703    1.429   1_565 S
C1127  O1189   1.305   .     A
C1127  O1186   1.301   .     A
C1127  C1133   1.447   .     S
C1128  C1131   1.446   .     S
C1128  O1188   1.306   .     A
C1128  O1187   1.299   .     A
C1129  C1131   1.396   .     A
C1129  C1140   1.394   .     A
C1129  H1157   1.083   .     S
C1130  C1141   1.394   .     A
C1130  H1165   1.083   .     S
C1130  C1133   1.397   .     A
C1131  C1134   1.398   .     A
C1132  O1184   1.303   .     A
C1132  C1154   1.452   .     S
C1132  O1183   1.304   .     A
C1133  C1135   1.398   .     A
C1134  H1166   1.085   .     S
C1134  C1136   1.395   .     A
C1135  H1167   1.085   .     S
C1135  C1137   1.395   .     A
C1136  C1138   1.413   .     A
C1136  C1142   1.402   .     A
C1137  C1144   1.402   .     A
C1137  C1139   1.413   .     A
C1138  C1140   1.412   .     A
C1138  C509    1.402   1_556 S
C1139  C1141   1.412   .     A
C1140  C1149   1.402   .     A
C1141  C1143   1.402   .     A
C1142  H1168   1.084   .     S
C1142  C513    1.395   1_556 S
C1143  H1170   1.084   .     S
C1144  H1169   1.084   .     S
C1145  O1176   1.394   .     S
C1145  O1190   1.223   .     D
C1146  O1178   1.398   .     S
C1146  O1177   1.220   .     D
C1147  O1179   1.223   .     D
C1147  O1180   1.395   .     S
C1148  O1181   1.221   .     D
C1148  O1182   1.398   .     S
C1149  H1171   1.084   .     S
C1149  C514    1.395   1_556 S
C1150  H1172   1.081   .     S
C1151  H1158   1.082   .     S
C1151  C1154   1.401   .     A
C1151  C1223   1.384   .     S
C1152  H1159   1.082   .     S
C1152  C1154   1.400   .     A
C1152  C1220   1.382   .     S
C1153  H1160   1.082   .     S
Cu1155 O1184   1.965   .     S
Cu1155 N1173   2.043   .     S
Cu1155 Cu1156  2.719   .     S
Cu1155 O1188   1.957   .     S
Cu1155 O1186   1.953   .     S
Cu1155 O1175   1.965   .     S
Cu1156 O1183   1.965   .     S
Cu1156 O1187   1.953   .     S
Cu1156 N1174   2.043   .     S
Cu1156 O1189   1.957   .     S
Cu1156 O1185   1.965   .     S
H1161  O1176   1.014   .     S
H1162  O1178   1.012   .     S
H1163  O1180   1.014   .     S
H1164  O1182   1.014   .     S
C1191  O1255   1.304   .     A
C1191  C1192   1.453   .     S
C1191  O1245   1.304   .     A
C1192  C1223   1.401   .     A
C1192  C1220   1.401   .     A
C1193  N1244   1.378   .     A
C1193  C1215   1.473   .     S
C1194  N1243   1.378   .     A
C1194  C1216   1.475   .     S
C1194  C775    1.429   1_565 S
C1195  C1217   1.478   .     S
C1195  N1244   1.375   .     A
C1196  N1243   1.375   .     A
C1196  C1218   1.477   .     S
C1196  C773    1.429   1_565 S
C1197  O1259   1.305   .     A
C1197  O1256   1.301   .     A
C1197  C1203   1.447   .     S
C1198  C1201   1.446   .     S
C1198  O1258   1.306   .     A
C1198  O1257   1.299   .     A
C1199  C1201   1.396   .     A
C1199  C1210   1.394   .     A
C1199  H1227   1.083   .     S
C1200  C1211   1.394   .     A
C1200  H1235   1.083   .     S
C1200  C1203   1.397   .     A
C1201  C1204   1.398   .     A
C1202  O1254   1.303   .     A
C1202  C1224   1.452   .     S
C1202  O1253   1.304   .     A
C1203  C1205   1.398   .     A
C1204  H1236   1.085   .     S
C1204  C1206   1.395   .     A
C1205  H1237   1.085   .     S
C1205  C1207   1.395   .     A
C1206  C1208   1.413   .     A
C1206  C1212   1.402   .     A
C1207  C1214   1.402   .     A
C1207  C1209   1.413   .     A
C1208  C1210   1.412   .     A
C1208  C579    1.402   1_556 S
C1209  C1211   1.412   .     A
C1210  C1219   1.402   .     A
C1211  C1213   1.402   .     A
C1212  H1238   1.084   .     S
C1212  C583    1.395   1_556 S
C1213  H1240   1.084   .     S
C1214  H1239   1.084   .     S
C1215  O1246   1.394   .     S
C1215  O1260   1.223   .     D
C1216  O1248   1.398   .     S
C1216  O1247   1.220   .     D
C1217  O1249   1.223   .     D
C1217  O1250   1.395   .     S
C1218  O1251   1.221   .     D
C1218  O1252   1.398   .     S
C1219  H1241   1.084   .     S
C1219  C584    1.395   1_556 S
C1220  H1242   1.081   .     S
C1221  H1228   1.082   .     S
C1221  C1224   1.401   .     A
C1221  C1083   1.384   1_655 S
C1222  H1229   1.082   .     S
C1222  C1224   1.400   .     A
C1222  C1080   1.382   1_655 S
C1223  H1230   1.082   .     S
Cu1225 O1254   1.965   .     S
Cu1225 N1243   2.043   .     S
Cu1225 Cu1226  2.719   .     S
Cu1225 O1258   1.957   .     S
Cu1225 O1256   1.953   .     S
Cu1225 O1245   1.965   .     S
Cu1226 O1253   1.965   .     S
Cu1226 O1257   1.953   .     S
Cu1226 N1244   2.043   .     S
Cu1226 O1259   1.957   .     S
Cu1226 O1255   1.965   .     S
H1231  O1246   1.014   .     S
H1232  O1248   1.012   .     S
H1233  O1250   1.014   .     S
H1234  O1252   1.014   .     S
