data_str_m2_o2_o10_pcu_sym.215
_audit_creation_date              2020-01-03
_audit_creation_method            'Materials Studio'
_symmetry_space_group_name_H-M    'P1'
_symmetry_Int_Tables_number       1
_symmetry_cell_setting            triclinic
loop_
_symmetry_equiv_pos_as_xyz
  x,y,z
_cell_length_a                    26.3192
_cell_length_b                    30.1560
_cell_length_c                    27.9928
_cell_angle_alpha                 89.8475
_cell_angle_beta                  97.4928
_cell_angle_gamma                 91.9957
loop_
_atom_site_label
_atom_site_type_symbol
_atom_site_fract_x
_atom_site_fract_y
_atom_site_fract_z
_atom_site_U_iso_or_equiv
_atom_site_adp_type
_atom_site_occupancy
C1     C     0.16626   0.16515   0.24995   0.00000  Uiso   1.00
C2     C     0.16674   0.33490   0.24988   0.00000  Uiso   1.00
C3     C     0.20863   0.27030   0.05971   0.00000  Uiso   1.00
C4     C     0.15092   0.21398   0.44574   0.00000  Uiso   1.00
C5     C     0.20553   0.27202   0.10987   0.00000  Uiso   1.00
C6     C     0.14646   0.21496   0.39495   0.00000  Uiso   1.00
C7     C     0.12618   0.23162   0.09873   0.00000  Uiso   1.00
C8     C     0.18635   0.28646   0.39762   0.00000  Uiso   1.00
C9     C     0.12265   0.23742   0.04849   0.00000  Uiso   1.00
C10    C     0.18085   0.29052   0.44690   0.00000  Uiso   1.00
C11    C     0.16581   0.25390   0.02749   0.00000  Uiso   1.00
C12    C     0.16603   0.25291   0.47298   0.00000  Uiso   1.00
C13    C     0.06820   0.24887   0.23796   0.00000  Uiso   1.00
C14    C     0.26512   0.25047   0.26210   0.00000  Uiso   1.00
C15    C     0.01330   0.24230   0.23263   0.00000  Uiso   1.00
C16    C     0.32008   0.25616   0.26780   0.00000  Uiso   1.00
C17    C     0.12296   0.04589   0.26357   0.00000  Uiso   1.00
C18    C     0.12684   0.45057   0.21514   0.00000  Uiso   1.00
C19    C     0.12436   0.09285   0.26590   0.00000  Uiso   1.00
C20    C     0.12708   0.40382   0.21774   0.00000  Uiso   1.00
C21    C     0.16554   0.11688   0.24961   0.00000  Uiso   1.00
C22    C     0.16555   0.38321   0.24893   0.00000  Uiso   1.00
C23    C     0.20600   0.09495   0.23290   0.00000  Uiso   1.00
C24    C     0.20367   0.40859   0.27741   0.00000  Uiso   1.00
C25    C     0.20539   0.04877   0.23259   0.00000  Uiso   1.00
C26    C     0.20257   0.45467   0.27576   0.00000  Uiso   1.00
C27    C     0.16418   0.02438   0.24750   0.00000  Uiso   1.00
C28    C     0.16437   0.47581   0.24555   0.00000  Uiso   1.00
Cu29   Cu    0.16667   0.24999   0.29822   0.00000  Uiso   1.00
Cu30   Cu    0.16667   0.25000   0.20179   0.00000  Uiso   1.00
H31    H     0.23682   0.03181   0.22004   0.00000  Uiso   1.00
H32    H     0.23165   0.47415   0.29839   0.00000  Uiso   1.00
N33    N     0.16667   0.25001   0.12935   0.00000  Uiso   1.00
N34    N     0.16667   0.24999   0.37065   0.00000  Uiso   1.00
O35    O     0.16667   0.18572   0.29071   0.00000  Uiso   1.00
O36    O     0.16666   0.31427   0.20929   0.00000  Uiso   1.00
O37    O     0.16667   0.18573   0.20928   0.00000  Uiso   1.00
O38    O     0.16666   0.31427   0.29072   0.00000  Uiso   1.00
O39    O     0.09161   0.24999   0.28132   0.00000  Uiso   1.00
O40    O     0.24172   0.25000   0.21868   0.00000  Uiso   1.00
O41    O     0.09161   0.25000   0.19989   0.00000  Uiso   1.00
O42    O     0.24172   0.25000   0.30011   0.00000  Uiso   1.00
N43    N     0.32247   0.21624   0.19241   0.00000  Uiso   1.00
H44    H     0.00491   0.18484   0.19484   0.00000  Uiso   1.00
H45    H     0.33177   0.23083   0.16066   0.00000  Uiso   1.00
N46    N     0.01127   0.28016   0.30942   0.00000  Uiso   1.00
H47    H     0.32783   0.31104   0.31023   0.00000  Uiso   1.00
H48    H     0.00410   0.26263   0.34026   0.00000  Uiso   1.00
O49    O     0.08217   0.02023   0.27595   0.00000  Uiso   1.00
H50    H     0.05053   0.03723   0.26926   0.00000  Uiso   1.00
O51    O     0.09013   0.47009   0.18263   0.00000  Uiso   1.00
H52    H     0.09989   0.00161   0.17793   0.00000  Uiso   1.00
O53    O     0.08612   0.11612   0.28290   0.00000  Uiso   1.00
H54    H     0.07099   0.09778   0.30719   0.00000  Uiso   1.00
O55    O     0.09046   0.37715   0.19041   0.00000  Uiso   1.00
H56    H     0.06509   0.39565   0.17112   0.00000  Uiso   1.00
N57    N     0.24829   0.11970   0.21726   0.00000  Uiso   1.00
H58    H     0.25099   0.11061   0.18168   0.00000  Uiso   1.00
H59    H     0.28188   0.11043   0.23854   0.00000  Uiso   1.00
N60    N     0.24448   0.38760   0.30695   0.00000  Uiso   1.00
H61    H     0.24502   0.39891   0.34229   0.00000  Uiso   1.00
H62    H     0.27907   0.39807   0.29523   0.00000  Uiso   1.00
O63    O     0.25377   0.28548   0.04409   0.00000  Uiso   1.00
H64    H     0.25731   0.27092   0.01313   0.00000  Uiso   1.00
O65    O     0.13910   0.17419   0.46702   0.00000  Uiso   1.00
H66    H     0.15810   0.17322   0.49992   0.00000  Uiso   1.00
N67    N     0.24279   0.29818   0.14041   0.00000  Uiso   1.00
H68    H     0.27932   0.28806   0.13566   0.00000  Uiso   1.00
H69    H     0.23998   0.33118   0.12910   0.00000  Uiso   1.00
N70    N     0.11995   0.17790   0.37023   0.00000  Uiso   1.00
H71    H     0.09658   0.18845   0.33968   0.00000  Uiso   1.00
H72    H     0.14648   0.15486   0.36258   0.00000  Uiso   1.00
O73    O     0.08654   0.20829   0.11573   0.00000  Uiso   1.00
H74    H     0.10114   0.19196   0.14451   0.00000  Uiso   1.00
O75    O     0.21212   0.32067   0.37783   0.00000  Uiso   1.00
H76    H     0.23408   0.30713   0.35629   0.00000  Uiso   1.00
O77    O     0.07675   0.22498   0.02132   0.00000  Uiso   1.00
H78    H     0.07391   0.24104   0.49025   0.00000  Uiso   1.00
O79    O     0.19249   0.33150   0.46826   0.00000  Uiso   1.00
H80    H     0.17525   0.33340   0.49752   0.00000  Uiso   1.00
C81    C     0.49959   0.16515   0.24995   0.00000  Uiso   1.00
C82    C     0.50007   0.33490   0.24988   0.00000  Uiso   1.00
C83    C     0.54197   0.27030   0.05971   0.00000  Uiso   1.00
C84    C     0.48425   0.21398   0.44574   0.00000  Uiso   1.00
C85    C     0.53887   0.27202   0.10987   0.00000  Uiso   1.00
C86    C     0.47979   0.21496   0.39495   0.00000  Uiso   1.00
C87    C     0.45952   0.23162   0.09873   0.00000  Uiso   1.00
C88    C     0.51969   0.28646   0.39762   0.00000  Uiso   1.00
C89    C     0.45598   0.23742   0.04849   0.00000  Uiso   1.00
C90    C     0.51418   0.29052   0.44690   0.00000  Uiso   1.00
C91    C     0.49914   0.25390   0.02749   0.00000  Uiso   1.00
C92    C     0.49937   0.25291   0.47298   0.00000  Uiso   1.00
C93    C     0.40154   0.24887   0.23796   0.00000  Uiso   1.00
C94    C     0.59846   0.25047   0.26210   0.00000  Uiso   1.00
C95    C     0.34664   0.24230   0.23263   0.00000  Uiso   1.00
C96    C     0.65342   0.25616   0.26780   0.00000  Uiso   1.00
C97    C     0.45630   0.04589   0.26357   0.00000  Uiso   1.00
C98    C     0.46017   0.45057   0.21514   0.00000  Uiso   1.00
C99    C     0.45769   0.09285   0.26590   0.00000  Uiso   1.00
C100   C     0.46042   0.40382   0.21774   0.00000  Uiso   1.00
C101   C     0.49888   0.11688   0.24961   0.00000  Uiso   1.00
C102   C     0.49888   0.38321   0.24893   0.00000  Uiso   1.00
C103   C     0.53934   0.09495   0.23290   0.00000  Uiso   1.00
C104   C     0.53700   0.40859   0.27741   0.00000  Uiso   1.00
C105   C     0.53873   0.04877   0.23259   0.00000  Uiso   1.00
C106   C     0.53591   0.45467   0.27576   0.00000  Uiso   1.00
C107   C     0.49751   0.02438   0.24750   0.00000  Uiso   1.00
C108   C     0.49771   0.47581   0.24555   0.00000  Uiso   1.00
Cu109  Cu    0.50000   0.24999   0.29822   0.00000  Uiso   1.00
Cu110  Cu    0.50000   0.25000   0.20179   0.00000  Uiso   1.00
H111   H     0.57016   0.03181   0.22004   0.00000  Uiso   1.00
H112   H     0.56498   0.47415   0.29839   0.00000  Uiso   1.00
N113   N     0.50000   0.25001   0.12935   0.00000  Uiso   1.00
N114   N     0.50000   0.24999   0.37065   0.00000  Uiso   1.00
O115   O     0.50000   0.18572   0.29071   0.00000  Uiso   1.00
O116   O     0.50000   0.31427   0.20929   0.00000  Uiso   1.00
O117   O     0.50000   0.18573   0.20928   0.00000  Uiso   1.00
O118   O     0.50000   0.31427   0.29072   0.00000  Uiso   1.00
O119   O     0.42495   0.24999   0.28132   0.00000  Uiso   1.00
O120   O     0.57505   0.25000   0.21868   0.00000  Uiso   1.00
O121   O     0.42495   0.25000   0.19989   0.00000  Uiso   1.00
O122   O     0.57505   0.25000   0.30011   0.00000  Uiso   1.00
N123   N     0.65580   0.21624   0.19241   0.00000  Uiso   1.00
H124   H     0.33825   0.18484   0.19484   0.00000  Uiso   1.00
H125   H     0.66510   0.23083   0.16066   0.00000  Uiso   1.00
N126   N     0.34460   0.28016   0.30942   0.00000  Uiso   1.00
H127   H     0.66116   0.31104   0.31023   0.00000  Uiso   1.00
H128   H     0.33744   0.26263   0.34026   0.00000  Uiso   1.00
O129   O     0.41551   0.02023   0.27595   0.00000  Uiso   1.00
H130   H     0.38387   0.03723   0.26926   0.00000  Uiso   1.00
O131   O     0.42346   0.47009   0.18263   0.00000  Uiso   1.00
H132   H     0.43322   0.00161   0.17793   0.00000  Uiso   1.00
O133   O     0.41945   0.11612   0.28290   0.00000  Uiso   1.00
H134   H     0.40432   0.09778   0.30719   0.00000  Uiso   1.00
O135   O     0.42379   0.37715   0.19041   0.00000  Uiso   1.00
H136   H     0.39842   0.39565   0.17112   0.00000  Uiso   1.00
N137   N     0.58162   0.11970   0.21726   0.00000  Uiso   1.00
H138   H     0.58432   0.11061   0.18168   0.00000  Uiso   1.00
H139   H     0.61522   0.11043   0.23854   0.00000  Uiso   1.00
N140   N     0.57782   0.38760   0.30695   0.00000  Uiso   1.00
H141   H     0.57835   0.39891   0.34229   0.00000  Uiso   1.00
H142   H     0.61241   0.39807   0.29523   0.00000  Uiso   1.00
O143   O     0.58710   0.28548   0.04409   0.00000  Uiso   1.00
H144   H     0.59064   0.27092   0.01313   0.00000  Uiso   1.00
O145   O     0.47244   0.17419   0.46702   0.00000  Uiso   1.00
H146   H     0.49144   0.17322   0.49992   0.00000  Uiso   1.00
N147   N     0.57612   0.29818   0.14041   0.00000  Uiso   1.00
H148   H     0.61265   0.28806   0.13566   0.00000  Uiso   1.00
H149   H     0.57331   0.33118   0.12910   0.00000  Uiso   1.00
N150   N     0.45329   0.17790   0.37023   0.00000  Uiso   1.00
H151   H     0.42992   0.18845   0.33968   0.00000  Uiso   1.00
H152   H     0.47981   0.15486   0.36258   0.00000  Uiso   1.00
O153   O     0.41988   0.20829   0.11573   0.00000  Uiso   1.00
H154   H     0.43448   0.19196   0.14451   0.00000  Uiso   1.00
O155   O     0.54546   0.32067   0.37783   0.00000  Uiso   1.00
H156   H     0.56741   0.30713   0.35629   0.00000  Uiso   1.00
O157   O     0.41008   0.22498   0.02132   0.00000  Uiso   1.00
H158   H     0.40725   0.24104   0.49025   0.00000  Uiso   1.00
O159   O     0.52583   0.33150   0.46826   0.00000  Uiso   1.00
H160   H     0.50858   0.33340   0.49752   0.00000  Uiso   1.00
C161   C     0.83292   0.16515   0.24995   0.00000  Uiso   1.00
C162   C     0.83340   0.33490   0.24988   0.00000  Uiso   1.00
C163   C     0.87530   0.27030   0.05971   0.00000  Uiso   1.00
C164   C     0.81759   0.21398   0.44574   0.00000  Uiso   1.00
C165   C     0.87220   0.27202   0.10987   0.00000  Uiso   1.00
C166   C     0.81313   0.21496   0.39495   0.00000  Uiso   1.00
C167   C     0.79285   0.23162   0.09873   0.00000  Uiso   1.00
C168   C     0.85302   0.28646   0.39762   0.00000  Uiso   1.00
C169   C     0.78932   0.23742   0.04849   0.00000  Uiso   1.00
C170   C     0.84751   0.29052   0.44690   0.00000  Uiso   1.00
C171   C     0.83248   0.25390   0.02749   0.00000  Uiso   1.00
C172   C     0.83270   0.25291   0.47298   0.00000  Uiso   1.00
C173   C     0.73487   0.24887   0.23796   0.00000  Uiso   1.00
C174   C     0.93179   0.25047   0.26210   0.00000  Uiso   1.00
C175   C     0.67997   0.24230   0.23263   0.00000  Uiso   1.00
C176   C     0.98675   0.25616   0.26780   0.00000  Uiso   1.00
C177   C     0.78963   0.04589   0.26357   0.00000  Uiso   1.00
C178   C     0.79350   0.45057   0.21514   0.00000  Uiso   1.00
C179   C     0.79103   0.09285   0.26590   0.00000  Uiso   1.00
C180   C     0.79375   0.40382   0.21774   0.00000  Uiso   1.00
C181   C     0.83221   0.11688   0.24961   0.00000  Uiso   1.00
C182   C     0.83222   0.38321   0.24893   0.00000  Uiso   1.00
C183   C     0.87267   0.09495   0.23290   0.00000  Uiso   1.00
C184   C     0.87034   0.40859   0.27741   0.00000  Uiso   1.00
C185   C     0.87206   0.04877   0.23259   0.00000  Uiso   1.00
C186   C     0.86924   0.45467   0.27576   0.00000  Uiso   1.00
C187   C     0.83085   0.02438   0.24750   0.00000  Uiso   1.00
C188   C     0.83104   0.47581   0.24555   0.00000  Uiso   1.00
Cu189  Cu    0.83333   0.24999   0.29822   0.00000  Uiso   1.00
Cu190  Cu    0.83333   0.25000   0.20179   0.00000  Uiso   1.00
H191   H     0.90349   0.03181   0.22004   0.00000  Uiso   1.00
H192   H     0.89831   0.47415   0.29839   0.00000  Uiso   1.00
N193   N     0.83333   0.25001   0.12935   0.00000  Uiso   1.00
N194   N     0.83333   0.24999   0.37065   0.00000  Uiso   1.00
O195   O     0.83334   0.18572   0.29071   0.00000  Uiso   1.00
O196   O     0.83333   0.31427   0.20929   0.00000  Uiso   1.00
O197   O     0.83334   0.18573   0.20928   0.00000  Uiso   1.00
O198   O     0.83333   0.31427   0.29072   0.00000  Uiso   1.00
O199   O     0.75828   0.24999   0.28132   0.00000  Uiso   1.00
O200   O     0.90839   0.25000   0.21868   0.00000  Uiso   1.00
O201   O     0.75828   0.25000   0.19989   0.00000  Uiso   1.00
O202   O     0.90839   0.25000   0.30011   0.00000  Uiso   1.00
N203   N     0.98913   0.21624   0.19241   0.00000  Uiso   1.00
H204   H     0.67158   0.18484   0.19484   0.00000  Uiso   1.00
H205   H     0.99843   0.23083   0.16066   0.00000  Uiso   1.00
N206   N     0.67794   0.28016   0.30942   0.00000  Uiso   1.00
H207   H     0.99450   0.31104   0.31023   0.00000  Uiso   1.00
H208   H     0.67077   0.26263   0.34026   0.00000  Uiso   1.00
O209   O     0.74884   0.02023   0.27595   0.00000  Uiso   1.00
H210   H     0.71720   0.03723   0.26926   0.00000  Uiso   1.00
O211   O     0.75679   0.47009   0.18263   0.00000  Uiso   1.00
H212   H     0.76655   0.00161   0.17793   0.00000  Uiso   1.00
O213   O     0.75279   0.11612   0.28290   0.00000  Uiso   1.00
H214   H     0.73765   0.09778   0.30719   0.00000  Uiso   1.00
O215   O     0.75712   0.37715   0.19041   0.00000  Uiso   1.00
H216   H     0.73176   0.39565   0.17112   0.00000  Uiso   1.00
N217   N     0.91496   0.11970   0.21726   0.00000  Uiso   1.00
H218   H     0.91765   0.11061   0.18168   0.00000  Uiso   1.00
H219   H     0.94855   0.11043   0.23854   0.00000  Uiso   1.00
N220   N     0.91115   0.38760   0.30695   0.00000  Uiso   1.00
H221   H     0.91169   0.39891   0.34229   0.00000  Uiso   1.00
H222   H     0.94574   0.39807   0.29523   0.00000  Uiso   1.00
O223   O     0.92043   0.28548   0.04409   0.00000  Uiso   1.00
H224   H     0.92397   0.27092   0.01313   0.00000  Uiso   1.00
O225   O     0.80577   0.17419   0.46702   0.00000  Uiso   1.00
H226   H     0.82477   0.17322   0.49992   0.00000  Uiso   1.00
N227   N     0.90946   0.29818   0.14041   0.00000  Uiso   1.00
H228   H     0.94598   0.28806   0.13566   0.00000  Uiso   1.00
H229   H     0.90665   0.33118   0.12910   0.00000  Uiso   1.00
N230   N     0.78662   0.17790   0.37023   0.00000  Uiso   1.00
H231   H     0.76325   0.18845   0.33968   0.00000  Uiso   1.00
H232   H     0.81314   0.15486   0.36258   0.00000  Uiso   1.00
O233   O     0.75321   0.20829   0.11573   0.00000  Uiso   1.00
H234   H     0.76781   0.19196   0.14451   0.00000  Uiso   1.00
O235   O     0.87879   0.32067   0.37783   0.00000  Uiso   1.00
H236   H     0.90074   0.30713   0.35629   0.00000  Uiso   1.00
O237   O     0.74341   0.22498   0.02132   0.00000  Uiso   1.00
H238   H     0.74058   0.24104   0.49025   0.00000  Uiso   1.00
O239   O     0.85916   0.33150   0.46826   0.00000  Uiso   1.00
H240   H     0.84192   0.33340   0.49752   0.00000  Uiso   1.00
C241   C     0.16626   0.66515   0.24995   0.00000  Uiso   1.00
C242   C     0.16674   0.83490   0.24988   0.00000  Uiso   1.00
C243   C     0.20863   0.77030   0.05971   0.00000  Uiso   1.00
C244   C     0.15092   0.71398   0.44574   0.00000  Uiso   1.00
C245   C     0.20553   0.77202   0.10987   0.00000  Uiso   1.00
C246   C     0.14646   0.71496   0.39495   0.00000  Uiso   1.00
C247   C     0.12618   0.73162   0.09873   0.00000  Uiso   1.00
C248   C     0.18635   0.78646   0.39762   0.00000  Uiso   1.00
C249   C     0.12265   0.73742   0.04849   0.00000  Uiso   1.00
C250   C     0.18085   0.79052   0.44690   0.00000  Uiso   1.00
C251   C     0.16581   0.75390   0.02749   0.00000  Uiso   1.00
C252   C     0.16603   0.75291   0.47298   0.00000  Uiso   1.00
C253   C     0.06820   0.74887   0.23796   0.00000  Uiso   1.00
C254   C     0.26512   0.75047   0.26210   0.00000  Uiso   1.00
C255   C     0.01330   0.74230   0.23263   0.00000  Uiso   1.00
C256   C     0.32008   0.75616   0.26780   0.00000  Uiso   1.00
C257   C     0.12296   0.54589   0.26357   0.00000  Uiso   1.00
C258   C     0.12684   0.95057   0.21514   0.00000  Uiso   1.00
C259   C     0.12436   0.59285   0.26590   0.00000  Uiso   1.00
C260   C     0.12708   0.90382   0.21774   0.00000  Uiso   1.00
C261   C     0.16554   0.61688   0.24961   0.00000  Uiso   1.00
C262   C     0.16555   0.88321   0.24893   0.00000  Uiso   1.00
C263   C     0.20600   0.59495   0.23290   0.00000  Uiso   1.00
C264   C     0.20367   0.90859   0.27741   0.00000  Uiso   1.00
C265   C     0.20539   0.54877   0.23259   0.00000  Uiso   1.00
C266   C     0.20257   0.95467   0.27576   0.00000  Uiso   1.00
C267   C     0.16418   0.52438   0.24750   0.00000  Uiso   1.00
C268   C     0.16437   0.97581   0.24555   0.00000  Uiso   1.00
Cu269  Cu    0.16667   0.74999   0.29822   0.00000  Uiso   1.00
Cu270  Cu    0.16667   0.75000   0.20179   0.00000  Uiso   1.00
H271   H     0.23682   0.53181   0.22004   0.00000  Uiso   1.00
H272   H     0.23165   0.97415   0.29839   0.00000  Uiso   1.00
N273   N     0.16667   0.75001   0.12935   0.00000  Uiso   1.00
N274   N     0.16667   0.74999   0.37065   0.00000  Uiso   1.00
O275   O     0.16667   0.68572   0.29071   0.00000  Uiso   1.00
O276   O     0.16666   0.81427   0.20929   0.00000  Uiso   1.00
O277   O     0.16667   0.68573   0.20928   0.00000  Uiso   1.00
O278   O     0.16666   0.81427   0.29072   0.00000  Uiso   1.00
O279   O     0.09161   0.74999   0.28132   0.00000  Uiso   1.00
O280   O     0.24172   0.75000   0.21868   0.00000  Uiso   1.00
O281   O     0.09161   0.75000   0.19989   0.00000  Uiso   1.00
O282   O     0.24172   0.75000   0.30011   0.00000  Uiso   1.00
N283   N     0.32247   0.71624   0.19241   0.00000  Uiso   1.00
H284   H     0.00491   0.68484   0.19484   0.00000  Uiso   1.00
H285   H     0.33177   0.73083   0.16066   0.00000  Uiso   1.00
N286   N     0.01127   0.78016   0.30942   0.00000  Uiso   1.00
H287   H     0.32783   0.81104   0.31023   0.00000  Uiso   1.00
H288   H     0.00410   0.76263   0.34026   0.00000  Uiso   1.00
O289   O     0.08217   0.52023   0.27595   0.00000  Uiso   1.00
H290   H     0.05053   0.53723   0.26926   0.00000  Uiso   1.00
O291   O     0.09013   0.97009   0.18263   0.00000  Uiso   1.00
H292   H     0.09989   0.50161   0.17793   0.00000  Uiso   1.00
O293   O     0.08612   0.61612   0.28290   0.00000  Uiso   1.00
H294   H     0.07099   0.59778   0.30719   0.00000  Uiso   1.00
O295   O     0.09046   0.87715   0.19041   0.00000  Uiso   1.00
H296   H     0.06509   0.89565   0.17112   0.00000  Uiso   1.00
N297   N     0.24829   0.61970   0.21726   0.00000  Uiso   1.00
H298   H     0.25099   0.61061   0.18168   0.00000  Uiso   1.00
H299   H     0.28188   0.61043   0.23854   0.00000  Uiso   1.00
N300   N     0.24448   0.88760   0.30695   0.00000  Uiso   1.00
H301   H     0.24502   0.89891   0.34229   0.00000  Uiso   1.00
H302   H     0.27907   0.89807   0.29523   0.00000  Uiso   1.00
O303   O     0.25377   0.78548   0.04409   0.00000  Uiso   1.00
H304   H     0.25731   0.77092   0.01313   0.00000  Uiso   1.00
O305   O     0.13910   0.67419   0.46702   0.00000  Uiso   1.00
H306   H     0.15810   0.67322   0.49992   0.00000  Uiso   1.00
N307   N     0.24279   0.79818   0.14041   0.00000  Uiso   1.00
H308   H     0.27932   0.78806   0.13566   0.00000  Uiso   1.00
H309   H     0.23998   0.83118   0.12910   0.00000  Uiso   1.00
N310   N     0.11995   0.67790   0.37023   0.00000  Uiso   1.00
H311   H     0.09658   0.68845   0.33968   0.00000  Uiso   1.00
H312   H     0.14648   0.65486   0.36258   0.00000  Uiso   1.00
O313   O     0.08654   0.70829   0.11573   0.00000  Uiso   1.00
H314   H     0.10114   0.69196   0.14451   0.00000  Uiso   1.00
O315   O     0.21212   0.82067   0.37783   0.00000  Uiso   1.00
H316   H     0.23408   0.80713   0.35629   0.00000  Uiso   1.00
O317   O     0.07675   0.72498   0.02132   0.00000  Uiso   1.00
H318   H     0.07391   0.74104   0.49025   0.00000  Uiso   1.00
O319   O     0.19249   0.83150   0.46826   0.00000  Uiso   1.00
H320   H     0.17525   0.83340   0.49752   0.00000  Uiso   1.00
C321   C     0.49959   0.66515   0.24995   0.00000  Uiso   1.00
C322   C     0.50007   0.83490   0.24988   0.00000  Uiso   1.00
C323   C     0.54197   0.77030   0.05971   0.00000  Uiso   1.00
C324   C     0.48425   0.71398   0.44574   0.00000  Uiso   1.00
C325   C     0.53887   0.77202   0.10987   0.00000  Uiso   1.00
C326   C     0.47979   0.71496   0.39495   0.00000  Uiso   1.00
C327   C     0.45952   0.73162   0.09873   0.00000  Uiso   1.00
C328   C     0.51969   0.78646   0.39762   0.00000  Uiso   1.00
C329   C     0.45598   0.73742   0.04849   0.00000  Uiso   1.00
C330   C     0.51418   0.79052   0.44690   0.00000  Uiso   1.00
C331   C     0.49914   0.75390   0.02749   0.00000  Uiso   1.00
C332   C     0.49937   0.75291   0.47298   0.00000  Uiso   1.00
C333   C     0.40154   0.74887   0.23796   0.00000  Uiso   1.00
C334   C     0.59846   0.75047   0.26210   0.00000  Uiso   1.00
C335   C     0.34664   0.74230   0.23263   0.00000  Uiso   1.00
C336   C     0.65342   0.75616   0.26780   0.00000  Uiso   1.00
C337   C     0.45630   0.54589   0.26357   0.00000  Uiso   1.00
C338   C     0.46017   0.95057   0.21514   0.00000  Uiso   1.00
C339   C     0.45769   0.59285   0.26590   0.00000  Uiso   1.00
C340   C     0.46042   0.90382   0.21774   0.00000  Uiso   1.00
C341   C     0.49888   0.61688   0.24961   0.00000  Uiso   1.00
C342   C     0.49888   0.88321   0.24893   0.00000  Uiso   1.00
C343   C     0.53934   0.59495   0.23290   0.00000  Uiso   1.00
C344   C     0.53700   0.90859   0.27741   0.00000  Uiso   1.00
C345   C     0.53873   0.54877   0.23259   0.00000  Uiso   1.00
C346   C     0.53591   0.95467   0.27576   0.00000  Uiso   1.00
C347   C     0.49751   0.52438   0.24750   0.00000  Uiso   1.00
C348   C     0.49771   0.97581   0.24555   0.00000  Uiso   1.00
Cu349  Cu    0.50000   0.74999   0.29822   0.00000  Uiso   1.00
Cu350  Cu    0.50000   0.75000   0.20179   0.00000  Uiso   1.00
H351   H     0.57016   0.53181   0.22004   0.00000  Uiso   1.00
H352   H     0.56498   0.97415   0.29839   0.00000  Uiso   1.00
N353   N     0.50000   0.75001   0.12935   0.00000  Uiso   1.00
N354   N     0.50000   0.74999   0.37065   0.00000  Uiso   1.00
O355   O     0.50000   0.68572   0.29071   0.00000  Uiso   1.00
O356   O     0.50000   0.81427   0.20929   0.00000  Uiso   1.00
O357   O     0.50000   0.68573   0.20928   0.00000  Uiso   1.00
O358   O     0.50000   0.81427   0.29072   0.00000  Uiso   1.00
O359   O     0.42495   0.74999   0.28132   0.00000  Uiso   1.00
O360   O     0.57505   0.75000   0.21868   0.00000  Uiso   1.00
O361   O     0.42495   0.75000   0.19989   0.00000  Uiso   1.00
O362   O     0.57505   0.75000   0.30011   0.00000  Uiso   1.00
N363   N     0.65580   0.71624   0.19241   0.00000  Uiso   1.00
H364   H     0.33825   0.68484   0.19484   0.00000  Uiso   1.00
H365   H     0.66510   0.73083   0.16066   0.00000  Uiso   1.00
N366   N     0.34460   0.78016   0.30942   0.00000  Uiso   1.00
H367   H     0.66116   0.81104   0.31023   0.00000  Uiso   1.00
H368   H     0.33744   0.76263   0.34026   0.00000  Uiso   1.00
O369   O     0.41551   0.52023   0.27595   0.00000  Uiso   1.00
H370   H     0.38387   0.53723   0.26926   0.00000  Uiso   1.00
O371   O     0.42346   0.97009   0.18263   0.00000  Uiso   1.00
H372   H     0.43322   0.50161   0.17793   0.00000  Uiso   1.00
O373   O     0.41945   0.61612   0.28290   0.00000  Uiso   1.00
H374   H     0.40432   0.59778   0.30719   0.00000  Uiso   1.00
O375   O     0.42379   0.87715   0.19041   0.00000  Uiso   1.00
H376   H     0.39842   0.89565   0.17112   0.00000  Uiso   1.00
N377   N     0.58162   0.61970   0.21726   0.00000  Uiso   1.00
H378   H     0.58432   0.61061   0.18168   0.00000  Uiso   1.00
H379   H     0.61522   0.61043   0.23854   0.00000  Uiso   1.00
N380   N     0.57782   0.88760   0.30695   0.00000  Uiso   1.00
H381   H     0.57835   0.89891   0.34229   0.00000  Uiso   1.00
H382   H     0.61241   0.89807   0.29523   0.00000  Uiso   1.00
O383   O     0.58710   0.78548   0.04409   0.00000  Uiso   1.00
H384   H     0.59064   0.77092   0.01313   0.00000  Uiso   1.00
O385   O     0.47244   0.67419   0.46702   0.00000  Uiso   1.00
H386   H     0.49144   0.67322   0.49992   0.00000  Uiso   1.00
N387   N     0.57612   0.79818   0.14041   0.00000  Uiso   1.00
H388   H     0.61265   0.78806   0.13566   0.00000  Uiso   1.00
H389   H     0.57331   0.83118   0.12910   0.00000  Uiso   1.00
N390   N     0.45329   0.67790   0.37023   0.00000  Uiso   1.00
H391   H     0.42992   0.68845   0.33968   0.00000  Uiso   1.00
H392   H     0.47981   0.65486   0.36258   0.00000  Uiso   1.00
O393   O     0.41988   0.70829   0.11573   0.00000  Uiso   1.00
H394   H     0.43448   0.69196   0.14451   0.00000  Uiso   1.00
O395   O     0.54546   0.82067   0.37783   0.00000  Uiso   1.00
H396   H     0.56741   0.80713   0.35629   0.00000  Uiso   1.00
O397   O     0.41008   0.72498   0.02132   0.00000  Uiso   1.00
H398   H     0.40725   0.74104   0.49025   0.00000  Uiso   1.00
O399   O     0.52583   0.83150   0.46826   0.00000  Uiso   1.00
H400   H     0.50858   0.83340   0.49752   0.00000  Uiso   1.00
C401   C     0.83292   0.66515   0.24995   0.00000  Uiso   1.00
C402   C     0.83340   0.83490   0.24988   0.00000  Uiso   1.00
C403   C     0.87530   0.77030   0.05971   0.00000  Uiso   1.00
C404   C     0.81759   0.71398   0.44574   0.00000  Uiso   1.00
C405   C     0.87220   0.77202   0.10987   0.00000  Uiso   1.00
C406   C     0.81313   0.71496   0.39495   0.00000  Uiso   1.00
C407   C     0.79285   0.73162   0.09873   0.00000  Uiso   1.00
C408   C     0.85302   0.78646   0.39762   0.00000  Uiso   1.00
C409   C     0.78932   0.73742   0.04849   0.00000  Uiso   1.00
C410   C     0.84751   0.79052   0.44690   0.00000  Uiso   1.00
C411   C     0.83248   0.75390   0.02749   0.00000  Uiso   1.00
C412   C     0.83270   0.75291   0.47298   0.00000  Uiso   1.00
C413   C     0.73487   0.74887   0.23796   0.00000  Uiso   1.00
C414   C     0.93179   0.75047   0.26210   0.00000  Uiso   1.00
C415   C     0.67997   0.74230   0.23263   0.00000  Uiso   1.00
C416   C     0.98675   0.75616   0.26780   0.00000  Uiso   1.00
C417   C     0.78963   0.54589   0.26357   0.00000  Uiso   1.00
C418   C     0.79350   0.95057   0.21514   0.00000  Uiso   1.00
C419   C     0.79103   0.59285   0.26590   0.00000  Uiso   1.00
C420   C     0.79375   0.90382   0.21774   0.00000  Uiso   1.00
C421   C     0.83221   0.61688   0.24961   0.00000  Uiso   1.00
C422   C     0.83222   0.88321   0.24893   0.00000  Uiso   1.00
C423   C     0.87267   0.59495   0.23290   0.00000  Uiso   1.00
C424   C     0.87034   0.90859   0.27741   0.00000  Uiso   1.00
C425   C     0.87206   0.54877   0.23259   0.00000  Uiso   1.00
C426   C     0.86924   0.95467   0.27576   0.00000  Uiso   1.00
C427   C     0.83085   0.52438   0.24750   0.00000  Uiso   1.00
C428   C     0.83104   0.97581   0.24555   0.00000  Uiso   1.00
Cu429  Cu    0.83333   0.74999   0.29822   0.00000  Uiso   1.00
Cu430  Cu    0.83333   0.75000   0.20179   0.00000  Uiso   1.00
H431   H     0.90349   0.53181   0.22004   0.00000  Uiso   1.00
H432   H     0.89831   0.97415   0.29839   0.00000  Uiso   1.00
N433   N     0.83333   0.75001   0.12935   0.00000  Uiso   1.00
N434   N     0.83333   0.74999   0.37065   0.00000  Uiso   1.00
O435   O     0.83334   0.68572   0.29071   0.00000  Uiso   1.00
O436   O     0.83333   0.81427   0.20929   0.00000  Uiso   1.00
O437   O     0.83334   0.68573   0.20928   0.00000  Uiso   1.00
O438   O     0.83333   0.81427   0.29072   0.00000  Uiso   1.00
O439   O     0.75828   0.74999   0.28132   0.00000  Uiso   1.00
O440   O     0.90839   0.75000   0.21868   0.00000  Uiso   1.00
O441   O     0.75828   0.75000   0.19989   0.00000  Uiso   1.00
O442   O     0.90839   0.75000   0.30011   0.00000  Uiso   1.00
N443   N     0.98913   0.71624   0.19241   0.00000  Uiso   1.00
H444   H     0.67158   0.68484   0.19484   0.00000  Uiso   1.00
H445   H     0.99843   0.73083   0.16066   0.00000  Uiso   1.00
N446   N     0.67794   0.78016   0.30942   0.00000  Uiso   1.00
H447   H     0.99450   0.81104   0.31023   0.00000  Uiso   1.00
H448   H     0.67077   0.76263   0.34026   0.00000  Uiso   1.00
O449   O     0.74884   0.52023   0.27595   0.00000  Uiso   1.00
H450   H     0.71720   0.53723   0.26926   0.00000  Uiso   1.00
O451   O     0.75679   0.97009   0.18263   0.00000  Uiso   1.00
H452   H     0.76655   0.50161   0.17793   0.00000  Uiso   1.00
O453   O     0.75279   0.61612   0.28290   0.00000  Uiso   1.00
H454   H     0.73765   0.59778   0.30719   0.00000  Uiso   1.00
O455   O     0.75712   0.87715   0.19041   0.00000  Uiso   1.00
H456   H     0.73176   0.89565   0.17112   0.00000  Uiso   1.00
N457   N     0.91496   0.61970   0.21726   0.00000  Uiso   1.00
H458   H     0.91765   0.61061   0.18168   0.00000  Uiso   1.00
H459   H     0.94855   0.61043   0.23854   0.00000  Uiso   1.00
N460   N     0.91115   0.88760   0.30695   0.00000  Uiso   1.00
H461   H     0.91169   0.89891   0.34229   0.00000  Uiso   1.00
H462   H     0.94574   0.89807   0.29523   0.00000  Uiso   1.00
O463   O     0.92043   0.78548   0.04409   0.00000  Uiso   1.00
H464   H     0.92397   0.77092   0.01313   0.00000  Uiso   1.00
O465   O     0.80577   0.67419   0.46702   0.00000  Uiso   1.00
H466   H     0.82477   0.67322   0.49992   0.00000  Uiso   1.00
N467   N     0.90946   0.79818   0.14041   0.00000  Uiso   1.00
H468   H     0.94598   0.78806   0.13566   0.00000  Uiso   1.00
H469   H     0.90665   0.83118   0.12910   0.00000  Uiso   1.00
N470   N     0.78662   0.67790   0.37023   0.00000  Uiso   1.00
H471   H     0.76325   0.68845   0.33968   0.00000  Uiso   1.00
H472   H     0.81314   0.65486   0.36258   0.00000  Uiso   1.00
O473   O     0.75321   0.70829   0.11573   0.00000  Uiso   1.00
H474   H     0.76781   0.69196   0.14451   0.00000  Uiso   1.00
O475   O     0.87879   0.82067   0.37783   0.00000  Uiso   1.00
H476   H     0.90074   0.80713   0.35629   0.00000  Uiso   1.00
O477   O     0.74341   0.72498   0.02132   0.00000  Uiso   1.00
H478   H     0.74058   0.74104   0.49025   0.00000  Uiso   1.00
O479   O     0.85916   0.83150   0.46826   0.00000  Uiso   1.00
H480   H     0.84192   0.83340   0.49752   0.00000  Uiso   1.00
C481   C     0.16626   0.16515   0.74995   0.00000  Uiso   1.00
C482   C     0.16674   0.33490   0.74988   0.00000  Uiso   1.00
C483   C     0.20863   0.27030   0.55971   0.00000  Uiso   1.00
C484   C     0.15092   0.21398   0.94574   0.00000  Uiso   1.00
C485   C     0.20553   0.27202   0.60987   0.00000  Uiso   1.00
C486   C     0.14646   0.21496   0.89495   0.00000  Uiso   1.00
C487   C     0.12618   0.23162   0.59873   0.00000  Uiso   1.00
C488   C     0.18635   0.28646   0.89762   0.00000  Uiso   1.00
C489   C     0.12265   0.23742   0.54849   0.00000  Uiso   1.00
C490   C     0.18085   0.29052   0.94690   0.00000  Uiso   1.00
C491   C     0.16581   0.25390   0.52749   0.00000  Uiso   1.00
C492   C     0.16603   0.25291   0.97298   0.00000  Uiso   1.00
C493   C     0.06820   0.24887   0.73796   0.00000  Uiso   1.00
C494   C     0.26512   0.25047   0.76210   0.00000  Uiso   1.00
C495   C     0.01330   0.24230   0.73263   0.00000  Uiso   1.00
C496   C     0.32008   0.25616   0.76780   0.00000  Uiso   1.00
C497   C     0.12296   0.04589   0.76357   0.00000  Uiso   1.00
C498   C     0.12684   0.45057   0.71514   0.00000  Uiso   1.00
C499   C     0.12436   0.09285   0.76590   0.00000  Uiso   1.00
C500   C     0.12708   0.40382   0.71774   0.00000  Uiso   1.00
C501   C     0.16554   0.11688   0.74961   0.00000  Uiso   1.00
C502   C     0.16555   0.38321   0.74893   0.00000  Uiso   1.00
C503   C     0.20600   0.09495   0.73290   0.00000  Uiso   1.00
C504   C     0.20367   0.40859   0.77741   0.00000  Uiso   1.00
C505   C     0.20539   0.04877   0.73259   0.00000  Uiso   1.00
C506   C     0.20257   0.45467   0.77576   0.00000  Uiso   1.00
C507   C     0.16418   0.02438   0.74750   0.00000  Uiso   1.00
C508   C     0.16437   0.47581   0.74555   0.00000  Uiso   1.00
Cu509  Cu    0.16667   0.24999   0.79822   0.00000  Uiso   1.00
Cu510  Cu    0.16667   0.25000   0.70179   0.00000  Uiso   1.00
H511   H     0.23682   0.03181   0.72004   0.00000  Uiso   1.00
H512   H     0.23165   0.47415   0.79839   0.00000  Uiso   1.00
N513   N     0.16667   0.25001   0.62935   0.00000  Uiso   1.00
N514   N     0.16667   0.24999   0.87065   0.00000  Uiso   1.00
O515   O     0.16667   0.18572   0.79071   0.00000  Uiso   1.00
O516   O     0.16666   0.31427   0.70929   0.00000  Uiso   1.00
O517   O     0.16667   0.18573   0.70928   0.00000  Uiso   1.00
O518   O     0.16666   0.31427   0.79072   0.00000  Uiso   1.00
O519   O     0.09161   0.24999   0.78132   0.00000  Uiso   1.00
O520   O     0.24172   0.25000   0.71868   0.00000  Uiso   1.00
O521   O     0.09161   0.25000   0.69989   0.00000  Uiso   1.00
O522   O     0.24172   0.25000   0.80011   0.00000  Uiso   1.00
N523   N     0.32247   0.21624   0.69241   0.00000  Uiso   1.00
H524   H     0.00491   0.18484   0.69484   0.00000  Uiso   1.00
H525   H     0.33177   0.23083   0.66066   0.00000  Uiso   1.00
N526   N     0.01127   0.28016   0.80942   0.00000  Uiso   1.00
H527   H     0.32783   0.31104   0.81023   0.00000  Uiso   1.00
H528   H     0.00410   0.26263   0.84026   0.00000  Uiso   1.00
O529   O     0.08217   0.02023   0.77595   0.00000  Uiso   1.00
H530   H     0.05053   0.03723   0.76926   0.00000  Uiso   1.00
O531   O     0.09013   0.47009   0.68263   0.00000  Uiso   1.00
H532   H     0.09989   0.00161   0.67793   0.00000  Uiso   1.00
O533   O     0.08612   0.11612   0.78290   0.00000  Uiso   1.00
H534   H     0.07099   0.09778   0.80719   0.00000  Uiso   1.00
O535   O     0.09046   0.37715   0.69041   0.00000  Uiso   1.00
H536   H     0.06509   0.39565   0.67112   0.00000  Uiso   1.00
N537   N     0.24829   0.11970   0.71726   0.00000  Uiso   1.00
H538   H     0.25099   0.11061   0.68168   0.00000  Uiso   1.00
H539   H     0.28188   0.11043   0.73854   0.00000  Uiso   1.00
N540   N     0.24448   0.38760   0.80695   0.00000  Uiso   1.00
H541   H     0.24502   0.39891   0.84229   0.00000  Uiso   1.00
H542   H     0.27907   0.39807   0.79523   0.00000  Uiso   1.00
O543   O     0.25377   0.28548   0.54409   0.00000  Uiso   1.00
H544   H     0.25731   0.27092   0.51313   0.00000  Uiso   1.00
O545   O     0.13910   0.17419   0.96702   0.00000  Uiso   1.00
H546   H     0.15810   0.17322   0.99992   0.00000  Uiso   1.00
N547   N     0.24279   0.29818   0.64041   0.00000  Uiso   1.00
H548   H     0.27932   0.28806   0.63566   0.00000  Uiso   1.00
H549   H     0.23998   0.33118   0.62910   0.00000  Uiso   1.00
N550   N     0.11995   0.17790   0.87023   0.00000  Uiso   1.00
H551   H     0.09658   0.18845   0.83968   0.00000  Uiso   1.00
H552   H     0.14648   0.15486   0.86258   0.00000  Uiso   1.00
O553   O     0.08654   0.20829   0.61573   0.00000  Uiso   1.00
H554   H     0.10114   0.19196   0.64451   0.00000  Uiso   1.00
O555   O     0.21212   0.32067   0.87783   0.00000  Uiso   1.00
H556   H     0.23408   0.30713   0.85629   0.00000  Uiso   1.00
O557   O     0.07675   0.22498   0.52132   0.00000  Uiso   1.00
H558   H     0.07391   0.24104   0.99025   0.00000  Uiso   1.00
O559   O     0.19249   0.33150   0.96826   0.00000  Uiso   1.00
H560   H     0.17525   0.33340   0.99752   0.00000  Uiso   1.00
C561   C     0.49959   0.16515   0.74995   0.00000  Uiso   1.00
C562   C     0.50007   0.33490   0.74988   0.00000  Uiso   1.00
C563   C     0.54197   0.27030   0.55971   0.00000  Uiso   1.00
C564   C     0.48425   0.21398   0.94574   0.00000  Uiso   1.00
C565   C     0.53887   0.27202   0.60987   0.00000  Uiso   1.00
C566   C     0.47979   0.21496   0.89495   0.00000  Uiso   1.00
C567   C     0.45952   0.23162   0.59873   0.00000  Uiso   1.00
C568   C     0.51969   0.28646   0.89762   0.00000  Uiso   1.00
C569   C     0.45598   0.23742   0.54849   0.00000  Uiso   1.00
C570   C     0.51418   0.29052   0.94690   0.00000  Uiso   1.00
C571   C     0.49914   0.25390   0.52749   0.00000  Uiso   1.00
C572   C     0.49937   0.25291   0.97298   0.00000  Uiso   1.00
C573   C     0.40154   0.24887   0.73796   0.00000  Uiso   1.00
C574   C     0.59846   0.25047   0.76210   0.00000  Uiso   1.00
C575   C     0.34664   0.24230   0.73263   0.00000  Uiso   1.00
C576   C     0.65342   0.25616   0.76780   0.00000  Uiso   1.00
C577   C     0.45630   0.04589   0.76357   0.00000  Uiso   1.00
C578   C     0.46017   0.45057   0.71514   0.00000  Uiso   1.00
C579   C     0.45769   0.09285   0.76590   0.00000  Uiso   1.00
C580   C     0.46042   0.40382   0.71774   0.00000  Uiso   1.00
C581   C     0.49888   0.11688   0.74961   0.00000  Uiso   1.00
C582   C     0.49888   0.38321   0.74893   0.00000  Uiso   1.00
C583   C     0.53934   0.09495   0.73290   0.00000  Uiso   1.00
C584   C     0.53700   0.40859   0.77741   0.00000  Uiso   1.00
C585   C     0.53873   0.04877   0.73259   0.00000  Uiso   1.00
C586   C     0.53591   0.45467   0.77576   0.00000  Uiso   1.00
C587   C     0.49751   0.02438   0.74750   0.00000  Uiso   1.00
C588   C     0.49771   0.47581   0.74555   0.00000  Uiso   1.00
Cu589  Cu    0.50000   0.24999   0.79822   0.00000  Uiso   1.00
Cu590  Cu    0.50000   0.25000   0.70179   0.00000  Uiso   1.00
H591   H     0.57016   0.03181   0.72004   0.00000  Uiso   1.00
H592   H     0.56498   0.47415   0.79839   0.00000  Uiso   1.00
N593   N     0.50000   0.25001   0.62935   0.00000  Uiso   1.00
N594   N     0.50000   0.24999   0.87065   0.00000  Uiso   1.00
O595   O     0.50000   0.18572   0.79071   0.00000  Uiso   1.00
O596   O     0.50000   0.31427   0.70929   0.00000  Uiso   1.00
O597   O     0.50000   0.18573   0.70928   0.00000  Uiso   1.00
O598   O     0.50000   0.31427   0.79072   0.00000  Uiso   1.00
O599   O     0.42495   0.24999   0.78132   0.00000  Uiso   1.00
O600   O     0.57505   0.25000   0.71868   0.00000  Uiso   1.00
O601   O     0.42495   0.25000   0.69989   0.00000  Uiso   1.00
O602   O     0.57505   0.25000   0.80011   0.00000  Uiso   1.00
N603   N     0.65580   0.21624   0.69241   0.00000  Uiso   1.00
H604   H     0.33825   0.18484   0.69484   0.00000  Uiso   1.00
H605   H     0.66510   0.23083   0.66066   0.00000  Uiso   1.00
N606   N     0.34460   0.28016   0.80942   0.00000  Uiso   1.00
H607   H     0.66116   0.31104   0.81023   0.00000  Uiso   1.00
H608   H     0.33744   0.26263   0.84026   0.00000  Uiso   1.00
O609   O     0.41551   0.02023   0.77595   0.00000  Uiso   1.00
H610   H     0.38387   0.03723   0.76926   0.00000  Uiso   1.00
O611   O     0.42346   0.47009   0.68263   0.00000  Uiso   1.00
H612   H     0.43322   0.00161   0.67793   0.00000  Uiso   1.00
O613   O     0.41945   0.11612   0.78290   0.00000  Uiso   1.00
H614   H     0.40432   0.09778   0.80719   0.00000  Uiso   1.00
O615   O     0.42379   0.37715   0.69041   0.00000  Uiso   1.00
H616   H     0.39842   0.39565   0.67112   0.00000  Uiso   1.00
N617   N     0.58162   0.11970   0.71726   0.00000  Uiso   1.00
H618   H     0.58432   0.11061   0.68168   0.00000  Uiso   1.00
H619   H     0.61522   0.11043   0.73854   0.00000  Uiso   1.00
N620   N     0.57782   0.38760   0.80695   0.00000  Uiso   1.00
H621   H     0.57835   0.39891   0.84229   0.00000  Uiso   1.00
H622   H     0.61241   0.39807   0.79523   0.00000  Uiso   1.00
O623   O     0.58710   0.28548   0.54409   0.00000  Uiso   1.00
H624   H     0.59064   0.27092   0.51313   0.00000  Uiso   1.00
O625   O     0.47244   0.17419   0.96702   0.00000  Uiso   1.00
H626   H     0.49144   0.17322   0.99992   0.00000  Uiso   1.00
N627   N     0.57612   0.29818   0.64041   0.00000  Uiso   1.00
H628   H     0.61265   0.28806   0.63566   0.00000  Uiso   1.00
H629   H     0.57331   0.33118   0.62910   0.00000  Uiso   1.00
N630   N     0.45329   0.17790   0.87023   0.00000  Uiso   1.00
H631   H     0.42992   0.18845   0.83968   0.00000  Uiso   1.00
H632   H     0.47981   0.15486   0.86258   0.00000  Uiso   1.00
O633   O     0.41988   0.20829   0.61573   0.00000  Uiso   1.00
H634   H     0.43448   0.19196   0.64451   0.00000  Uiso   1.00
O635   O     0.54546   0.32067   0.87783   0.00000  Uiso   1.00
H636   H     0.56741   0.30713   0.85629   0.00000  Uiso   1.00
O637   O     0.41008   0.22498   0.52132   0.00000  Uiso   1.00
H638   H     0.40725   0.24104   0.99025   0.00000  Uiso   1.00
O639   O     0.52583   0.33150   0.96826   0.00000  Uiso   1.00
H640   H     0.50858   0.33340   0.99752   0.00000  Uiso   1.00
C641   C     0.83292   0.16515   0.74995   0.00000  Uiso   1.00
C642   C     0.83340   0.33490   0.74988   0.00000  Uiso   1.00
C643   C     0.87530   0.27030   0.55971   0.00000  Uiso   1.00
C644   C     0.81759   0.21398   0.94574   0.00000  Uiso   1.00
C645   C     0.87220   0.27202   0.60987   0.00000  Uiso   1.00
C646   C     0.81313   0.21496   0.89495   0.00000  Uiso   1.00
C647   C     0.79285   0.23162   0.59873   0.00000  Uiso   1.00
C648   C     0.85302   0.28646   0.89762   0.00000  Uiso   1.00
C649   C     0.78932   0.23742   0.54849   0.00000  Uiso   1.00
C650   C     0.84751   0.29052   0.94690   0.00000  Uiso   1.00
C651   C     0.83248   0.25390   0.52749   0.00000  Uiso   1.00
C652   C     0.83270   0.25291   0.97298   0.00000  Uiso   1.00
C653   C     0.73487   0.24887   0.73796   0.00000  Uiso   1.00
C654   C     0.93179   0.25047   0.76210   0.00000  Uiso   1.00
C655   C     0.67997   0.24230   0.73263   0.00000  Uiso   1.00
C656   C     0.98675   0.25616   0.76780   0.00000  Uiso   1.00
C657   C     0.78963   0.04589   0.76357   0.00000  Uiso   1.00
C658   C     0.79350   0.45057   0.71514   0.00000  Uiso   1.00
C659   C     0.79103   0.09285   0.76590   0.00000  Uiso   1.00
C660   C     0.79375   0.40382   0.71774   0.00000  Uiso   1.00
C661   C     0.83221   0.11688   0.74961   0.00000  Uiso   1.00
C662   C     0.83222   0.38321   0.74893   0.00000  Uiso   1.00
C663   C     0.87267   0.09495   0.73290   0.00000  Uiso   1.00
C664   C     0.87034   0.40859   0.77741   0.00000  Uiso   1.00
C665   C     0.87206   0.04877   0.73259   0.00000  Uiso   1.00
C666   C     0.86924   0.45467   0.77576   0.00000  Uiso   1.00
C667   C     0.83085   0.02438   0.74750   0.00000  Uiso   1.00
C668   C     0.83104   0.47581   0.74555   0.00000  Uiso   1.00
Cu669  Cu    0.83333   0.24999   0.79822   0.00000  Uiso   1.00
Cu670  Cu    0.83333   0.25000   0.70179   0.00000  Uiso   1.00
H671   H     0.90349   0.03181   0.72004   0.00000  Uiso   1.00
H672   H     0.89831   0.47415   0.79839   0.00000  Uiso   1.00
N673   N     0.83333   0.25001   0.62935   0.00000  Uiso   1.00
N674   N     0.83333   0.24999   0.87065   0.00000  Uiso   1.00
O675   O     0.83334   0.18572   0.79071   0.00000  Uiso   1.00
O676   O     0.83333   0.31427   0.70929   0.00000  Uiso   1.00
O677   O     0.83334   0.18573   0.70928   0.00000  Uiso   1.00
O678   O     0.83333   0.31427   0.79072   0.00000  Uiso   1.00
O679   O     0.75828   0.24999   0.78132   0.00000  Uiso   1.00
O680   O     0.90839   0.25000   0.71868   0.00000  Uiso   1.00
O681   O     0.75828   0.25000   0.69989   0.00000  Uiso   1.00
O682   O     0.90839   0.25000   0.80011   0.00000  Uiso   1.00
N683   N     0.98913   0.21624   0.69241   0.00000  Uiso   1.00
H684   H     0.67158   0.18484   0.69484   0.00000  Uiso   1.00
H685   H     0.99843   0.23083   0.66066   0.00000  Uiso   1.00
N686   N     0.67794   0.28016   0.80942   0.00000  Uiso   1.00
H687   H     0.99450   0.31104   0.81023   0.00000  Uiso   1.00
H688   H     0.67077   0.26263   0.84026   0.00000  Uiso   1.00
O689   O     0.74884   0.02023   0.77595   0.00000  Uiso   1.00
H690   H     0.71720   0.03723   0.76926   0.00000  Uiso   1.00
O691   O     0.75679   0.47009   0.68263   0.00000  Uiso   1.00
H692   H     0.76655   0.00161   0.67793   0.00000  Uiso   1.00
O693   O     0.75279   0.11612   0.78290   0.00000  Uiso   1.00
H694   H     0.73765   0.09778   0.80719   0.00000  Uiso   1.00
O695   O     0.75712   0.37715   0.69041   0.00000  Uiso   1.00
H696   H     0.73176   0.39565   0.67112   0.00000  Uiso   1.00
N697   N     0.91496   0.11970   0.71726   0.00000  Uiso   1.00
H698   H     0.91765   0.11061   0.68168   0.00000  Uiso   1.00
H699   H     0.94855   0.11043   0.73854   0.00000  Uiso   1.00
N700   N     0.91115   0.38760   0.80695   0.00000  Uiso   1.00
H701   H     0.91169   0.39891   0.84229   0.00000  Uiso   1.00
H702   H     0.94574   0.39807   0.79523   0.00000  Uiso   1.00
O703   O     0.92043   0.28548   0.54409   0.00000  Uiso   1.00
H704   H     0.92397   0.27092   0.51313   0.00000  Uiso   1.00
O705   O     0.80577   0.17419   0.96702   0.00000  Uiso   1.00
H706   H     0.82477   0.17322   0.99992   0.00000  Uiso   1.00
N707   N     0.90946   0.29818   0.64041   0.00000  Uiso   1.00
H708   H     0.94598   0.28806   0.63566   0.00000  Uiso   1.00
H709   H     0.90665   0.33118   0.62910   0.00000  Uiso   1.00
N710   N     0.78662   0.17790   0.87023   0.00000  Uiso   1.00
H711   H     0.76325   0.18845   0.83968   0.00000  Uiso   1.00
H712   H     0.81314   0.15486   0.86258   0.00000  Uiso   1.00
O713   O     0.75321   0.20829   0.61573   0.00000  Uiso   1.00
H714   H     0.76781   0.19196   0.64451   0.00000  Uiso   1.00
O715   O     0.87879   0.32067   0.87783   0.00000  Uiso   1.00
H716   H     0.90074   0.30713   0.85629   0.00000  Uiso   1.00
O717   O     0.74341   0.22498   0.52132   0.00000  Uiso   1.00
H718   H     0.74058   0.24104   0.99025   0.00000  Uiso   1.00
O719   O     0.85916   0.33150   0.96826   0.00000  Uiso   1.00
H720   H     0.84192   0.33340   0.99752   0.00000  Uiso   1.00
C721   C     0.16626   0.66515   0.74995   0.00000  Uiso   1.00
C722   C     0.16674   0.83490   0.74988   0.00000  Uiso   1.00
C723   C     0.20863   0.77030   0.55971   0.00000  Uiso   1.00
C724   C     0.15092   0.71398   0.94574   0.00000  Uiso   1.00
C725   C     0.20553   0.77202   0.60987   0.00000  Uiso   1.00
C726   C     0.14646   0.71496   0.89495   0.00000  Uiso   1.00
C727   C     0.12618   0.73162   0.59873   0.00000  Uiso   1.00
C728   C     0.18635   0.78646   0.89762   0.00000  Uiso   1.00
C729   C     0.12265   0.73742   0.54849   0.00000  Uiso   1.00
C730   C     0.18085   0.79052   0.94690   0.00000  Uiso   1.00
C731   C     0.16581   0.75390   0.52749   0.00000  Uiso   1.00
C732   C     0.16603   0.75291   0.97298   0.00000  Uiso   1.00
C733   C     0.06820   0.74887   0.73796   0.00000  Uiso   1.00
C734   C     0.26512   0.75047   0.76210   0.00000  Uiso   1.00
C735   C     0.01330   0.74230   0.73263   0.00000  Uiso   1.00
C736   C     0.32008   0.75616   0.76780   0.00000  Uiso   1.00
C737   C     0.12296   0.54589   0.76357   0.00000  Uiso   1.00
C738   C     0.12684   0.95057   0.71514   0.00000  Uiso   1.00
C739   C     0.12436   0.59285   0.76590   0.00000  Uiso   1.00
C740   C     0.12708   0.90382   0.71774   0.00000  Uiso   1.00
C741   C     0.16554   0.61688   0.74961   0.00000  Uiso   1.00
C742   C     0.16555   0.88321   0.74893   0.00000  Uiso   1.00
C743   C     0.20600   0.59495   0.73290   0.00000  Uiso   1.00
C744   C     0.20367   0.90859   0.77741   0.00000  Uiso   1.00
C745   C     0.20539   0.54877   0.73259   0.00000  Uiso   1.00
C746   C     0.20257   0.95467   0.77576   0.00000  Uiso   1.00
C747   C     0.16418   0.52438   0.74750   0.00000  Uiso   1.00
C748   C     0.16437   0.97581   0.74555   0.00000  Uiso   1.00
Cu749  Cu    0.16667   0.74999   0.79822   0.00000  Uiso   1.00
Cu750  Cu    0.16667   0.75000   0.70179   0.00000  Uiso   1.00
H751   H     0.23682   0.53181   0.72004   0.00000  Uiso   1.00
H752   H     0.23165   0.97415   0.79839   0.00000  Uiso   1.00
N753   N     0.16667   0.75001   0.62935   0.00000  Uiso   1.00
N754   N     0.16667   0.74999   0.87065   0.00000  Uiso   1.00
O755   O     0.16667   0.68572   0.79071   0.00000  Uiso   1.00
O756   O     0.16666   0.81427   0.70929   0.00000  Uiso   1.00
O757   O     0.16667   0.68573   0.70928   0.00000  Uiso   1.00
O758   O     0.16666   0.81427   0.79072   0.00000  Uiso   1.00
O759   O     0.09161   0.74999   0.78132   0.00000  Uiso   1.00
O760   O     0.24172   0.75000   0.71868   0.00000  Uiso   1.00
O761   O     0.09161   0.75000   0.69989   0.00000  Uiso   1.00
O762   O     0.24172   0.75000   0.80011   0.00000  Uiso   1.00
N763   N     0.32247   0.71624   0.69241   0.00000  Uiso   1.00
H764   H     0.00491   0.68484   0.69484   0.00000  Uiso   1.00
H765   H     0.33177   0.73083   0.66066   0.00000  Uiso   1.00
N766   N     0.01127   0.78016   0.80942   0.00000  Uiso   1.00
H767   H     0.32783   0.81104   0.81023   0.00000  Uiso   1.00
H768   H     0.00410   0.76263   0.84026   0.00000  Uiso   1.00
O769   O     0.08217   0.52023   0.77595   0.00000  Uiso   1.00
H770   H     0.05053   0.53723   0.76926   0.00000  Uiso   1.00
O771   O     0.09013   0.97009   0.68263   0.00000  Uiso   1.00
H772   H     0.09989   0.50161   0.67793   0.00000  Uiso   1.00
O773   O     0.08612   0.61612   0.78290   0.00000  Uiso   1.00
H774   H     0.07099   0.59778   0.80719   0.00000  Uiso   1.00
O775   O     0.09046   0.87715   0.69041   0.00000  Uiso   1.00
H776   H     0.06509   0.89565   0.67112   0.00000  Uiso   1.00
N777   N     0.24829   0.61970   0.71726   0.00000  Uiso   1.00
H778   H     0.25099   0.61061   0.68168   0.00000  Uiso   1.00
H779   H     0.28188   0.61043   0.73854   0.00000  Uiso   1.00
N780   N     0.24448   0.88760   0.80695   0.00000  Uiso   1.00
H781   H     0.24502   0.89891   0.84229   0.00000  Uiso   1.00
H782   H     0.27907   0.89807   0.79523   0.00000  Uiso   1.00
O783   O     0.25377   0.78548   0.54409   0.00000  Uiso   1.00
H784   H     0.25731   0.77092   0.51313   0.00000  Uiso   1.00
O785   O     0.13910   0.67419   0.96702   0.00000  Uiso   1.00
H786   H     0.15810   0.67322   0.99992   0.00000  Uiso   1.00
N787   N     0.24279   0.79818   0.64041   0.00000  Uiso   1.00
H788   H     0.27932   0.78806   0.63566   0.00000  Uiso   1.00
H789   H     0.23998   0.83118   0.62910   0.00000  Uiso   1.00
N790   N     0.11995   0.67790   0.87023   0.00000  Uiso   1.00
H791   H     0.09658   0.68845   0.83968   0.00000  Uiso   1.00
H792   H     0.14648   0.65486   0.86258   0.00000  Uiso   1.00
O793   O     0.08654   0.70829   0.61573   0.00000  Uiso   1.00
H794   H     0.10114   0.69196   0.64451   0.00000  Uiso   1.00
O795   O     0.21212   0.82067   0.87783   0.00000  Uiso   1.00
H796   H     0.23408   0.80713   0.85629   0.00000  Uiso   1.00
O797   O     0.07675   0.72498   0.52132   0.00000  Uiso   1.00
H798   H     0.07391   0.74104   0.99025   0.00000  Uiso   1.00
O799   O     0.19249   0.83150   0.96826   0.00000  Uiso   1.00
H800   H     0.17525   0.83340   0.99752   0.00000  Uiso   1.00
C801   C     0.49959   0.66515   0.74995   0.00000  Uiso   1.00
C802   C     0.50007   0.83490   0.74988   0.00000  Uiso   1.00
C803   C     0.54197   0.77030   0.55971   0.00000  Uiso   1.00
C804   C     0.48425   0.71398   0.94574   0.00000  Uiso   1.00
C805   C     0.53887   0.77202   0.60987   0.00000  Uiso   1.00
C806   C     0.47979   0.71496   0.89495   0.00000  Uiso   1.00
C807   C     0.45952   0.73162   0.59873   0.00000  Uiso   1.00
C808   C     0.51969   0.78646   0.89762   0.00000  Uiso   1.00
C809   C     0.45598   0.73742   0.54849   0.00000  Uiso   1.00
C810   C     0.51418   0.79052   0.94690   0.00000  Uiso   1.00
C811   C     0.49914   0.75390   0.52749   0.00000  Uiso   1.00
C812   C     0.49937   0.75291   0.97298   0.00000  Uiso   1.00
C813   C     0.40154   0.74887   0.73796   0.00000  Uiso   1.00
C814   C     0.59846   0.75047   0.76210   0.00000  Uiso   1.00
C815   C     0.34664   0.74230   0.73263   0.00000  Uiso   1.00
C816   C     0.65342   0.75616   0.76780   0.00000  Uiso   1.00
C817   C     0.45630   0.54589   0.76357   0.00000  Uiso   1.00
C818   C     0.46017   0.95057   0.71514   0.00000  Uiso   1.00
C819   C     0.45769   0.59285   0.76590   0.00000  Uiso   1.00
C820   C     0.46042   0.90382   0.71774   0.00000  Uiso   1.00
C821   C     0.49888   0.61688   0.74961   0.00000  Uiso   1.00
C822   C     0.49888   0.88321   0.74893   0.00000  Uiso   1.00
C823   C     0.53934   0.59495   0.73290   0.00000  Uiso   1.00
C824   C     0.53700   0.90859   0.77741   0.00000  Uiso   1.00
C825   C     0.53873   0.54877   0.73259   0.00000  Uiso   1.00
C826   C     0.53591   0.95467   0.77576   0.00000  Uiso   1.00
C827   C     0.49751   0.52438   0.74750   0.00000  Uiso   1.00
C828   C     0.49771   0.97581   0.74555   0.00000  Uiso   1.00
Cu829  Cu    0.50000   0.74999   0.79822   0.00000  Uiso   1.00
Cu830  Cu    0.50000   0.75000   0.70179   0.00000  Uiso   1.00
H831   H     0.57016   0.53181   0.72004   0.00000  Uiso   1.00
H832   H     0.56498   0.97415   0.79839   0.00000  Uiso   1.00
N833   N     0.50000   0.75001   0.62935   0.00000  Uiso   1.00
N834   N     0.50000   0.74999   0.87065   0.00000  Uiso   1.00
O835   O     0.50000   0.68572   0.79071   0.00000  Uiso   1.00
O836   O     0.50000   0.81427   0.70929   0.00000  Uiso   1.00
O837   O     0.50000   0.68573   0.70928   0.00000  Uiso   1.00
O838   O     0.50000   0.81427   0.79072   0.00000  Uiso   1.00
O839   O     0.42495   0.74999   0.78132   0.00000  Uiso   1.00
O840   O     0.57505   0.75000   0.71868   0.00000  Uiso   1.00
O841   O     0.42495   0.75000   0.69989   0.00000  Uiso   1.00
O842   O     0.57505   0.75000   0.80011   0.00000  Uiso   1.00
N843   N     0.65580   0.71624   0.69241   0.00000  Uiso   1.00
H844   H     0.33825   0.68484   0.69484   0.00000  Uiso   1.00
H845   H     0.66510   0.73083   0.66066   0.00000  Uiso   1.00
N846   N     0.34460   0.78016   0.80942   0.00000  Uiso   1.00
H847   H     0.66116   0.81104   0.81023   0.00000  Uiso   1.00
H848   H     0.33744   0.76263   0.84026   0.00000  Uiso   1.00
O849   O     0.41551   0.52023   0.77595   0.00000  Uiso   1.00
H850   H     0.38387   0.53723   0.76926   0.00000  Uiso   1.00
O851   O     0.42346   0.97009   0.68263   0.00000  Uiso   1.00
H852   H     0.43322   0.50161   0.67793   0.00000  Uiso   1.00
O853   O     0.41945   0.61612   0.78290   0.00000  Uiso   1.00
H854   H     0.40432   0.59778   0.80719   0.00000  Uiso   1.00
O855   O     0.42379   0.87715   0.69041   0.00000  Uiso   1.00
H856   H     0.39842   0.89565   0.67112   0.00000  Uiso   1.00
N857   N     0.58162   0.61970   0.71726   0.00000  Uiso   1.00
H858   H     0.58432   0.61061   0.68168   0.00000  Uiso   1.00
H859   H     0.61522   0.61043   0.73854   0.00000  Uiso   1.00
N860   N     0.57782   0.88760   0.80695   0.00000  Uiso   1.00
H861   H     0.57835   0.89891   0.84229   0.00000  Uiso   1.00
H862   H     0.61241   0.89807   0.79523   0.00000  Uiso   1.00
O863   O     0.58710   0.78548   0.54409   0.00000  Uiso   1.00
H864   H     0.59064   0.77092   0.51313   0.00000  Uiso   1.00
O865   O     0.47244   0.67419   0.96702   0.00000  Uiso   1.00
H866   H     0.49144   0.67322   0.99992   0.00000  Uiso   1.00
N867   N     0.57612   0.79818   0.64041   0.00000  Uiso   1.00
H868   H     0.61265   0.78806   0.63566   0.00000  Uiso   1.00
H869   H     0.57331   0.83118   0.62910   0.00000  Uiso   1.00
N870   N     0.45329   0.67790   0.87023   0.00000  Uiso   1.00
H871   H     0.42992   0.68845   0.83968   0.00000  Uiso   1.00
H872   H     0.47981   0.65486   0.86258   0.00000  Uiso   1.00
O873   O     0.41988   0.70829   0.61573   0.00000  Uiso   1.00
H874   H     0.43448   0.69196   0.64451   0.00000  Uiso   1.00
O875   O     0.54546   0.82067   0.87783   0.00000  Uiso   1.00
H876   H     0.56741   0.80713   0.85629   0.00000  Uiso   1.00
O877   O     0.41008   0.72498   0.52132   0.00000  Uiso   1.00
H878   H     0.40725   0.74104   0.99025   0.00000  Uiso   1.00
O879   O     0.52583   0.83150   0.96826   0.00000  Uiso   1.00
H880   H     0.50858   0.83340   0.99752   0.00000  Uiso   1.00
C881   C     0.83292   0.66515   0.74995   0.00000  Uiso   1.00
C882   C     0.83340   0.83490   0.74988   0.00000  Uiso   1.00
C883   C     0.87530   0.77030   0.55971   0.00000  Uiso   1.00
C884   C     0.81759   0.71398   0.94574   0.00000  Uiso   1.00
C885   C     0.87220   0.77202   0.60987   0.00000  Uiso   1.00
C886   C     0.81313   0.71496   0.89495   0.00000  Uiso   1.00
C887   C     0.79285   0.73162   0.59873   0.00000  Uiso   1.00
C888   C     0.85302   0.78646   0.89762   0.00000  Uiso   1.00
C889   C     0.78932   0.73742   0.54849   0.00000  Uiso   1.00
C890   C     0.84751   0.79052   0.94690   0.00000  Uiso   1.00
C891   C     0.83248   0.75390   0.52749   0.00000  Uiso   1.00
C892   C     0.83270   0.75291   0.97298   0.00000  Uiso   1.00
C893   C     0.73487   0.74887   0.73796   0.00000  Uiso   1.00
C894   C     0.93179   0.75047   0.76210   0.00000  Uiso   1.00
C895   C     0.67997   0.74230   0.73263   0.00000  Uiso   1.00
C896   C     0.98675   0.75616   0.76780   0.00000  Uiso   1.00
C897   C     0.78963   0.54589   0.76357   0.00000  Uiso   1.00
C898   C     0.79350   0.95057   0.71514   0.00000  Uiso   1.00
C899   C     0.79103   0.59285   0.76590   0.00000  Uiso   1.00
C900   C     0.79375   0.90382   0.71774   0.00000  Uiso   1.00
C901   C     0.83221   0.61688   0.74961   0.00000  Uiso   1.00
C902   C     0.83222   0.88321   0.74893   0.00000  Uiso   1.00
C903   C     0.87267   0.59495   0.73290   0.00000  Uiso   1.00
C904   C     0.87034   0.90859   0.77741   0.00000  Uiso   1.00
C905   C     0.87206   0.54877   0.73259   0.00000  Uiso   1.00
C906   C     0.86924   0.95467   0.77576   0.00000  Uiso   1.00
C907   C     0.83085   0.52438   0.74750   0.00000  Uiso   1.00
C908   C     0.83104   0.97581   0.74555   0.00000  Uiso   1.00
Cu909  Cu    0.83333   0.74999   0.79822   0.00000  Uiso   1.00
Cu910  Cu    0.83333   0.75000   0.70179   0.00000  Uiso   1.00
H911   H     0.90349   0.53181   0.72004   0.00000  Uiso   1.00
H912   H     0.89831   0.97415   0.79839   0.00000  Uiso   1.00
N913   N     0.83333   0.75001   0.62935   0.00000  Uiso   1.00
N914   N     0.83333   0.74999   0.87065   0.00000  Uiso   1.00
O915   O     0.83334   0.68572   0.79071   0.00000  Uiso   1.00
O916   O     0.83333   0.81427   0.70929   0.00000  Uiso   1.00
O917   O     0.83334   0.68573   0.70928   0.00000  Uiso   1.00
O918   O     0.83333   0.81427   0.79072   0.00000  Uiso   1.00
O919   O     0.75828   0.74999   0.78132   0.00000  Uiso   1.00
O920   O     0.90839   0.75000   0.71868   0.00000  Uiso   1.00
O921   O     0.75828   0.75000   0.69989   0.00000  Uiso   1.00
O922   O     0.90839   0.75000   0.80011   0.00000  Uiso   1.00
N923   N     0.98913   0.71624   0.69241   0.00000  Uiso   1.00
H924   H     0.67158   0.68484   0.69484   0.00000  Uiso   1.00
H925   H     0.99843   0.73083   0.66066   0.00000  Uiso   1.00
N926   N     0.67794   0.78016   0.80942   0.00000  Uiso   1.00
H927   H     0.99450   0.81104   0.81023   0.00000  Uiso   1.00
H928   H     0.67077   0.76263   0.84026   0.00000  Uiso   1.00
O929   O     0.74884   0.52023   0.77595   0.00000  Uiso   1.00
H930   H     0.71720   0.53723   0.76926   0.00000  Uiso   1.00
O931   O     0.75679   0.97009   0.68263   0.00000  Uiso   1.00
H932   H     0.76655   0.50161   0.67793   0.00000  Uiso   1.00
O933   O     0.75279   0.61612   0.78290   0.00000  Uiso   1.00
H934   H     0.73765   0.59778   0.80719   0.00000  Uiso   1.00
O935   O     0.75712   0.87715   0.69041   0.00000  Uiso   1.00
H936   H     0.73176   0.89565   0.67112   0.00000  Uiso   1.00
N937   N     0.91496   0.61970   0.71726   0.00000  Uiso   1.00
H938   H     0.91765   0.61061   0.68168   0.00000  Uiso   1.00
H939   H     0.94855   0.61043   0.73854   0.00000  Uiso   1.00
N940   N     0.91115   0.88760   0.80695   0.00000  Uiso   1.00
H941   H     0.91169   0.89891   0.84229   0.00000  Uiso   1.00
H942   H     0.94574   0.89807   0.79523   0.00000  Uiso   1.00
O943   O     0.92043   0.78548   0.54409   0.00000  Uiso   1.00
H944   H     0.92397   0.77092   0.51313   0.00000  Uiso   1.00
O945   O     0.80577   0.67419   0.96702   0.00000  Uiso   1.00
H946   H     0.82477   0.67322   0.99992   0.00000  Uiso   1.00
N947   N     0.90946   0.79818   0.64041   0.00000  Uiso   1.00
H948   H     0.94598   0.78806   0.63566   0.00000  Uiso   1.00
H949   H     0.90665   0.83118   0.62910   0.00000  Uiso   1.00
N950   N     0.78662   0.67790   0.87023   0.00000  Uiso   1.00
H951   H     0.76325   0.68845   0.83968   0.00000  Uiso   1.00
H952   H     0.81314   0.65486   0.86258   0.00000  Uiso   1.00
O953   O     0.75321   0.70829   0.61573   0.00000  Uiso   1.00
H954   H     0.76781   0.69196   0.64451   0.00000  Uiso   1.00
O955   O     0.87879   0.82067   0.87783   0.00000  Uiso   1.00
H956   H     0.90074   0.80713   0.85629   0.00000  Uiso   1.00
O957   O     0.74341   0.72498   0.52132   0.00000  Uiso   1.00
H958   H     0.74058   0.74104   0.99025   0.00000  Uiso   1.00
O959   O     0.85916   0.83150   0.96826   0.00000  Uiso   1.00
H960   H     0.84192   0.83340   0.99752   0.00000  Uiso   1.00
loop_
_geom_bond_atom_site_label_1
_geom_bond_atom_site_label_2
_geom_bond_distance
_geom_bond_site_symmetry_2
_ccdc_geom_bond_type
C1     C21     1.455   .     S
C1     O37     1.296   .     A
C1     O35     1.299   .     A
C2     C22     1.459   .     S
C2     O38     1.300   .     A
C2     O36     1.297   .     A
C3     C5      1.418   .     A
C3     O63     1.381   .     S
C3     C11     1.424   .     A
C4     O65     1.382   .     S
C4     C12     1.418   .     A
C4     C6      1.412   .     A
C5     N67     1.430   .     S
C5     N33     1.371   .     A
C6     N70     1.428   .     S
C6     N34     1.383   .     A
C7     O73     1.374   .     S
C7     C9      1.408   .     A
C7     N33     1.379   .     A
C8     N34     1.382   .     A
C8     O75     1.370   .     S
C8     C10     1.412   .     A
C9     C11     1.420   .     A
C9     O77     1.382   .     S
C10    C12     1.418   .     A
C10    O79     1.381   .     S
C11    C492    1.527   1_554 S
C12    C491    1.527   .     S
C13    O41     1.299   .     A
C13    C15     1.440   .     S
C13    O39     1.288   .     A
C14    O42     1.297   .     A
C14    C16     1.439   .     S
C14    O40     1.289   .     A
C15    C176    1.354   1_455 S
C15    N203    1.440   1_455 S
C16    C95     1.354   .     S
C16    N126    1.440   .     S
C17    C27     1.406   .     A
C17    O49     1.382   .     S
C17    C19     1.417   .     A
C18    C20     1.412   .     A
C18    O51     1.384   .     S
C18    C28     1.418   .     A
C19    C21     1.407   .     A
C19    O53     1.381   .     S
C20    O55     1.385   .     S
C20    C22     1.408   .     A
C21    C23     1.404   .     A
C22    C24     1.403   .     A
C23    N57     1.434   .     S
C23    C25     1.392   .     A
C24    C26     1.391   .     A
C24    N60     1.432   .     S
C25    H31     1.084   .     S
C25    C27     1.397   .     A
C26    H32     1.084   .     S
C26    C28     1.397   .     A
C27    C268    1.466   1_545 S
C28    C267    1.466   .     S
Cu29   O42     1.969   .     S
Cu29   O38     1.949   .     S
Cu29   N34     2.028   .     S
Cu29   Cu30    2.699   .     S
Cu29   O39     1.970   .     S
Cu29   O35     1.950   .     S
Cu30   O41     1.969   .     S
Cu30   O37     1.949   .     S
Cu30   O40     1.970   .     S
Cu30   N33     2.028   .     S
Cu30   O36     1.950   .     S
N43    H45     1.044   .     S
N43    C95     1.440   .     S
N43    H124    1.046   .     S
H44    N203    1.046   1_455 S
N46    H48     1.046   .     S
N46    C176    1.440   1_455 S
N46    H207    1.046   1_455 S
H47    N126    1.046   .     S
O49    H50     0.990   .     S
O51    H292    0.989   .     S
H52    O291    0.989   1_545 S
O53    H54     0.990   .     S
O55    H56     0.989   .     S
N57    H59     1.046   .     S
N57    H58     1.046   .     S
N60    H62     1.046   .     S
N60    H61     1.046   .     S
O63    H64     0.989   .     S
O65    H66     0.990   .     S
N67    H68     1.044   .     S
N67    H69     1.045   .     S
N70    H71     1.042   .     S
N70    H72     1.044   .     S
O73    H74     0.985   .     S
O75    H76     0.986   .     S
O77    H558    0.990   1_554 S
H78    O557    0.990   .     S
O79    H80     0.990   .     S
C81    C101    1.455   .     S
C81    O117    1.296   .     A
C81    O115    1.299   .     A
C82    C102    1.459   .     S
C82    O118    1.300   .     A
C82    O116    1.297   .     A
C83    C85     1.418   .     A
C83    O143    1.381   .     S
C83    C91     1.424   .     A
C84    O145    1.382   .     S
C84    C92     1.418   .     A
C84    C86     1.412   .     A
C85    N147    1.430   .     S
C85    N113    1.371   .     A
C86    N150    1.428   .     S
C86    N114    1.383   .     A
C87    O153    1.374   .     S
C87    C89     1.408   .     A
C87    N113    1.379   .     A
C88    N114    1.382   .     A
C88    O155    1.370   .     S
C88    C90     1.412   .     A
C89    C91     1.420   .     A
C89    O157    1.382   .     S
C90    C92     1.418   .     A
C90    O159    1.381   .     S
C91    C572    1.527   1_554 S
C92    C571    1.527   .     S
C93    O121    1.299   .     A
C93    C95     1.440   .     S
C93    O119    1.288   .     A
C94    O122    1.297   .     A
C94    C96     1.439   .     S
C94    O120    1.289   .     A
C96    C175    1.354   .     S
C96    N206    1.440   .     S
C97    C107    1.406   .     A
C97    O129    1.382   .     S
C97    C99     1.417   .     A
C98    C100    1.412   .     A
C98    O131    1.384   .     S
C98    C108    1.418   .     A
C99    C101    1.407   .     A
C99    O133    1.381   .     S
C100   O135    1.385   .     S
C100   C102    1.408   .     A
C101   C103    1.404   .     A
C102   C104    1.403   .     A
C103   N137    1.434   .     S
C103   C105    1.392   .     A
C104   C106    1.391   .     A
C104   N140    1.432   .     S
C105   H111    1.084   .     S
C105   C107    1.397   .     A
C106   H112    1.084   .     S
C106   C108    1.397   .     A
C107   C348    1.466   1_545 S
C108   C347    1.466   .     S
Cu109  O122    1.969   .     S
Cu109  O118    1.949   .     S
Cu109  N114    2.028   .     S
Cu109  Cu110   2.699   .     S
Cu109  O119    1.970   .     S
Cu109  O115    1.950   .     S
Cu110  O121    1.969   .     S
Cu110  O117    1.949   .     S
Cu110  O120    1.970   .     S
Cu110  N113    2.028   .     S
Cu110  O116    1.950   .     S
N123   H125    1.044   .     S
N123   C175    1.440   .     S
N123   H204    1.046   .     S
N126   H128    1.046   .     S
H127   N206    1.046   .     S
O129   H130    0.990   .     S
O131   H372    0.989   .     S
H132   O371    0.989   1_545 S
O133   H134    0.990   .     S
O135   H136    0.989   .     S
N137   H139    1.046   .     S
N137   H138    1.046   .     S
N140   H142    1.046   .     S
N140   H141    1.046   .     S
O143   H144    0.989   .     S
O145   H146    0.990   .     S
N147   H148    1.044   .     S
N147   H149    1.045   .     S
N150   H151    1.042   .     S
N150   H152    1.044   .     S
O153   H154    0.985   .     S
O155   H156    0.986   .     S
O157   H638    0.990   1_554 S
H158   O637    0.990   .     S
O159   H160    0.990   .     S
C161   C181    1.455   .     S
C161   O197    1.296   .     A
C161   O195    1.299   .     A
C162   C182    1.459   .     S
C162   O198    1.300   .     A
C162   O196    1.297   .     A
C163   C165    1.418   .     A
C163   O223    1.381   .     S
C163   C171    1.424   .     A
C164   O225    1.382   .     S
C164   C172    1.418   .     A
C164   C166    1.412   .     A
C165   N227    1.430   .     S
C165   N193    1.371   .     A
C166   N230    1.428   .     S
C166   N194    1.383   .     A
C167   O233    1.374   .     S
C167   C169    1.408   .     A
C167   N193    1.379   .     A
C168   N194    1.382   .     A
C168   O235    1.370   .     S
C168   C170    1.412   .     A
C169   C171    1.420   .     A
C169   O237    1.382   .     S
C170   C172    1.418   .     A
C170   O239    1.381   .     S
C171   C652    1.527   1_554 S
C172   C651    1.527   .     S
C173   O201    1.299   .     A
C173   C175    1.440   .     S
C173   O199    1.288   .     A
C174   O202    1.297   .     A
C174   C176    1.439   .     S
C174   O200    1.289   .     A
C176   C15     1.354   1_655 S
C176   N46     1.440   1_655 S
C177   C187    1.406   .     A
C177   O209    1.382   .     S
C177   C179    1.417   .     A
C178   C180    1.412   .     A
C178   O211    1.384   .     S
C178   C188    1.418   .     A
C179   C181    1.407   .     A
C179   O213    1.381   .     S
C180   O215    1.385   .     S
C180   C182    1.408   .     A
C181   C183    1.404   .     A
C182   C184    1.403   .     A
C183   N217    1.434   .     S
C183   C185    1.392   .     A
C184   C186    1.391   .     A
C184   N220    1.432   .     S
C185   H191    1.084   .     S
C185   C187    1.397   .     A
C186   H192    1.084   .     S
C186   C188    1.397   .     A
C187   C428    1.466   1_545 S
C188   C427    1.466   .     S
Cu189  O202    1.969   .     S
Cu189  O198    1.949   .     S
Cu189  N194    2.028   .     S
Cu189  Cu190   2.699   .     S
Cu189  O199    1.970   .     S
Cu189  O195    1.950   .     S
Cu190  O201    1.969   .     S
Cu190  O197    1.949   .     S
Cu190  O200    1.970   .     S
Cu190  N193    2.028   .     S
Cu190  O196    1.950   .     S
N203   H205    1.044   .     S
N203   C15     1.440   1_655 S
N203   H44     1.046   1_655 S
N206   H208    1.046   .     S
H207   N46     1.046   1_655 S
O209   H210    0.990   .     S
O211   H452    0.989   .     S
H212   O451    0.989   1_545 S
O213   H214    0.990   .     S
O215   H216    0.989   .     S
N217   H219    1.046   .     S
N217   H218    1.046   .     S
N220   H222    1.046   .     S
N220   H221    1.046   .     S
O223   H224    0.989   .     S
O225   H226    0.990   .     S
N227   H228    1.044   .     S
N227   H229    1.045   .     S
N230   H231    1.042   .     S
N230   H232    1.044   .     S
O233   H234    0.985   .     S
O235   H236    0.986   .     S
O237   H718    0.990   1_554 S
H238   O717    0.990   .     S
O239   H240    0.990   .     S
C241   C261    1.455   .     S
C241   O277    1.296   .     A
C241   O275    1.299   .     A
C242   C262    1.459   .     S
C242   O278    1.300   .     A
C242   O276    1.297   .     A
C243   C245    1.418   .     A
C243   O303    1.381   .     S
C243   C251    1.424   .     A
C244   O305    1.382   .     S
C244   C252    1.418   .     A
C244   C246    1.412   .     A
C245   N307    1.430   .     S
C245   N273    1.371   .     A
C246   N310    1.428   .     S
C246   N274    1.383   .     A
C247   O313    1.374   .     S
C247   C249    1.408   .     A
C247   N273    1.379   .     A
C248   N274    1.382   .     A
C248   O315    1.370   .     S
C248   C250    1.412   .     A
C249   C251    1.420   .     A
C249   O317    1.382   .     S
C250   C252    1.418   .     A
C250   O319    1.381   .     S
C251   C732    1.527   1_554 S
C252   C731    1.527   .     S
C253   O281    1.299   .     A
C253   C255    1.440   .     S
C253   O279    1.288   .     A
C254   O282    1.297   .     A
C254   C256    1.439   .     S
C254   O280    1.289   .     A
C255   C416    1.354   1_455 S
C255   N443    1.440   1_455 S
C256   C335    1.354   .     S
C256   N366    1.440   .     S
C257   C267    1.406   .     A
C257   O289    1.382   .     S
C257   C259    1.417   .     A
C258   C260    1.412   .     A
C258   O291    1.384   .     S
C258   C268    1.418   .     A
C259   C261    1.407   .     A
C259   O293    1.381   .     S
C260   O295    1.385   .     S
C260   C262    1.408   .     A
C261   C263    1.404   .     A
C262   C264    1.403   .     A
C263   N297    1.434   .     S
C263   C265    1.392   .     A
C264   C266    1.391   .     A
C264   N300    1.432   .     S
C265   H271    1.084   .     S
C265   C267    1.397   .     A
C266   H272    1.084   .     S
C266   C268    1.397   .     A
C268   C27     1.466   1_565 S
Cu269  O282    1.969   .     S
Cu269  O278    1.949   .     S
Cu269  N274    2.028   .     S
Cu269  Cu270   2.699   .     S
Cu269  O279    1.970   .     S
Cu269  O275    1.950   .     S
Cu270  O281    1.969   .     S
Cu270  O277    1.949   .     S
Cu270  O280    1.970   .     S
Cu270  N273    2.028   .     S
Cu270  O276    1.950   .     S
N283   H285    1.044   .     S
N283   C335    1.440   .     S
N283   H364    1.046   .     S
H284   N443    1.046   1_455 S
N286   H288    1.046   .     S
N286   C416    1.440   1_455 S
N286   H447    1.046   1_455 S
H287   N366    1.046   .     S
O289   H290    0.990   .     S
O291   H52     0.989   1_565 S
O293   H294    0.990   .     S
O295   H296    0.989   .     S
N297   H299    1.046   .     S
N297   H298    1.046   .     S
N300   H302    1.046   .     S
N300   H301    1.046   .     S
O303   H304    0.989   .     S
O305   H306    0.990   .     S
N307   H308    1.044   .     S
N307   H309    1.045   .     S
N310   H311    1.042   .     S
N310   H312    1.044   .     S
O313   H314    0.985   .     S
O315   H316    0.986   .     S
O317   H798    0.990   1_554 S
H318   O797    0.990   .     S
O319   H320    0.990   .     S
C321   C341    1.455   .     S
C321   O357    1.296   .     A
C321   O355    1.299   .     A
C322   C342    1.459   .     S
C322   O358    1.300   .     A
C322   O356    1.297   .     A
C323   C325    1.418   .     A
C323   O383    1.381   .     S
C323   C331    1.424   .     A
C324   O385    1.382   .     S
C324   C332    1.418   .     A
C324   C326    1.412   .     A
C325   N387    1.430   .     S
C325   N353    1.371   .     A
C326   N390    1.428   .     S
C326   N354    1.383   .     A
C327   O393    1.374   .     S
C327   C329    1.408   .     A
C327   N353    1.379   .     A
C328   N354    1.382   .     A
C328   O395    1.370   .     S
C328   C330    1.412   .     A
C329   C331    1.420   .     A
C329   O397    1.382   .     S
C330   C332    1.418   .     A
C330   O399    1.381   .     S
C331   C812    1.527   1_554 S
C332   C811    1.527   .     S
C333   O361    1.299   .     A
C333   C335    1.440   .     S
C333   O359    1.288   .     A
C334   O362    1.297   .     A
C334   C336    1.439   .     S
C334   O360    1.289   .     A
C336   C415    1.354   .     S
C336   N446    1.440   .     S
C337   C347    1.406   .     A
C337   O369    1.382   .     S
C337   C339    1.417   .     A
C338   C340    1.412   .     A
C338   O371    1.384   .     S
C338   C348    1.418   .     A
C339   C341    1.407   .     A
C339   O373    1.381   .     S
C340   O375    1.385   .     S
C340   C342    1.408   .     A
C341   C343    1.404   .     A
C342   C344    1.403   .     A
C343   N377    1.434   .     S
C343   C345    1.392   .     A
C344   C346    1.391   .     A
C344   N380    1.432   .     S
C345   H351    1.084   .     S
C345   C347    1.397   .     A
C346   H352    1.084   .     S
C346   C348    1.397   .     A
C348   C107    1.466   1_565 S
Cu349  O362    1.969   .     S
Cu349  O358    1.949   .     S
Cu349  N354    2.028   .     S
Cu349  Cu350   2.699   .     S
Cu349  O359    1.970   .     S
Cu349  O355    1.950   .     S
Cu350  O361    1.969   .     S
Cu350  O357    1.949   .     S
Cu350  O360    1.970   .     S
Cu350  N353    2.028   .     S
Cu350  O356    1.950   .     S
N363   H365    1.044   .     S
N363   C415    1.440   .     S
N363   H444    1.046   .     S
N366   H368    1.046   .     S
H367   N446    1.046   .     S
O369   H370    0.990   .     S
O371   H132    0.989   1_565 S
O373   H374    0.990   .     S
O375   H376    0.989   .     S
N377   H379    1.046   .     S
N377   H378    1.046   .     S
N380   H382    1.046   .     S
N380   H381    1.046   .     S
O383   H384    0.989   .     S
O385   H386    0.990   .     S
N387   H388    1.044   .     S
N387   H389    1.045   .     S
N390   H391    1.042   .     S
N390   H392    1.044   .     S
O393   H394    0.985   .     S
O395   H396    0.986   .     S
O397   H878    0.990   1_554 S
H398   O877    0.990   .     S
O399   H400    0.990   .     S
C401   C421    1.455   .     S
C401   O437    1.296   .     A
C401   O435    1.299   .     A
C402   C422    1.459   .     S
C402   O438    1.300   .     A
C402   O436    1.297   .     A
C403   C405    1.418   .     A
C403   O463    1.381   .     S
C403   C411    1.424   .     A
C404   O465    1.382   .     S
C404   C412    1.418   .     A
C404   C406    1.412   .     A
C405   N467    1.430   .     S
C405   N433    1.371   .     A
C406   N470    1.428   .     S
C406   N434    1.383   .     A
C407   O473    1.374   .     S
C407   C409    1.408   .     A
C407   N433    1.379   .     A
C408   N434    1.382   .     A
C408   O475    1.370   .     S
C408   C410    1.412   .     A
C409   C411    1.420   .     A
C409   O477    1.382   .     S
C410   C412    1.418   .     A
C410   O479    1.381   .     S
C411   C892    1.527   1_554 S
C412   C891    1.527   .     S
C413   O441    1.299   .     A
C413   C415    1.440   .     S
C413   O439    1.288   .     A
C414   O442    1.297   .     A
C414   C416    1.439   .     S
C414   O440    1.289   .     A
C416   C255    1.354   1_655 S
C416   N286    1.440   1_655 S
C417   C427    1.406   .     A
C417   O449    1.382   .     S
C417   C419    1.417   .     A
C418   C420    1.412   .     A
C418   O451    1.384   .     S
C418   C428    1.418   .     A
C419   C421    1.407   .     A
C419   O453    1.381   .     S
C420   O455    1.385   .     S
C420   C422    1.408   .     A
C421   C423    1.404   .     A
C422   C424    1.403   .     A
C423   N457    1.434   .     S
C423   C425    1.392   .     A
C424   C426    1.391   .     A
C424   N460    1.432   .     S
C425   H431    1.084   .     S
C425   C427    1.397   .     A
C426   H432    1.084   .     S
C426   C428    1.397   .     A
C428   C187    1.466   1_565 S
Cu429  O442    1.969   .     S
Cu429  O438    1.949   .     S
Cu429  N434    2.028   .     S
Cu429  Cu430   2.699   .     S
Cu429  O439    1.970   .     S
Cu429  O435    1.950   .     S
Cu430  O441    1.969   .     S
Cu430  O437    1.949   .     S
Cu430  O440    1.970   .     S
Cu430  N433    2.028   .     S
Cu430  O436    1.950   .     S
N443   H445    1.044   .     S
N443   C255    1.440   1_655 S
N443   H284    1.046   1_655 S
N446   H448    1.046   .     S
H447   N286    1.046   1_655 S
O449   H450    0.990   .     S
O451   H212    0.989   1_565 S
O453   H454    0.990   .     S
O455   H456    0.989   .     S
N457   H459    1.046   .     S
N457   H458    1.046   .     S
N460   H462    1.046   .     S
N460   H461    1.046   .     S
O463   H464    0.989   .     S
O465   H466    0.990   .     S
N467   H468    1.044   .     S
N467   H469    1.045   .     S
N470   H471    1.042   .     S
N470   H472    1.044   .     S
O473   H474    0.985   .     S
O475   H476    0.986   .     S
O477   H958    0.990   1_554 S
H478   O957    0.990   .     S
O479   H480    0.990   .     S
C481   C501    1.455   .     S
C481   O517    1.296   .     A
C481   O515    1.299   .     A
C482   C502    1.459   .     S
C482   O518    1.300   .     A
C482   O516    1.297   .     A
C483   C485    1.418   .     A
C483   O543    1.381   .     S
C483   C491    1.424   .     A
C484   O545    1.382   .     S
C484   C492    1.418   .     A
C484   C486    1.412   .     A
C485   N547    1.430   .     S
C485   N513    1.371   .     A
C486   N550    1.428   .     S
C486   N514    1.383   .     A
C487   O553    1.374   .     S
C487   C489    1.408   .     A
C487   N513    1.379   .     A
C488   N514    1.382   .     A
C488   O555    1.370   .     S
C488   C490    1.412   .     A
C489   C491    1.420   .     A
C489   O557    1.382   .     S
C490   C492    1.418   .     A
C490   O559    1.381   .     S
C492   C11     1.527   1_556 S
C493   O521    1.299   .     A
C493   C495    1.440   .     S
C493   O519    1.288   .     A
C494   O522    1.297   .     A
C494   C496    1.439   .     S
C494   O520    1.289   .     A
C495   C656    1.354   1_455 S
C495   N683    1.440   1_455 S
C496   C575    1.354   .     S
C496   N606    1.440   .     S
C497   C507    1.406   .     A
C497   O529    1.382   .     S
C497   C499    1.417   .     A
C498   C500    1.412   .     A
C498   O531    1.384   .     S
C498   C508    1.418   .     A
C499   C501    1.407   .     A
C499   O533    1.381   .     S
C500   O535    1.385   .     S
C500   C502    1.408   .     A
C501   C503    1.404   .     A
C502   C504    1.403   .     A
C503   N537    1.434   .     S
C503   C505    1.392   .     A
C504   C506    1.391   .     A
C504   N540    1.432   .     S
C505   H511    1.084   .     S
C505   C507    1.397   .     A
C506   H512    1.084   .     S
C506   C508    1.397   .     A
C507   C748    1.466   1_545 S
C508   C747    1.466   .     S
Cu509  O522    1.969   .     S
Cu509  O518    1.949   .     S
Cu509  N514    2.028   .     S
Cu509  Cu510   2.699   .     S
Cu509  O519    1.970   .     S
Cu509  O515    1.950   .     S
Cu510  O521    1.969   .     S
Cu510  O517    1.949   .     S
Cu510  O520    1.970   .     S
Cu510  N513    2.028   .     S
Cu510  O516    1.950   .     S
N523   H525    1.044   .     S
N523   C575    1.440   .     S
N523   H604    1.046   .     S
H524   N683    1.046   1_455 S
N526   H528    1.046   .     S
N526   C656    1.440   1_455 S
N526   H687    1.046   1_455 S
H527   N606    1.046   .     S
O529   H530    0.990   .     S
O531   H772    0.989   .     S
H532   O771    0.989   1_545 S
O533   H534    0.990   .     S
O535   H536    0.989   .     S
N537   H539    1.046   .     S
N537   H538    1.046   .     S
N540   H542    1.046   .     S
N540   H541    1.046   .     S
O543   H544    0.989   .     S
O545   H546    0.990   .     S
N547   H548    1.044   .     S
N547   H549    1.045   .     S
N550   H551    1.042   .     S
N550   H552    1.044   .     S
O553   H554    0.985   .     S
O555   H556    0.986   .     S
H558   O77     0.990   1_556 S
O559   H560    0.990   .     S
C561   C581    1.455   .     S
C561   O597    1.296   .     A
C561   O595    1.299   .     A
C562   C582    1.459   .     S
C562   O598    1.300   .     A
C562   O596    1.297   .     A
C563   C565    1.418   .     A
C563   O623    1.381   .     S
C563   C571    1.424   .     A
C564   O625    1.382   .     S
C564   C572    1.418   .     A
C564   C566    1.412   .     A
C565   N627    1.430   .     S
C565   N593    1.371   .     A
C566   N630    1.428   .     S
C566   N594    1.383   .     A
C567   O633    1.374   .     S
C567   C569    1.408   .     A
C567   N593    1.379   .     A
C568   N594    1.382   .     A
C568   O635    1.370   .     S
C568   C570    1.412   .     A
C569   C571    1.420   .     A
C569   O637    1.382   .     S
C570   C572    1.418   .     A
C570   O639    1.381   .     S
C572   C91     1.527   1_556 S
C573   O601    1.299   .     A
C573   C575    1.440   .     S
C573   O599    1.288   .     A
C574   O602    1.297   .     A
C574   C576    1.439   .     S
C574   O600    1.289   .     A
C576   C655    1.354   .     S
C576   N686    1.440   .     S
C577   C587    1.406   .     A
C577   O609    1.382   .     S
C577   C579    1.417   .     A
C578   C580    1.412   .     A
C578   O611    1.384   .     S
C578   C588    1.418   .     A
C579   C581    1.407   .     A
C579   O613    1.381   .     S
C580   O615    1.385   .     S
C580   C582    1.408   .     A
C581   C583    1.404   .     A
C582   C584    1.403   .     A
C583   N617    1.434   .     S
C583   C585    1.392   .     A
C584   C586    1.391   .     A
C584   N620    1.432   .     S
C585   H591    1.084   .     S
C585   C587    1.397   .     A
C586   H592    1.084   .     S
C586   C588    1.397   .     A
C587   C828    1.466   1_545 S
C588   C827    1.466   .     S
Cu589  O602    1.969   .     S
Cu589  O598    1.949   .     S
Cu589  N594    2.028   .     S
Cu589  Cu590   2.699   .     S
Cu589  O599    1.970   .     S
Cu589  O595    1.950   .     S
Cu590  O601    1.969   .     S
Cu590  O597    1.949   .     S
Cu590  O600    1.970   .     S
Cu590  N593    2.028   .     S
Cu590  O596    1.950   .     S
N603   H605    1.044   .     S
N603   C655    1.440   .     S
N603   H684    1.046   .     S
N606   H608    1.046   .     S
H607   N686    1.046   .     S
O609   H610    0.990   .     S
O611   H852    0.989   .     S
H612   O851    0.989   1_545 S
O613   H614    0.990   .     S
O615   H616    0.989   .     S
N617   H619    1.046   .     S
N617   H618    1.046   .     S
N620   H622    1.046   .     S
N620   H621    1.046   .     S
O623   H624    0.989   .     S
O625   H626    0.990   .     S
N627   H628    1.044   .     S
N627   H629    1.045   .     S
N630   H631    1.042   .     S
N630   H632    1.044   .     S
O633   H634    0.985   .     S
O635   H636    0.986   .     S
H638   O157    0.990   1_556 S
O639   H640    0.990   .     S
C641   C661    1.455   .     S
C641   O677    1.296   .     A
C641   O675    1.299   .     A
C642   C662    1.459   .     S
C642   O678    1.300   .     A
C642   O676    1.297   .     A
C643   C645    1.418   .     A
C643   O703    1.381   .     S
C643   C651    1.424   .     A
C644   O705    1.382   .     S
C644   C652    1.418   .     A
C644   C646    1.412   .     A
C645   N707    1.430   .     S
C645   N673    1.371   .     A
C646   N710    1.428   .     S
C646   N674    1.383   .     A
C647   O713    1.374   .     S
C647   C649    1.408   .     A
C647   N673    1.379   .     A
C648   N674    1.382   .     A
C648   O715    1.370   .     S
C648   C650    1.412   .     A
C649   C651    1.420   .     A
C649   O717    1.382   .     S
C650   C652    1.418   .     A
C650   O719    1.381   .     S
C652   C171    1.527   1_556 S
C653   O681    1.299   .     A
C653   C655    1.440   .     S
C653   O679    1.288   .     A
C654   O682    1.297   .     A
C654   C656    1.439   .     S
C654   O680    1.289   .     A
C656   C495    1.354   1_655 S
C656   N526    1.440   1_655 S
C657   C667    1.406   .     A
C657   O689    1.382   .     S
C657   C659    1.417   .     A
C658   C660    1.412   .     A
C658   O691    1.384   .     S
C658   C668    1.418   .     A
C659   C661    1.407   .     A
C659   O693    1.381   .     S
C660   O695    1.385   .     S
C660   C662    1.408   .     A
C661   C663    1.404   .     A
C662   C664    1.403   .     A
C663   N697    1.434   .     S
C663   C665    1.392   .     A
C664   C666    1.391   .     A
C664   N700    1.432   .     S
C665   H671    1.084   .     S
C665   C667    1.397   .     A
C666   H672    1.084   .     S
C666   C668    1.397   .     A
C667   C908    1.466   1_545 S
C668   C907    1.466   .     S
Cu669  O682    1.969   .     S
Cu669  O678    1.949   .     S
Cu669  N674    2.028   .     S
Cu669  Cu670   2.699   .     S
Cu669  O679    1.970   .     S
Cu669  O675    1.950   .     S
Cu670  O681    1.969   .     S
Cu670  O677    1.949   .     S
Cu670  O680    1.970   .     S
Cu670  N673    2.028   .     S
Cu670  O676    1.950   .     S
N683   H685    1.044   .     S
N683   C495    1.440   1_655 S
N683   H524    1.046   1_655 S
N686   H688    1.046   .     S
H687   N526    1.046   1_655 S
O689   H690    0.990   .     S
O691   H932    0.989   .     S
H692   O931    0.989   1_545 S
O693   H694    0.990   .     S
O695   H696    0.989   .     S
N697   H699    1.046   .     S
N697   H698    1.046   .     S
N700   H702    1.046   .     S
N700   H701    1.046   .     S
O703   H704    0.989   .     S
O705   H706    0.990   .     S
N707   H708    1.044   .     S
N707   H709    1.045   .     S
N710   H711    1.042   .     S
N710   H712    1.044   .     S
O713   H714    0.985   .     S
O715   H716    0.986   .     S
H718   O237    0.990   1_556 S
O719   H720    0.990   .     S
C721   C741    1.455   .     S
C721   O757    1.296   .     A
C721   O755    1.299   .     A
C722   C742    1.459   .     S
C722   O758    1.300   .     A
C722   O756    1.297   .     A
C723   C725    1.418   .     A
C723   O783    1.381   .     S
C723   C731    1.424   .     A
C724   O785    1.382   .     S
C724   C732    1.418   .     A
C724   C726    1.412   .     A
C725   N787    1.430   .     S
C725   N753    1.371   .     A
C726   N790    1.428   .     S
C726   N754    1.383   .     A
C727   O793    1.374   .     S
C727   C729    1.408   .     A
C727   N753    1.379   .     A
C728   N754    1.382   .     A
C728   O795    1.370   .     S
C728   C730    1.412   .     A
C729   C731    1.420   .     A
C729   O797    1.382   .     S
C730   C732    1.418   .     A
C730   O799    1.381   .     S
C732   C251    1.527   1_556 S
C733   O761    1.299   .     A
C733   C735    1.440   .     S
C733   O759    1.288   .     A
C734   O762    1.297   .     A
C734   C736    1.439   .     S
C734   O760    1.289   .     A
C735   C896    1.354   1_455 S
C735   N923    1.440   1_455 S
C736   C815    1.354   .     S
C736   N846    1.440   .     S
C737   C747    1.406   .     A
C737   O769    1.382   .     S
C737   C739    1.417   .     A
C738   C740    1.412   .     A
C738   O771    1.384   .     S
C738   C748    1.418   .     A
C739   C741    1.407   .     A
C739   O773    1.381   .     S
C740   O775    1.385   .     S
C740   C742    1.408   .     A
C741   C743    1.404   .     A
C742   C744    1.403   .     A
C743   N777    1.434   .     S
C743   C745    1.392   .     A
C744   C746    1.391   .     A
C744   N780    1.432   .     S
C745   H751    1.084   .     S
C745   C747    1.397   .     A
C746   H752    1.084   .     S
C746   C748    1.397   .     A
C748   C507    1.466   1_565 S
Cu749  O762    1.969   .     S
Cu749  O758    1.949   .     S
Cu749  N754    2.028   .     S
Cu749  Cu750   2.699   .     S
Cu749  O759    1.970   .     S
Cu749  O755    1.950   .     S
Cu750  O761    1.969   .     S
Cu750  O757    1.949   .     S
Cu750  O760    1.970   .     S
Cu750  N753    2.028   .     S
Cu750  O756    1.950   .     S
N763   H765    1.044   .     S
N763   C815    1.440   .     S
N763   H844    1.046   .     S
H764   N923    1.046   1_455 S
N766   H768    1.046   .     S
N766   C896    1.440   1_455 S
N766   H927    1.046   1_455 S
H767   N846    1.046   .     S
O769   H770    0.990   .     S
O771   H532    0.989   1_565 S
O773   H774    0.990   .     S
O775   H776    0.989   .     S
N777   H779    1.046   .     S
N777   H778    1.046   .     S
N780   H782    1.046   .     S
N780   H781    1.046   .     S
O783   H784    0.989   .     S
O785   H786    0.990   .     S
N787   H788    1.044   .     S
N787   H789    1.045   .     S
N790   H791    1.042   .     S
N790   H792    1.044   .     S
O793   H794    0.985   .     S
O795   H796    0.986   .     S
H798   O317    0.990   1_556 S
O799   H800    0.990   .     S
C801   C821    1.455   .     S
C801   O837    1.296   .     A
C801   O835    1.299   .     A
C802   C822    1.459   .     S
C802   O838    1.300   .     A
C802   O836    1.297   .     A
C803   C805    1.418   .     A
C803   O863    1.381   .     S
C803   C811    1.424   .     A
C804   O865    1.382   .     S
C804   C812    1.418   .     A
C804   C806    1.412   .     A
C805   N867    1.430   .     S
C805   N833    1.371   .     A
C806   N870    1.428   .     S
C806   N834    1.383   .     A
C807   O873    1.374   .     S
C807   C809    1.408   .     A
C807   N833    1.379   .     A
C808   N834    1.382   .     A
C808   O875    1.370   .     S
C808   C810    1.412   .     A
C809   C811    1.420   .     A
C809   O877    1.382   .     S
C810   C812    1.418   .     A
C810   O879    1.381   .     S
C812   C331    1.527   1_556 S
C813   O841    1.299   .     A
C813   C815    1.440   .     S
C813   O839    1.288   .     A
C814   O842    1.297   .     A
C814   C816    1.439   .     S
C814   O840    1.289   .     A
C816   C895    1.354   .     S
C816   N926    1.440   .     S
C817   C827    1.406   .     A
C817   O849    1.382   .     S
C817   C819    1.417   .     A
C818   C820    1.412   .     A
C818   O851    1.384   .     S
C818   C828    1.418   .     A
C819   C821    1.407   .     A
C819   O853    1.381   .     S
C820   O855    1.385   .     S
C820   C822    1.408   .     A
C821   C823    1.404   .     A
C822   C824    1.403   .     A
C823   N857    1.434   .     S
C823   C825    1.392   .     A
C824   C826    1.391   .     A
C824   N860    1.432   .     S
C825   H831    1.084   .     S
C825   C827    1.397   .     A
C826   H832    1.084   .     S
C826   C828    1.397   .     A
C828   C587    1.466   1_565 S
Cu829  O842    1.969   .     S
Cu829  O838    1.949   .     S
Cu829  N834    2.028   .     S
Cu829  Cu830   2.699   .     S
Cu829  O839    1.970   .     S
Cu829  O835    1.950   .     S
Cu830  O841    1.969   .     S
Cu830  O837    1.949   .     S
Cu830  O840    1.970   .     S
Cu830  N833    2.028   .     S
Cu830  O836    1.950   .     S
N843   H845    1.044   .     S
N843   C895    1.440   .     S
N843   H924    1.046   .     S
N846   H848    1.046   .     S
H847   N926    1.046   .     S
O849   H850    0.990   .     S
O851   H612    0.989   1_565 S
O853   H854    0.990   .     S
O855   H856    0.989   .     S
N857   H859    1.046   .     S
N857   H858    1.046   .     S
N860   H862    1.046   .     S
N860   H861    1.046   .     S
O863   H864    0.989   .     S
O865   H866    0.990   .     S
N867   H868    1.044   .     S
N867   H869    1.045   .     S
N870   H871    1.042   .     S
N870   H872    1.044   .     S
O873   H874    0.985   .     S
O875   H876    0.986   .     S
H878   O397    0.990   1_556 S
O879   H880    0.990   .     S
C881   C901    1.455   .     S
C881   O917    1.296   .     A
C881   O915    1.299   .     A
C882   C902    1.459   .     S
C882   O918    1.300   .     A
C882   O916    1.297   .     A
C883   C885    1.418   .     A
C883   O943    1.381   .     S
C883   C891    1.424   .     A
C884   O945    1.382   .     S
C884   C892    1.418   .     A
C884   C886    1.412   .     A
C885   N947    1.430   .     S
C885   N913    1.371   .     A
C886   N950    1.428   .     S
C886   N914    1.383   .     A
C887   O953    1.374   .     S
C887   C889    1.408   .     A
C887   N913    1.379   .     A
C888   N914    1.382   .     A
C888   O955    1.370   .     S
C888   C890    1.412   .     A
C889   C891    1.420   .     A
C889   O957    1.382   .     S
C890   C892    1.418   .     A
C890   O959    1.381   .     S
C892   C411    1.527   1_556 S
C893   O921    1.299   .     A
C893   C895    1.440   .     S
C893   O919    1.288   .     A
C894   O922    1.297   .     A
C894   C896    1.439   .     S
C894   O920    1.289   .     A
C896   C735    1.354   1_655 S
C896   N766    1.440   1_655 S
C897   C907    1.406   .     A
C897   O929    1.382   .     S
C897   C899    1.417   .     A
C898   C900    1.412   .     A
C898   O931    1.384   .     S
C898   C908    1.418   .     A
C899   C901    1.407   .     A
C899   O933    1.381   .     S
C900   O935    1.385   .     S
C900   C902    1.408   .     A
C901   C903    1.404   .     A
C902   C904    1.403   .     A
C903   N937    1.434   .     S
C903   C905    1.392   .     A
C904   C906    1.391   .     A
C904   N940    1.432   .     S
C905   H911    1.084   .     S
C905   C907    1.397   .     A
C906   H912    1.084   .     S
C906   C908    1.397   .     A
C908   C667    1.466   1_565 S
Cu909  O922    1.969   .     S
Cu909  O918    1.949   .     S
Cu909  N914    2.028   .     S
Cu909  Cu910   2.699   .     S
Cu909  O919    1.970   .     S
Cu909  O915    1.950   .     S
Cu910  O921    1.969   .     S
Cu910  O917    1.949   .     S
Cu910  O920    1.970   .     S
Cu910  N913    2.028   .     S
Cu910  O916    1.950   .     S
N923   H925    1.044   .     S
N923   C735    1.440   1_655 S
N923   H764    1.046   1_655 S
N926   H928    1.046   .     S
H927   N766    1.046   1_655 S
O929   H930    0.990   .     S
O931   H692    0.989   1_565 S
O933   H934    0.990   .     S
O935   H936    0.989   .     S
N937   H939    1.046   .     S
N937   H938    1.046   .     S
N940   H942    1.046   .     S
N940   H941    1.046   .     S
O943   H944    0.989   .     S
O945   H946    0.990   .     S
N947   H948    1.044   .     S
N947   H949    1.045   .     S
N950   H951    1.042   .     S
N950   H952    1.044   .     S
O953   H954    0.985   .     S
O955   H956    0.986   .     S
H958   O477    0.990   1_556 S
O959   H960    0.990   .     S
