data_str_m1_o10_o16_pcu_sym.23
_audit_creation_date              2020-01-03
_audit_creation_method            'Materials Studio'
_symmetry_space_group_name_H-M    'P1'
_symmetry_Int_Tables_number       1
_symmetry_cell_setting            triclinic
loop_
_symmetry_equiv_pos_as_xyz
  x,y,z
_cell_length_a                    32.5160
_cell_length_b                    32.6420
_cell_length_c                    30.9799
_cell_angle_alpha                 96.9772
_cell_angle_beta                  74.8716
_cell_angle_gamma                 98.4960
loop_
_atom_site_label
_atom_site_type_symbol
_atom_site_fract_x
_atom_site_fract_y
_atom_site_fract_z
_atom_site_U_iso_or_equiv
_atom_site_adp_type
_atom_site_occupancy
Br1    Br    0.21782   0.06031   0.09300   0.00000  Uiso   1.00
Br2    Br    0.09677   0.32654   0.30482   0.00000  Uiso   1.00
Br3    Br    0.13672   0.28285   0.40213   0.00000  Uiso   1.00
Br4    Br    0.22335   0.25526   0.02477   0.00000  Uiso   1.00
C5     C     0.05268   0.15951   0.26015   0.00000  Uiso   1.00
C6     C     0.18025   0.16694   0.05685   0.00000  Uiso   1.00
C7     C     0.20108   0.09934   0.06094   0.00000  Uiso   1.00
C8     C     0.28072   0.17382   0.24005   0.00000  Uiso   1.00
C9     C     0.14800   0.19821   0.41873   0.00000  Uiso   1.00
C10    C     0.32660   0.17668   0.23607   0.00000  Uiso   1.00
C11    C     0.00746   0.15715   0.26378   0.00000  Uiso   1.00
C12    C     0.17982   0.32244   0.23854   0.00000  Uiso   1.00
C13    C     0.15029   0.01240   0.26428   0.00000  Uiso   1.00
C14    C     0.15659   0.05598   0.25955   0.00000  Uiso   1.00
C15    C     0.17625   0.27785   0.24048   0.00000  Uiso   1.00
C16    C     0.16692   0.25587   0.46999   0.00000  Uiso   1.00
C17    C     0.18508   0.14792   0.12935   0.00000  Uiso   1.00
C18    C     0.14893   0.18516   0.37102   0.00000  Uiso   1.00
C19    C     0.19519   0.08673   0.01811   0.00000  Uiso   1.00
C20    C     0.19157   0.13887   0.08105   0.00000  Uiso   1.00
C21    C     0.14975   0.24104   0.43365   0.00000  Uiso   1.00
C22    C     0.18132   0.22912   0.49289   0.00000  Uiso   1.00
C23    C     0.17183   0.18539   0.48459   0.00000  Uiso   1.00
C24    C     0.15614   0.16988   0.44613   0.00000  Uiso   1.00
C25    C     0.17955   0.15647   0.01157   0.00000  Uiso   1.00
C26    C     0.18168   0.11424   0.49447   0.00000  Uiso   1.00
C27    C     0.16654   0.09958   0.45642   0.00000  Uiso   1.00
C28    C     0.15045   0.12637   0.43515   0.00000  Uiso   1.00
F29    F     0.16336   0.05849   0.44206   0.00000  Uiso   1.00
F30    F     0.20088   0.04712   0.00066   0.00000  Uiso   1.00
F31    F     0.16253   0.20087   0.07989   0.00000  Uiso   1.00
F32    F     0.12820   0.10907   0.40458   0.00000  Uiso   1.00
F33    F     0.02119   0.19920   0.20412   0.00000  Uiso   1.00
H34    H     0.31913   0.13904   0.28952   0.00000  Uiso   1.00
H35    H     0.20780   0.00373   0.21537   0.00000  Uiso   1.00
H36    H     0.17286   0.28913   0.47785   0.00000  Uiso   1.00
O37    O     0.16667   0.16667   0.25000   0.00000  Uiso   1.00
O38    O     0.15451   0.12637   0.15458   0.00000  Uiso   1.00
O39    O     0.12940   0.20391   0.34968   0.00000  Uiso   1.00
O40    O     0.20824   0.17759   0.14606   0.00000  Uiso   1.00
O41    O     0.17451   0.15880   0.34968   0.00000  Uiso   1.00
O42    O     0.17930   0.08019   0.28213   0.00000  Uiso   1.00
O43    O     0.14632   0.26085   0.27013   0.00000  Uiso   1.00
O44    O     0.07412   0.13291   0.23413   0.00000  Uiso   1.00
O45    O     0.26693   0.19272   0.21360   0.00000  Uiso   1.00
O46    O     0.07071   0.18878   0.28213   0.00000  Uiso   1.00
O47    O     0.25491   0.15226   0.27013   0.00000  Uiso   1.00
O48    O     0.13760   0.06944   0.23413   0.00000  Uiso   1.00
O49    O     0.20345   0.25620   0.21360   0.00000  Uiso   1.00
Zn50   Zn    0.19338   0.13994   0.28734   0.00000  Uiso   1.00
Zn51   Zn    0.13379   0.12458   0.21875   0.00000  Uiso   1.00
Zn52   Zn    0.21056   0.19775   0.20657   0.00000  Uiso   1.00
Zn53   Zn    0.12893   0.20439   0.28733   0.00000  Uiso   1.00
Br54   Br    0.55116   0.06031   0.09300   0.00000  Uiso   1.00
Br55   Br    0.43010   0.32654   0.30482   0.00000  Uiso   1.00
Br56   Br    0.47006   0.28285   0.40213   0.00000  Uiso   1.00
Br57   Br    0.55668   0.25526   0.02477   0.00000  Uiso   1.00
C58    C     0.38601   0.15951   0.26015   0.00000  Uiso   1.00
C59    C     0.51358   0.16694   0.05685   0.00000  Uiso   1.00
C60    C     0.53441   0.09934   0.06094   0.00000  Uiso   1.00
C61    C     0.61406   0.17382   0.24005   0.00000  Uiso   1.00
C62    C     0.48134   0.19821   0.41873   0.00000  Uiso   1.00
C63    C     0.65993   0.17668   0.23607   0.00000  Uiso   1.00
C64    C     0.34079   0.15715   0.26378   0.00000  Uiso   1.00
C65    C     0.51316   0.32244   0.23854   0.00000  Uiso   1.00
C66    C     0.48363   0.01240   0.26428   0.00000  Uiso   1.00
C67    C     0.48992   0.05598   0.25955   0.00000  Uiso   1.00
C68    C     0.50959   0.27785   0.24048   0.00000  Uiso   1.00
C69    C     0.50026   0.25587   0.46999   0.00000  Uiso   1.00
C70    C     0.51841   0.14792   0.12935   0.00000  Uiso   1.00
C71    C     0.48226   0.18516   0.37102   0.00000  Uiso   1.00
C72    C     0.52852   0.08673   0.01811   0.00000  Uiso   1.00
C73    C     0.52490   0.13887   0.08105   0.00000  Uiso   1.00
C74    C     0.48308   0.24104   0.43365   0.00000  Uiso   1.00
C75    C     0.51466   0.22912   0.49289   0.00000  Uiso   1.00
C76    C     0.50517   0.18539   0.48459   0.00000  Uiso   1.00
C77    C     0.48947   0.16988   0.44613   0.00000  Uiso   1.00
C78    C     0.51288   0.15647   0.01157   0.00000  Uiso   1.00
C79    C     0.51502   0.11424   0.49447   0.00000  Uiso   1.00
C80    C     0.49987   0.09958   0.45642   0.00000  Uiso   1.00
C81    C     0.48378   0.12637   0.43515   0.00000  Uiso   1.00
F82    F     0.49669   0.05849   0.44206   0.00000  Uiso   1.00
F83    F     0.53422   0.04712   0.00066   0.00000  Uiso   1.00
F84    F     0.49587   0.20087   0.07989   0.00000  Uiso   1.00
F85    F     0.46153   0.10907   0.40458   0.00000  Uiso   1.00
F86    F     0.35452   0.19920   0.20412   0.00000  Uiso   1.00
H87    H     0.65246   0.13904   0.28952   0.00000  Uiso   1.00
H88    H     0.54113   0.00373   0.21537   0.00000  Uiso   1.00
H89    H     0.50619   0.28913   0.47785   0.00000  Uiso   1.00
O90    O     0.50000   0.16667   0.25000   0.00000  Uiso   1.00
O91    O     0.48784   0.12637   0.15458   0.00000  Uiso   1.00
O92    O     0.46274   0.20391   0.34968   0.00000  Uiso   1.00
O93    O     0.54157   0.17759   0.14606   0.00000  Uiso   1.00
O94    O     0.50785   0.15880   0.34968   0.00000  Uiso   1.00
O95    O     0.51264   0.08019   0.28213   0.00000  Uiso   1.00
O96    O     0.47965   0.26085   0.27013   0.00000  Uiso   1.00
O97    O     0.40745   0.13291   0.23413   0.00000  Uiso   1.00
O98    O     0.60026   0.19272   0.21360   0.00000  Uiso   1.00
O99    O     0.40405   0.18878   0.28213   0.00000  Uiso   1.00
O100   O     0.58824   0.15226   0.27013   0.00000  Uiso   1.00
O101   O     0.47093   0.06944   0.23413   0.00000  Uiso   1.00
O102   O     0.53678   0.25620   0.21360   0.00000  Uiso   1.00
Zn103  Zn    0.52672   0.13994   0.28734   0.00000  Uiso   1.00
Zn104  Zn    0.46713   0.12458   0.21875   0.00000  Uiso   1.00
Zn105  Zn    0.54389   0.19775   0.20657   0.00000  Uiso   1.00
Zn106  Zn    0.46226   0.20439   0.28733   0.00000  Uiso   1.00
Br107  Br    0.88449   0.06031   0.09300   0.00000  Uiso   1.00
Br108  Br    0.76343   0.32654   0.30482   0.00000  Uiso   1.00
Br109  Br    0.80339   0.28285   0.40213   0.00000  Uiso   1.00
Br110  Br    0.89001   0.25526   0.02477   0.00000  Uiso   1.00
C111   C     0.71935   0.15951   0.26015   0.00000  Uiso   1.00
C112   C     0.84691   0.16694   0.05685   0.00000  Uiso   1.00
C113   C     0.86774   0.09934   0.06094   0.00000  Uiso   1.00
C114   C     0.94739   0.17382   0.24005   0.00000  Uiso   1.00
C115   C     0.81467   0.19821   0.41873   0.00000  Uiso   1.00
C116   C     0.99326   0.17668   0.23607   0.00000  Uiso   1.00
C117   C     0.67413   0.15715   0.26378   0.00000  Uiso   1.00
C118   C     0.84649   0.32244   0.23854   0.00000  Uiso   1.00
C119   C     0.81696   0.01240   0.26428   0.00000  Uiso   1.00
C120   C     0.82325   0.05598   0.25955   0.00000  Uiso   1.00
C121   C     0.84292   0.27785   0.24048   0.00000  Uiso   1.00
C122   C     0.83359   0.25587   0.46999   0.00000  Uiso   1.00
C123   C     0.85174   0.14792   0.12935   0.00000  Uiso   1.00
C124   C     0.81559   0.18516   0.37102   0.00000  Uiso   1.00
C125   C     0.86186   0.08673   0.01811   0.00000  Uiso   1.00
C126   C     0.85823   0.13887   0.08105   0.00000  Uiso   1.00
C127   C     0.81642   0.24104   0.43365   0.00000  Uiso   1.00
C128   C     0.84799   0.22912   0.49289   0.00000  Uiso   1.00
C129   C     0.83850   0.18539   0.48459   0.00000  Uiso   1.00
C130   C     0.82281   0.16988   0.44613   0.00000  Uiso   1.00
C131   C     0.84621   0.15647   0.01157   0.00000  Uiso   1.00
C132   C     0.84835   0.11424   0.49447   0.00000  Uiso   1.00
C133   C     0.83321   0.09958   0.45642   0.00000  Uiso   1.00
C134   C     0.81711   0.12637   0.43515   0.00000  Uiso   1.00
F135   F     0.83003   0.05849   0.44206   0.00000  Uiso   1.00
F136   F     0.86755   0.04712   0.00066   0.00000  Uiso   1.00
F137   F     0.82920   0.20087   0.07989   0.00000  Uiso   1.00
F138   F     0.79486   0.10907   0.40458   0.00000  Uiso   1.00
F139   F     0.68785   0.19920   0.20412   0.00000  Uiso   1.00
H140   H     0.98579   0.13904   0.28952   0.00000  Uiso   1.00
H141   H     0.87447   0.00373   0.21537   0.00000  Uiso   1.00
H142   H     0.83952   0.28913   0.47785   0.00000  Uiso   1.00
O143   O     0.83333   0.16667   0.25000   0.00000  Uiso   1.00
O144   O     0.82118   0.12637   0.15458   0.00000  Uiso   1.00
O145   O     0.79607   0.20391   0.34968   0.00000  Uiso   1.00
O146   O     0.87491   0.17759   0.14606   0.00000  Uiso   1.00
O147   O     0.84118   0.15880   0.34968   0.00000  Uiso   1.00
O148   O     0.84597   0.08019   0.28213   0.00000  Uiso   1.00
O149   O     0.81298   0.26085   0.27013   0.00000  Uiso   1.00
O150   O     0.74078   0.13291   0.23413   0.00000  Uiso   1.00
O151   O     0.93360   0.19272   0.21360   0.00000  Uiso   1.00
O152   O     0.73738   0.18878   0.28213   0.00000  Uiso   1.00
O153   O     0.92158   0.15226   0.27013   0.00000  Uiso   1.00
O154   O     0.80426   0.06944   0.23413   0.00000  Uiso   1.00
O155   O     0.87012   0.25620   0.21360   0.00000  Uiso   1.00
Zn156  Zn    0.86005   0.13994   0.28734   0.00000  Uiso   1.00
Zn157  Zn    0.80046   0.12458   0.21875   0.00000  Uiso   1.00
Zn158  Zn    0.87723   0.19775   0.20657   0.00000  Uiso   1.00
Zn159  Zn    0.79560   0.20439   0.28733   0.00000  Uiso   1.00
Br160  Br    0.21782   0.39365   0.09300   0.00000  Uiso   1.00
Br161  Br    0.09677   0.65987   0.30482   0.00000  Uiso   1.00
Br162  Br    0.13672   0.61618   0.40213   0.00000  Uiso   1.00
Br163  Br    0.22335   0.58859   0.02477   0.00000  Uiso   1.00
C164   C     0.05268   0.49284   0.26015   0.00000  Uiso   1.00
C165   C     0.18025   0.50027   0.05685   0.00000  Uiso   1.00
C166   C     0.20108   0.43267   0.06094   0.00000  Uiso   1.00
C167   C     0.28072   0.50715   0.24005   0.00000  Uiso   1.00
C168   C     0.14800   0.53154   0.41873   0.00000  Uiso   1.00
C169   C     0.32660   0.51001   0.23607   0.00000  Uiso   1.00
C170   C     0.00746   0.49048   0.26378   0.00000  Uiso   1.00
C171   C     0.17982   0.65578   0.23854   0.00000  Uiso   1.00
C172   C     0.15029   0.34574   0.26428   0.00000  Uiso   1.00
C173   C     0.15659   0.38931   0.25955   0.00000  Uiso   1.00
C174   C     0.17625   0.61118   0.24048   0.00000  Uiso   1.00
C175   C     0.16692   0.58921   0.46999   0.00000  Uiso   1.00
C176   C     0.18508   0.48125   0.12935   0.00000  Uiso   1.00
C177   C     0.14893   0.51849   0.37102   0.00000  Uiso   1.00
C178   C     0.19519   0.42006   0.01811   0.00000  Uiso   1.00
C179   C     0.19157   0.47220   0.08105   0.00000  Uiso   1.00
C180   C     0.14975   0.57438   0.43365   0.00000  Uiso   1.00
C181   C     0.18132   0.56246   0.49289   0.00000  Uiso   1.00
C182   C     0.17183   0.51873   0.48459   0.00000  Uiso   1.00
C183   C     0.15614   0.50321   0.44613   0.00000  Uiso   1.00
C184   C     0.17955   0.48980   0.01157   0.00000  Uiso   1.00
C185   C     0.18168   0.44758   0.49447   0.00000  Uiso   1.00
C186   C     0.16654   0.43292   0.45642   0.00000  Uiso   1.00
C187   C     0.15045   0.45970   0.43515   0.00000  Uiso   1.00
F188   F     0.16336   0.39182   0.44206   0.00000  Uiso   1.00
F189   F     0.20088   0.38045   0.00066   0.00000  Uiso   1.00
F190   F     0.16253   0.53420   0.07989   0.00000  Uiso   1.00
F191   F     0.12820   0.44241   0.40458   0.00000  Uiso   1.00
F192   F     0.02119   0.53254   0.20412   0.00000  Uiso   1.00
H193   H     0.31913   0.47238   0.28952   0.00000  Uiso   1.00
H194   H     0.20780   0.33706   0.21537   0.00000  Uiso   1.00
H195   H     0.17286   0.62247   0.47785   0.00000  Uiso   1.00
O196   O     0.16667   0.50000   0.25000   0.00000  Uiso   1.00
O197   O     0.15451   0.45970   0.15458   0.00000  Uiso   1.00
O198   O     0.12940   0.53724   0.34968   0.00000  Uiso   1.00
O199   O     0.20824   0.51092   0.14606   0.00000  Uiso   1.00
O200   O     0.17451   0.49213   0.34968   0.00000  Uiso   1.00
O201   O     0.17930   0.41352   0.28213   0.00000  Uiso   1.00
O202   O     0.14632   0.59418   0.27013   0.00000  Uiso   1.00
O203   O     0.07412   0.46625   0.23413   0.00000  Uiso   1.00
O204   O     0.26693   0.52605   0.21360   0.00000  Uiso   1.00
O205   O     0.07071   0.52211   0.28213   0.00000  Uiso   1.00
O206   O     0.25491   0.48559   0.27013   0.00000  Uiso   1.00
O207   O     0.13760   0.40277   0.23413   0.00000  Uiso   1.00
O208   O     0.20345   0.58953   0.21360   0.00000  Uiso   1.00
Zn209  Zn    0.19338   0.47327   0.28734   0.00000  Uiso   1.00
Zn210  Zn    0.13379   0.45791   0.21875   0.00000  Uiso   1.00
Zn211  Zn    0.21056   0.53109   0.20657   0.00000  Uiso   1.00
Zn212  Zn    0.12893   0.53773   0.28733   0.00000  Uiso   1.00
Br213  Br    0.55116   0.39365   0.09300   0.00000  Uiso   1.00
Br214  Br    0.43010   0.65987   0.30482   0.00000  Uiso   1.00
Br215  Br    0.47006   0.61618   0.40213   0.00000  Uiso   1.00
Br216  Br    0.55668   0.58859   0.02477   0.00000  Uiso   1.00
C217   C     0.38601   0.49284   0.26015   0.00000  Uiso   1.00
C218   C     0.51358   0.50027   0.05685   0.00000  Uiso   1.00
C219   C     0.53441   0.43267   0.06094   0.00000  Uiso   1.00
C220   C     0.61406   0.50715   0.24005   0.00000  Uiso   1.00
C221   C     0.48134   0.53154   0.41873   0.00000  Uiso   1.00
C222   C     0.65993   0.51001   0.23607   0.00000  Uiso   1.00
C223   C     0.34079   0.49048   0.26378   0.00000  Uiso   1.00
C224   C     0.51316   0.65578   0.23854   0.00000  Uiso   1.00
C225   C     0.48363   0.34574   0.26428   0.00000  Uiso   1.00
C226   C     0.48992   0.38931   0.25955   0.00000  Uiso   1.00
C227   C     0.50959   0.61118   0.24048   0.00000  Uiso   1.00
C228   C     0.50026   0.58921   0.46999   0.00000  Uiso   1.00
C229   C     0.51841   0.48125   0.12935   0.00000  Uiso   1.00
C230   C     0.48226   0.51849   0.37102   0.00000  Uiso   1.00
C231   C     0.52852   0.42006   0.01811   0.00000  Uiso   1.00
C232   C     0.52490   0.47220   0.08105   0.00000  Uiso   1.00
C233   C     0.48308   0.57438   0.43365   0.00000  Uiso   1.00
C234   C     0.51466   0.56246   0.49289   0.00000  Uiso   1.00
C235   C     0.50517   0.51873   0.48459   0.00000  Uiso   1.00
C236   C     0.48947   0.50321   0.44613   0.00000  Uiso   1.00
C237   C     0.51288   0.48980   0.01157   0.00000  Uiso   1.00
C238   C     0.51502   0.44758   0.49447   0.00000  Uiso   1.00
C239   C     0.49987   0.43292   0.45642   0.00000  Uiso   1.00
C240   C     0.48378   0.45970   0.43515   0.00000  Uiso   1.00
F241   F     0.49669   0.39182   0.44206   0.00000  Uiso   1.00
F242   F     0.53422   0.38045   0.00066   0.00000  Uiso   1.00
F243   F     0.49587   0.53420   0.07989   0.00000  Uiso   1.00
F244   F     0.46153   0.44241   0.40458   0.00000  Uiso   1.00
F245   F     0.35452   0.53254   0.20412   0.00000  Uiso   1.00
H246   H     0.65246   0.47238   0.28952   0.00000  Uiso   1.00
H247   H     0.54113   0.33706   0.21537   0.00000  Uiso   1.00
H248   H     0.50619   0.62247   0.47785   0.00000  Uiso   1.00
O249   O     0.50000   0.50000   0.25000   0.00000  Uiso   1.00
O250   O     0.48784   0.45970   0.15458   0.00000  Uiso   1.00
O251   O     0.46274   0.53724   0.34968   0.00000  Uiso   1.00
O252   O     0.54157   0.51092   0.14606   0.00000  Uiso   1.00
O253   O     0.50785   0.49213   0.34968   0.00000  Uiso   1.00
O254   O     0.51264   0.41352   0.28213   0.00000  Uiso   1.00
O255   O     0.47965   0.59418   0.27013   0.00000  Uiso   1.00
O256   O     0.40745   0.46625   0.23413   0.00000  Uiso   1.00
O257   O     0.60026   0.52605   0.21360   0.00000  Uiso   1.00
O258   O     0.40405   0.52211   0.28213   0.00000  Uiso   1.00
O259   O     0.58824   0.48559   0.27013   0.00000  Uiso   1.00
O260   O     0.47093   0.40277   0.23413   0.00000  Uiso   1.00
O261   O     0.53678   0.58953   0.21360   0.00000  Uiso   1.00
Zn262  Zn    0.52672   0.47327   0.28734   0.00000  Uiso   1.00
Zn263  Zn    0.46713   0.45791   0.21875   0.00000  Uiso   1.00
Zn264  Zn    0.54389   0.53109   0.20657   0.00000  Uiso   1.00
Zn265  Zn    0.46226   0.53773   0.28733   0.00000  Uiso   1.00
Br266  Br    0.88449   0.39365   0.09300   0.00000  Uiso   1.00
Br267  Br    0.76343   0.65987   0.30482   0.00000  Uiso   1.00
Br268  Br    0.80339   0.61618   0.40213   0.00000  Uiso   1.00
Br269  Br    0.89001   0.58859   0.02477   0.00000  Uiso   1.00
C270   C     0.71935   0.49284   0.26015   0.00000  Uiso   1.00
C271   C     0.84691   0.50027   0.05685   0.00000  Uiso   1.00
C272   C     0.86774   0.43267   0.06094   0.00000  Uiso   1.00
C273   C     0.94739   0.50715   0.24005   0.00000  Uiso   1.00
C274   C     0.81467   0.53154   0.41873   0.00000  Uiso   1.00
C275   C     0.99326   0.51001   0.23607   0.00000  Uiso   1.00
C276   C     0.67413   0.49048   0.26378   0.00000  Uiso   1.00
C277   C     0.84649   0.65578   0.23854   0.00000  Uiso   1.00
C278   C     0.81696   0.34574   0.26428   0.00000  Uiso   1.00
C279   C     0.82325   0.38931   0.25955   0.00000  Uiso   1.00
C280   C     0.84292   0.61118   0.24048   0.00000  Uiso   1.00
C281   C     0.83359   0.58921   0.46999   0.00000  Uiso   1.00
C282   C     0.85174   0.48125   0.12935   0.00000  Uiso   1.00
C283   C     0.81559   0.51849   0.37102   0.00000  Uiso   1.00
C284   C     0.86186   0.42006   0.01811   0.00000  Uiso   1.00
C285   C     0.85823   0.47220   0.08105   0.00000  Uiso   1.00
C286   C     0.81642   0.57438   0.43365   0.00000  Uiso   1.00
C287   C     0.84799   0.56246   0.49289   0.00000  Uiso   1.00
C288   C     0.83850   0.51873   0.48459   0.00000  Uiso   1.00
C289   C     0.82281   0.50321   0.44613   0.00000  Uiso   1.00
C290   C     0.84621   0.48980   0.01157   0.00000  Uiso   1.00
C291   C     0.84835   0.44758   0.49447   0.00000  Uiso   1.00
C292   C     0.83321   0.43292   0.45642   0.00000  Uiso   1.00
C293   C     0.81711   0.45970   0.43515   0.00000  Uiso   1.00
F294   F     0.83003   0.39182   0.44206   0.00000  Uiso   1.00
F295   F     0.86755   0.38045   0.00066   0.00000  Uiso   1.00
F296   F     0.82920   0.53420   0.07989   0.00000  Uiso   1.00
F297   F     0.79486   0.44241   0.40458   0.00000  Uiso   1.00
F298   F     0.68785   0.53254   0.20412   0.00000  Uiso   1.00
H299   H     0.98579   0.47238   0.28952   0.00000  Uiso   1.00
H300   H     0.87447   0.33706   0.21537   0.00000  Uiso   1.00
H301   H     0.83952   0.62247   0.47785   0.00000  Uiso   1.00
O302   O     0.83333   0.50000   0.25000   0.00000  Uiso   1.00
O303   O     0.82118   0.45970   0.15458   0.00000  Uiso   1.00
O304   O     0.79607   0.53724   0.34968   0.00000  Uiso   1.00
O305   O     0.87491   0.51092   0.14606   0.00000  Uiso   1.00
O306   O     0.84118   0.49213   0.34968   0.00000  Uiso   1.00
O307   O     0.84597   0.41352   0.28213   0.00000  Uiso   1.00
O308   O     0.81298   0.59418   0.27013   0.00000  Uiso   1.00
O309   O     0.74078   0.46625   0.23413   0.00000  Uiso   1.00
O310   O     0.93360   0.52605   0.21360   0.00000  Uiso   1.00
O311   O     0.73738   0.52211   0.28213   0.00000  Uiso   1.00
O312   O     0.92158   0.48559   0.27013   0.00000  Uiso   1.00
O313   O     0.80426   0.40277   0.23413   0.00000  Uiso   1.00
O314   O     0.87012   0.58953   0.21360   0.00000  Uiso   1.00
Zn315  Zn    0.86005   0.47327   0.28734   0.00000  Uiso   1.00
Zn316  Zn    0.80046   0.45791   0.21875   0.00000  Uiso   1.00
Zn317  Zn    0.87723   0.53109   0.20657   0.00000  Uiso   1.00
Zn318  Zn    0.79560   0.53773   0.28733   0.00000  Uiso   1.00
Br319  Br    0.21782   0.72698   0.09300   0.00000  Uiso   1.00
Br320  Br    0.09677   0.99320   0.30482   0.00000  Uiso   1.00
Br321  Br    0.13672   0.94952   0.40213   0.00000  Uiso   1.00
Br322  Br    0.22335   0.92192   0.02477   0.00000  Uiso   1.00
C323   C     0.05268   0.82617   0.26015   0.00000  Uiso   1.00
C324   C     0.18025   0.83361   0.05685   0.00000  Uiso   1.00
C325   C     0.20108   0.76600   0.06094   0.00000  Uiso   1.00
C326   C     0.28072   0.84048   0.24005   0.00000  Uiso   1.00
C327   C     0.14800   0.86488   0.41873   0.00000  Uiso   1.00
C328   C     0.32660   0.84335   0.23607   0.00000  Uiso   1.00
C329   C     0.00746   0.82382   0.26378   0.00000  Uiso   1.00
C330   C     0.17982   0.98911   0.23854   0.00000  Uiso   1.00
C331   C     0.15029   0.67907   0.26428   0.00000  Uiso   1.00
C332   C     0.15659   0.72264   0.25955   0.00000  Uiso   1.00
C333   C     0.17625   0.94452   0.24048   0.00000  Uiso   1.00
C334   C     0.16692   0.92254   0.46999   0.00000  Uiso   1.00
C335   C     0.18508   0.81459   0.12935   0.00000  Uiso   1.00
C336   C     0.14893   0.85183   0.37102   0.00000  Uiso   1.00
C337   C     0.19519   0.75339   0.01811   0.00000  Uiso   1.00
C338   C     0.19157   0.80554   0.08105   0.00000  Uiso   1.00
C339   C     0.14975   0.90771   0.43365   0.00000  Uiso   1.00
C340   C     0.18132   0.89579   0.49289   0.00000  Uiso   1.00
C341   C     0.17183   0.85206   0.48459   0.00000  Uiso   1.00
C342   C     0.15614   0.83654   0.44613   0.00000  Uiso   1.00
C343   C     0.17955   0.82314   0.01157   0.00000  Uiso   1.00
C344   C     0.18168   0.78091   0.49447   0.00000  Uiso   1.00
C345   C     0.16654   0.76625   0.45642   0.00000  Uiso   1.00
C346   C     0.15045   0.79303   0.43515   0.00000  Uiso   1.00
F347   F     0.16336   0.72516   0.44206   0.00000  Uiso   1.00
F348   F     0.20088   0.71379   0.00066   0.00000  Uiso   1.00
F349   F     0.16253   0.86754   0.07989   0.00000  Uiso   1.00
F350   F     0.12820   0.77574   0.40458   0.00000  Uiso   1.00
F351   F     0.02119   0.86587   0.20412   0.00000  Uiso   1.00
H352   H     0.31913   0.80571   0.28952   0.00000  Uiso   1.00
H353   H     0.20780   0.67040   0.21537   0.00000  Uiso   1.00
H354   H     0.17286   0.95580   0.47785   0.00000  Uiso   1.00
O355   O     0.16667   0.83333   0.25000   0.00000  Uiso   1.00
O356   O     0.15451   0.79304   0.15458   0.00000  Uiso   1.00
O357   O     0.12940   0.87058   0.34968   0.00000  Uiso   1.00
O358   O     0.20824   0.84425   0.14606   0.00000  Uiso   1.00
O359   O     0.17451   0.82546   0.34968   0.00000  Uiso   1.00
O360   O     0.17930   0.74686   0.28213   0.00000  Uiso   1.00
O361   O     0.14632   0.92751   0.27013   0.00000  Uiso   1.00
O362   O     0.07412   0.79958   0.23413   0.00000  Uiso   1.00
O363   O     0.26693   0.85939   0.21360   0.00000  Uiso   1.00
O364   O     0.07071   0.85544   0.28213   0.00000  Uiso   1.00
O365   O     0.25491   0.81892   0.27013   0.00000  Uiso   1.00
O366   O     0.13760   0.73610   0.23413   0.00000  Uiso   1.00
O367   O     0.20345   0.92286   0.21360   0.00000  Uiso   1.00
Zn368  Zn    0.19338   0.80661   0.28734   0.00000  Uiso   1.00
Zn369  Zn    0.13379   0.79124   0.21875   0.00000  Uiso   1.00
Zn370  Zn    0.21056   0.86442   0.20657   0.00000  Uiso   1.00
Zn371  Zn    0.12893   0.87106   0.28733   0.00000  Uiso   1.00
Br372  Br    0.55116   0.72698   0.09300   0.00000  Uiso   1.00
Br373  Br    0.43010   0.99320   0.30482   0.00000  Uiso   1.00
Br374  Br    0.47006   0.94952   0.40213   0.00000  Uiso   1.00
Br375  Br    0.55668   0.92192   0.02477   0.00000  Uiso   1.00
C376   C     0.38601   0.82617   0.26015   0.00000  Uiso   1.00
C377   C     0.51358   0.83361   0.05685   0.00000  Uiso   1.00
C378   C     0.53441   0.76600   0.06094   0.00000  Uiso   1.00
C379   C     0.61406   0.84048   0.24005   0.00000  Uiso   1.00
C380   C     0.48134   0.86488   0.41873   0.00000  Uiso   1.00
C381   C     0.65993   0.84335   0.23607   0.00000  Uiso   1.00
C382   C     0.34079   0.82382   0.26378   0.00000  Uiso   1.00
C383   C     0.51316   0.98911   0.23854   0.00000  Uiso   1.00
C384   C     0.48363   0.67907   0.26428   0.00000  Uiso   1.00
C385   C     0.48992   0.72264   0.25955   0.00000  Uiso   1.00
C386   C     0.50959   0.94452   0.24048   0.00000  Uiso   1.00
C387   C     0.50026   0.92254   0.46999   0.00000  Uiso   1.00
C388   C     0.51841   0.81459   0.12935   0.00000  Uiso   1.00
C389   C     0.48226   0.85183   0.37102   0.00000  Uiso   1.00
C390   C     0.52852   0.75339   0.01811   0.00000  Uiso   1.00
C391   C     0.52490   0.80554   0.08105   0.00000  Uiso   1.00
C392   C     0.48308   0.90771   0.43365   0.00000  Uiso   1.00
C393   C     0.51466   0.89579   0.49289   0.00000  Uiso   1.00
C394   C     0.50517   0.85206   0.48459   0.00000  Uiso   1.00
C395   C     0.48947   0.83654   0.44613   0.00000  Uiso   1.00
C396   C     0.51288   0.82314   0.01157   0.00000  Uiso   1.00
C397   C     0.51502   0.78091   0.49447   0.00000  Uiso   1.00
C398   C     0.49987   0.76625   0.45642   0.00000  Uiso   1.00
C399   C     0.48378   0.79303   0.43515   0.00000  Uiso   1.00
F400   F     0.49669   0.72516   0.44206   0.00000  Uiso   1.00
F401   F     0.53422   0.71379   0.00066   0.00000  Uiso   1.00
F402   F     0.49587   0.86754   0.07989   0.00000  Uiso   1.00
F403   F     0.46153   0.77574   0.40458   0.00000  Uiso   1.00
F404   F     0.35452   0.86587   0.20412   0.00000  Uiso   1.00
H405   H     0.65246   0.80571   0.28952   0.00000  Uiso   1.00
H406   H     0.54113   0.67040   0.21537   0.00000  Uiso   1.00
H407   H     0.50619   0.95580   0.47785   0.00000  Uiso   1.00
O408   O     0.50000   0.83333   0.25000   0.00000  Uiso   1.00
O409   O     0.48784   0.79304   0.15458   0.00000  Uiso   1.00
O410   O     0.46274   0.87058   0.34968   0.00000  Uiso   1.00
O411   O     0.54157   0.84425   0.14606   0.00000  Uiso   1.00
O412   O     0.50785   0.82546   0.34968   0.00000  Uiso   1.00
O413   O     0.51264   0.74686   0.28213   0.00000  Uiso   1.00
O414   O     0.47965   0.92751   0.27013   0.00000  Uiso   1.00
O415   O     0.40745   0.79958   0.23413   0.00000  Uiso   1.00
O416   O     0.60026   0.85939   0.21360   0.00000  Uiso   1.00
O417   O     0.40405   0.85544   0.28213   0.00000  Uiso   1.00
O418   O     0.58824   0.81892   0.27013   0.00000  Uiso   1.00
O419   O     0.47093   0.73610   0.23413   0.00000  Uiso   1.00
O420   O     0.53678   0.92286   0.21360   0.00000  Uiso   1.00
Zn421  Zn    0.52672   0.80661   0.28734   0.00000  Uiso   1.00
Zn422  Zn    0.46713   0.79124   0.21875   0.00000  Uiso   1.00
Zn423  Zn    0.54389   0.86442   0.20657   0.00000  Uiso   1.00
Zn424  Zn    0.46226   0.87106   0.28733   0.00000  Uiso   1.00
Br425  Br    0.88449   0.72698   0.09300   0.00000  Uiso   1.00
Br426  Br    0.76343   0.99320   0.30482   0.00000  Uiso   1.00
Br427  Br    0.80339   0.94952   0.40213   0.00000  Uiso   1.00
Br428  Br    0.89001   0.92192   0.02477   0.00000  Uiso   1.00
C429   C     0.71935   0.82617   0.26015   0.00000  Uiso   1.00
C430   C     0.84691   0.83361   0.05685   0.00000  Uiso   1.00
C431   C     0.86774   0.76600   0.06094   0.00000  Uiso   1.00
C432   C     0.94739   0.84048   0.24005   0.00000  Uiso   1.00
C433   C     0.81467   0.86488   0.41873   0.00000  Uiso   1.00
C434   C     0.99326   0.84335   0.23607   0.00000  Uiso   1.00
C435   C     0.67413   0.82382   0.26378   0.00000  Uiso   1.00
C436   C     0.84649   0.98911   0.23854   0.00000  Uiso   1.00
C437   C     0.81696   0.67907   0.26428   0.00000  Uiso   1.00
C438   C     0.82325   0.72264   0.25955   0.00000  Uiso   1.00
C439   C     0.84292   0.94452   0.24048   0.00000  Uiso   1.00
C440   C     0.83359   0.92254   0.46999   0.00000  Uiso   1.00
C441   C     0.85174   0.81459   0.12935   0.00000  Uiso   1.00
C442   C     0.81559   0.85183   0.37102   0.00000  Uiso   1.00
C443   C     0.86186   0.75339   0.01811   0.00000  Uiso   1.00
C444   C     0.85823   0.80554   0.08105   0.00000  Uiso   1.00
C445   C     0.81642   0.90771   0.43365   0.00000  Uiso   1.00
C446   C     0.84799   0.89579   0.49289   0.00000  Uiso   1.00
C447   C     0.83850   0.85206   0.48459   0.00000  Uiso   1.00
C448   C     0.82281   0.83654   0.44613   0.00000  Uiso   1.00
C449   C     0.84621   0.82314   0.01157   0.00000  Uiso   1.00
C450   C     0.84835   0.78091   0.49447   0.00000  Uiso   1.00
C451   C     0.83321   0.76625   0.45642   0.00000  Uiso   1.00
C452   C     0.81711   0.79303   0.43515   0.00000  Uiso   1.00
F453   F     0.83003   0.72516   0.44206   0.00000  Uiso   1.00
F454   F     0.86755   0.71379   0.00066   0.00000  Uiso   1.00
F455   F     0.82920   0.86754   0.07989   0.00000  Uiso   1.00
F456   F     0.79486   0.77574   0.40458   0.00000  Uiso   1.00
F457   F     0.68785   0.86587   0.20412   0.00000  Uiso   1.00
H458   H     0.98579   0.80571   0.28952   0.00000  Uiso   1.00
H459   H     0.87447   0.67040   0.21537   0.00000  Uiso   1.00
H460   H     0.83952   0.95580   0.47785   0.00000  Uiso   1.00
O461   O     0.83333   0.83333   0.25000   0.00000  Uiso   1.00
O462   O     0.82118   0.79304   0.15458   0.00000  Uiso   1.00
O463   O     0.79607   0.87058   0.34968   0.00000  Uiso   1.00
O464   O     0.87491   0.84425   0.14606   0.00000  Uiso   1.00
O465   O     0.84118   0.82546   0.34968   0.00000  Uiso   1.00
O466   O     0.84597   0.74686   0.28213   0.00000  Uiso   1.00
O467   O     0.81298   0.92751   0.27013   0.00000  Uiso   1.00
O468   O     0.74078   0.79958   0.23413   0.00000  Uiso   1.00
O469   O     0.93360   0.85939   0.21360   0.00000  Uiso   1.00
O470   O     0.73738   0.85544   0.28213   0.00000  Uiso   1.00
O471   O     0.92158   0.81892   0.27013   0.00000  Uiso   1.00
O472   O     0.80426   0.73610   0.23413   0.00000  Uiso   1.00
O473   O     0.87012   0.92286   0.21360   0.00000  Uiso   1.00
Zn474  Zn    0.86005   0.80661   0.28734   0.00000  Uiso   1.00
Zn475  Zn    0.80046   0.79124   0.21875   0.00000  Uiso   1.00
Zn476  Zn    0.87723   0.86442   0.20657   0.00000  Uiso   1.00
Zn477  Zn    0.79560   0.87106   0.28733   0.00000  Uiso   1.00
Br478  Br    0.21782   0.06031   0.59300   0.00000  Uiso   1.00
Br479  Br    0.09677   0.32654   0.80482   0.00000  Uiso   1.00
Br480  Br    0.13672   0.28285   0.90213   0.00000  Uiso   1.00
Br481  Br    0.22335   0.25526   0.52477   0.00000  Uiso   1.00
C482   C     0.05268   0.15951   0.76015   0.00000  Uiso   1.00
C483   C     0.18025   0.16694   0.55685   0.00000  Uiso   1.00
C484   C     0.20108   0.09934   0.56094   0.00000  Uiso   1.00
C485   C     0.28072   0.17382   0.74005   0.00000  Uiso   1.00
C486   C     0.14800   0.19821   0.91873   0.00000  Uiso   1.00
C487   C     0.32660   0.17668   0.73607   0.00000  Uiso   1.00
C488   C     0.00746   0.15715   0.76378   0.00000  Uiso   1.00
C489   C     0.17982   0.32244   0.73854   0.00000  Uiso   1.00
C490   C     0.15029   0.01240   0.76428   0.00000  Uiso   1.00
C491   C     0.15659   0.05598   0.75955   0.00000  Uiso   1.00
C492   C     0.17625   0.27785   0.74048   0.00000  Uiso   1.00
C493   C     0.16692   0.25587   0.96999   0.00000  Uiso   1.00
C494   C     0.18508   0.14792   0.62935   0.00000  Uiso   1.00
C495   C     0.14893   0.18516   0.87102   0.00000  Uiso   1.00
C496   C     0.19519   0.08673   0.51811   0.00000  Uiso   1.00
C497   C     0.19157   0.13887   0.58105   0.00000  Uiso   1.00
C498   C     0.14975   0.24104   0.93365   0.00000  Uiso   1.00
C499   C     0.18132   0.22912   0.99289   0.00000  Uiso   1.00
C500   C     0.17183   0.18539   0.98459   0.00000  Uiso   1.00
C501   C     0.15614   0.16988   0.94613   0.00000  Uiso   1.00
C502   C     0.17955   0.15647   0.51157   0.00000  Uiso   1.00
C503   C     0.18168   0.11424   0.99447   0.00000  Uiso   1.00
C504   C     0.16654   0.09958   0.95642   0.00000  Uiso   1.00
C505   C     0.15045   0.12637   0.93515   0.00000  Uiso   1.00
F506   F     0.16336   0.05849   0.94206   0.00000  Uiso   1.00
F507   F     0.20088   0.04712   0.50066   0.00000  Uiso   1.00
F508   F     0.16253   0.20087   0.57989   0.00000  Uiso   1.00
F509   F     0.12820   0.10907   0.90458   0.00000  Uiso   1.00
F510   F     0.02119   0.19920   0.70412   0.00000  Uiso   1.00
H511   H     0.31913   0.13904   0.78952   0.00000  Uiso   1.00
H512   H     0.20780   0.00373   0.71537   0.00000  Uiso   1.00
H513   H     0.17286   0.28913   0.97785   0.00000  Uiso   1.00
O514   O     0.16667   0.16667   0.75000   0.00000  Uiso   1.00
O515   O     0.15451   0.12637   0.65458   0.00000  Uiso   1.00
O516   O     0.12940   0.20391   0.84968   0.00000  Uiso   1.00
O517   O     0.20824   0.17759   0.64606   0.00000  Uiso   1.00
O518   O     0.17451   0.15880   0.84968   0.00000  Uiso   1.00
O519   O     0.17930   0.08019   0.78213   0.00000  Uiso   1.00
O520   O     0.14632   0.26085   0.77013   0.00000  Uiso   1.00
O521   O     0.07412   0.13291   0.73413   0.00000  Uiso   1.00
O522   O     0.26693   0.19272   0.71360   0.00000  Uiso   1.00
O523   O     0.07071   0.18878   0.78213   0.00000  Uiso   1.00
O524   O     0.25491   0.15226   0.77013   0.00000  Uiso   1.00
O525   O     0.13760   0.06944   0.73413   0.00000  Uiso   1.00
O526   O     0.20345   0.25620   0.71360   0.00000  Uiso   1.00
Zn527  Zn    0.19338   0.13994   0.78734   0.00000  Uiso   1.00
Zn528  Zn    0.13379   0.12458   0.71875   0.00000  Uiso   1.00
Zn529  Zn    0.21056   0.19775   0.70657   0.00000  Uiso   1.00
Zn530  Zn    0.12893   0.20439   0.78733   0.00000  Uiso   1.00
Br531  Br    0.55116   0.06031   0.59300   0.00000  Uiso   1.00
Br532  Br    0.43010   0.32654   0.80482   0.00000  Uiso   1.00
Br533  Br    0.47006   0.28285   0.90213   0.00000  Uiso   1.00
Br534  Br    0.55668   0.25526   0.52477   0.00000  Uiso   1.00
C535   C     0.38601   0.15951   0.76015   0.00000  Uiso   1.00
C536   C     0.51358   0.16694   0.55685   0.00000  Uiso   1.00
C537   C     0.53441   0.09934   0.56094   0.00000  Uiso   1.00
C538   C     0.61406   0.17382   0.74005   0.00000  Uiso   1.00
C539   C     0.48134   0.19821   0.91873   0.00000  Uiso   1.00
C540   C     0.65993   0.17668   0.73607   0.00000  Uiso   1.00
C541   C     0.34079   0.15715   0.76378   0.00000  Uiso   1.00
C542   C     0.51316   0.32244   0.73854   0.00000  Uiso   1.00
C543   C     0.48363   0.01240   0.76428   0.00000  Uiso   1.00
C544   C     0.48992   0.05598   0.75955   0.00000  Uiso   1.00
C545   C     0.50959   0.27785   0.74048   0.00000  Uiso   1.00
C546   C     0.50026   0.25587   0.96999   0.00000  Uiso   1.00
C547   C     0.51841   0.14792   0.62935   0.00000  Uiso   1.00
C548   C     0.48226   0.18516   0.87102   0.00000  Uiso   1.00
C549   C     0.52852   0.08673   0.51811   0.00000  Uiso   1.00
C550   C     0.52490   0.13887   0.58105   0.00000  Uiso   1.00
C551   C     0.48308   0.24104   0.93365   0.00000  Uiso   1.00
C552   C     0.51466   0.22912   0.99289   0.00000  Uiso   1.00
C553   C     0.50517   0.18539   0.98459   0.00000  Uiso   1.00
C554   C     0.48947   0.16988   0.94613   0.00000  Uiso   1.00
C555   C     0.51288   0.15647   0.51157   0.00000  Uiso   1.00
C556   C     0.51502   0.11424   0.99447   0.00000  Uiso   1.00
C557   C     0.49987   0.09958   0.95642   0.00000  Uiso   1.00
C558   C     0.48378   0.12637   0.93515   0.00000  Uiso   1.00
F559   F     0.49669   0.05849   0.94206   0.00000  Uiso   1.00
F560   F     0.53422   0.04712   0.50066   0.00000  Uiso   1.00
F561   F     0.49587   0.20087   0.57989   0.00000  Uiso   1.00
F562   F     0.46153   0.10907   0.90458   0.00000  Uiso   1.00
F563   F     0.35452   0.19920   0.70412   0.00000  Uiso   1.00
H564   H     0.65246   0.13904   0.78952   0.00000  Uiso   1.00
H565   H     0.54113   0.00373   0.71537   0.00000  Uiso   1.00
H566   H     0.50619   0.28913   0.97785   0.00000  Uiso   1.00
O567   O     0.50000   0.16667   0.75000   0.00000  Uiso   1.00
O568   O     0.48784   0.12637   0.65458   0.00000  Uiso   1.00
O569   O     0.46274   0.20391   0.84968   0.00000  Uiso   1.00
O570   O     0.54157   0.17759   0.64606   0.00000  Uiso   1.00
O571   O     0.50785   0.15880   0.84968   0.00000  Uiso   1.00
O572   O     0.51264   0.08019   0.78213   0.00000  Uiso   1.00
O573   O     0.47965   0.26085   0.77013   0.00000  Uiso   1.00
O574   O     0.40745   0.13291   0.73413   0.00000  Uiso   1.00
O575   O     0.60026   0.19272   0.71360   0.00000  Uiso   1.00
O576   O     0.40405   0.18878   0.78213   0.00000  Uiso   1.00
O577   O     0.58824   0.15226   0.77013   0.00000  Uiso   1.00
O578   O     0.47093   0.06944   0.73413   0.00000  Uiso   1.00
O579   O     0.53678   0.25620   0.71360   0.00000  Uiso   1.00
Zn580  Zn    0.52672   0.13994   0.78734   0.00000  Uiso   1.00
Zn581  Zn    0.46713   0.12458   0.71875   0.00000  Uiso   1.00
Zn582  Zn    0.54389   0.19775   0.70657   0.00000  Uiso   1.00
Zn583  Zn    0.46226   0.20439   0.78733   0.00000  Uiso   1.00
Br584  Br    0.88449   0.06031   0.59300   0.00000  Uiso   1.00
Br585  Br    0.76343   0.32654   0.80482   0.00000  Uiso   1.00
Br586  Br    0.80339   0.28285   0.90213   0.00000  Uiso   1.00
Br587  Br    0.89001   0.25526   0.52477   0.00000  Uiso   1.00
C588   C     0.71935   0.15951   0.76015   0.00000  Uiso   1.00
C589   C     0.84691   0.16694   0.55685   0.00000  Uiso   1.00
C590   C     0.86774   0.09934   0.56094   0.00000  Uiso   1.00
C591   C     0.94739   0.17382   0.74005   0.00000  Uiso   1.00
C592   C     0.81467   0.19821   0.91873   0.00000  Uiso   1.00
C593   C     0.99326   0.17668   0.73607   0.00000  Uiso   1.00
C594   C     0.67413   0.15715   0.76378   0.00000  Uiso   1.00
C595   C     0.84649   0.32244   0.73854   0.00000  Uiso   1.00
C596   C     0.81696   0.01240   0.76428   0.00000  Uiso   1.00
C597   C     0.82325   0.05598   0.75955   0.00000  Uiso   1.00
C598   C     0.84292   0.27785   0.74048   0.00000  Uiso   1.00
C599   C     0.83359   0.25587   0.96999   0.00000  Uiso   1.00
C600   C     0.85174   0.14792   0.62935   0.00000  Uiso   1.00
C601   C     0.81559   0.18516   0.87102   0.00000  Uiso   1.00
C602   C     0.86186   0.08673   0.51811   0.00000  Uiso   1.00
C603   C     0.85823   0.13887   0.58105   0.00000  Uiso   1.00
C604   C     0.81642   0.24104   0.93365   0.00000  Uiso   1.00
C605   C     0.84799   0.22912   0.99289   0.00000  Uiso   1.00
C606   C     0.83850   0.18539   0.98459   0.00000  Uiso   1.00
C607   C     0.82281   0.16988   0.94613   0.00000  Uiso   1.00
C608   C     0.84621   0.15647   0.51157   0.00000  Uiso   1.00
C609   C     0.84835   0.11424   0.99447   0.00000  Uiso   1.00
C610   C     0.83321   0.09958   0.95642   0.00000  Uiso   1.00
C611   C     0.81711   0.12637   0.93515   0.00000  Uiso   1.00
F612   F     0.83003   0.05849   0.94206   0.00000  Uiso   1.00
F613   F     0.86755   0.04712   0.50066   0.00000  Uiso   1.00
F614   F     0.82920   0.20087   0.57989   0.00000  Uiso   1.00
F615   F     0.79486   0.10907   0.90458   0.00000  Uiso   1.00
F616   F     0.68785   0.19920   0.70412   0.00000  Uiso   1.00
H617   H     0.98579   0.13904   0.78952   0.00000  Uiso   1.00
H618   H     0.87447   0.00373   0.71537   0.00000  Uiso   1.00
H619   H     0.83952   0.28913   0.97785   0.00000  Uiso   1.00
O620   O     0.83333   0.16667   0.75000   0.00000  Uiso   1.00
O621   O     0.82118   0.12637   0.65458   0.00000  Uiso   1.00
O622   O     0.79607   0.20391   0.84968   0.00000  Uiso   1.00
O623   O     0.87491   0.17759   0.64606   0.00000  Uiso   1.00
O624   O     0.84118   0.15880   0.84968   0.00000  Uiso   1.00
O625   O     0.84597   0.08019   0.78213   0.00000  Uiso   1.00
O626   O     0.81298   0.26085   0.77013   0.00000  Uiso   1.00
O627   O     0.74078   0.13291   0.73413   0.00000  Uiso   1.00
O628   O     0.93360   0.19272   0.71360   0.00000  Uiso   1.00
O629   O     0.73738   0.18878   0.78213   0.00000  Uiso   1.00
O630   O     0.92158   0.15226   0.77013   0.00000  Uiso   1.00
O631   O     0.80426   0.06944   0.73413   0.00000  Uiso   1.00
O632   O     0.87012   0.25620   0.71360   0.00000  Uiso   1.00
Zn633  Zn    0.86005   0.13994   0.78734   0.00000  Uiso   1.00
Zn634  Zn    0.80046   0.12458   0.71875   0.00000  Uiso   1.00
Zn635  Zn    0.87723   0.19775   0.70657   0.00000  Uiso   1.00
Zn636  Zn    0.79560   0.20439   0.78733   0.00000  Uiso   1.00
Br637  Br    0.21782   0.39365   0.59300   0.00000  Uiso   1.00
Br638  Br    0.09677   0.65987   0.80482   0.00000  Uiso   1.00
Br639  Br    0.13672   0.61618   0.90213   0.00000  Uiso   1.00
Br640  Br    0.22335   0.58859   0.52477   0.00000  Uiso   1.00
C641   C     0.05268   0.49284   0.76015   0.00000  Uiso   1.00
C642   C     0.18025   0.50027   0.55685   0.00000  Uiso   1.00
C643   C     0.20108   0.43267   0.56094   0.00000  Uiso   1.00
C644   C     0.28072   0.50715   0.74005   0.00000  Uiso   1.00
C645   C     0.14800   0.53154   0.91873   0.00000  Uiso   1.00
C646   C     0.32660   0.51001   0.73607   0.00000  Uiso   1.00
C647   C     0.00746   0.49048   0.76378   0.00000  Uiso   1.00
C648   C     0.17982   0.65578   0.73854   0.00000  Uiso   1.00
C649   C     0.15029   0.34574   0.76428   0.00000  Uiso   1.00
C650   C     0.15659   0.38931   0.75955   0.00000  Uiso   1.00
C651   C     0.17625   0.61118   0.74048   0.00000  Uiso   1.00
C652   C     0.16692   0.58921   0.96999   0.00000  Uiso   1.00
C653   C     0.18508   0.48125   0.62935   0.00000  Uiso   1.00
C654   C     0.14893   0.51849   0.87102   0.00000  Uiso   1.00
C655   C     0.19519   0.42006   0.51811   0.00000  Uiso   1.00
C656   C     0.19157   0.47220   0.58105   0.00000  Uiso   1.00
C657   C     0.14975   0.57438   0.93365   0.00000  Uiso   1.00
C658   C     0.18132   0.56246   0.99289   0.00000  Uiso   1.00
C659   C     0.17183   0.51873   0.98459   0.00000  Uiso   1.00
C660   C     0.15614   0.50321   0.94613   0.00000  Uiso   1.00
C661   C     0.17955   0.48980   0.51157   0.00000  Uiso   1.00
C662   C     0.18168   0.44758   0.99447   0.00000  Uiso   1.00
C663   C     0.16654   0.43292   0.95642   0.00000  Uiso   1.00
C664   C     0.15045   0.45970   0.93515   0.00000  Uiso   1.00
F665   F     0.16336   0.39182   0.94206   0.00000  Uiso   1.00
F666   F     0.20088   0.38045   0.50066   0.00000  Uiso   1.00
F667   F     0.16253   0.53420   0.57989   0.00000  Uiso   1.00
F668   F     0.12820   0.44241   0.90458   0.00000  Uiso   1.00
F669   F     0.02119   0.53254   0.70412   0.00000  Uiso   1.00
H670   H     0.31913   0.47238   0.78952   0.00000  Uiso   1.00
H671   H     0.20780   0.33706   0.71537   0.00000  Uiso   1.00
H672   H     0.17286   0.62247   0.97785   0.00000  Uiso   1.00
O673   O     0.16667   0.50000   0.75000   0.00000  Uiso   1.00
O674   O     0.15451   0.45970   0.65458   0.00000  Uiso   1.00
O675   O     0.12940   0.53724   0.84968   0.00000  Uiso   1.00
O676   O     0.20824   0.51092   0.64606   0.00000  Uiso   1.00
O677   O     0.17451   0.49213   0.84968   0.00000  Uiso   1.00
O678   O     0.17930   0.41352   0.78213   0.00000  Uiso   1.00
O679   O     0.14632   0.59418   0.77013   0.00000  Uiso   1.00
O680   O     0.07412   0.46625   0.73413   0.00000  Uiso   1.00
O681   O     0.26693   0.52605   0.71360   0.00000  Uiso   1.00
O682   O     0.07071   0.52211   0.78213   0.00000  Uiso   1.00
O683   O     0.25491   0.48559   0.77013   0.00000  Uiso   1.00
O684   O     0.13760   0.40277   0.73413   0.00000  Uiso   1.00
O685   O     0.20345   0.58953   0.71360   0.00000  Uiso   1.00
Zn686  Zn    0.19338   0.47327   0.78734   0.00000  Uiso   1.00
Zn687  Zn    0.13379   0.45791   0.71875   0.00000  Uiso   1.00
Zn688  Zn    0.21056   0.53109   0.70657   0.00000  Uiso   1.00
Zn689  Zn    0.12893   0.53773   0.78733   0.00000  Uiso   1.00
Br690  Br    0.55116   0.39365   0.59300   0.00000  Uiso   1.00
Br691  Br    0.43010   0.65987   0.80482   0.00000  Uiso   1.00
Br692  Br    0.47006   0.61618   0.90213   0.00000  Uiso   1.00
Br693  Br    0.55668   0.58859   0.52477   0.00000  Uiso   1.00
C694   C     0.38601   0.49284   0.76015   0.00000  Uiso   1.00
C695   C     0.51358   0.50027   0.55685   0.00000  Uiso   1.00
C696   C     0.53441   0.43267   0.56094   0.00000  Uiso   1.00
C697   C     0.61406   0.50715   0.74005   0.00000  Uiso   1.00
C698   C     0.48134   0.53154   0.91873   0.00000  Uiso   1.00
C699   C     0.65993   0.51001   0.73607   0.00000  Uiso   1.00
C700   C     0.34079   0.49048   0.76378   0.00000  Uiso   1.00
C701   C     0.51316   0.65578   0.73854   0.00000  Uiso   1.00
C702   C     0.48363   0.34574   0.76428   0.00000  Uiso   1.00
C703   C     0.48992   0.38931   0.75955   0.00000  Uiso   1.00
C704   C     0.50959   0.61118   0.74048   0.00000  Uiso   1.00
C705   C     0.50026   0.58921   0.96999   0.00000  Uiso   1.00
C706   C     0.51841   0.48125   0.62935   0.00000  Uiso   1.00
C707   C     0.48226   0.51849   0.87102   0.00000  Uiso   1.00
C708   C     0.52852   0.42006   0.51811   0.00000  Uiso   1.00
C709   C     0.52490   0.47220   0.58105   0.00000  Uiso   1.00
C710   C     0.48308   0.57438   0.93365   0.00000  Uiso   1.00
C711   C     0.51466   0.56246   0.99289   0.00000  Uiso   1.00
C712   C     0.50517   0.51873   0.98459   0.00000  Uiso   1.00
C713   C     0.48947   0.50321   0.94613   0.00000  Uiso   1.00
C714   C     0.51288   0.48980   0.51157   0.00000  Uiso   1.00
C715   C     0.51502   0.44758   0.99447   0.00000  Uiso   1.00
C716   C     0.49987   0.43292   0.95642   0.00000  Uiso   1.00
C717   C     0.48378   0.45970   0.93515   0.00000  Uiso   1.00
F718   F     0.49669   0.39182   0.94206   0.00000  Uiso   1.00
F719   F     0.53422   0.38045   0.50066   0.00000  Uiso   1.00
F720   F     0.49587   0.53420   0.57989   0.00000  Uiso   1.00
F721   F     0.46153   0.44241   0.90458   0.00000  Uiso   1.00
F722   F     0.35452   0.53254   0.70412   0.00000  Uiso   1.00
H723   H     0.65246   0.47238   0.78952   0.00000  Uiso   1.00
H724   H     0.54113   0.33706   0.71537   0.00000  Uiso   1.00
H725   H     0.50619   0.62247   0.97785   0.00000  Uiso   1.00
O726   O     0.50000   0.50000   0.75000   0.00000  Uiso   1.00
O727   O     0.48784   0.45970   0.65458   0.00000  Uiso   1.00
O728   O     0.46274   0.53724   0.84968   0.00000  Uiso   1.00
O729   O     0.54157   0.51092   0.64606   0.00000  Uiso   1.00
O730   O     0.50785   0.49213   0.84968   0.00000  Uiso   1.00
O731   O     0.51264   0.41352   0.78213   0.00000  Uiso   1.00
O732   O     0.47965   0.59418   0.77013   0.00000  Uiso   1.00
O733   O     0.40745   0.46625   0.73413   0.00000  Uiso   1.00
O734   O     0.60026   0.52605   0.71360   0.00000  Uiso   1.00
O735   O     0.40405   0.52211   0.78213   0.00000  Uiso   1.00
O736   O     0.58824   0.48559   0.77013   0.00000  Uiso   1.00
O737   O     0.47093   0.40277   0.73413   0.00000  Uiso   1.00
O738   O     0.53678   0.58953   0.71360   0.00000  Uiso   1.00
Zn739  Zn    0.52672   0.47327   0.78734   0.00000  Uiso   1.00
Zn740  Zn    0.46713   0.45791   0.71875   0.00000  Uiso   1.00
Zn741  Zn    0.54389   0.53109   0.70657   0.00000  Uiso   1.00
Zn742  Zn    0.46226   0.53773   0.78733   0.00000  Uiso   1.00
Br743  Br    0.88449   0.39365   0.59300   0.00000  Uiso   1.00
Br744  Br    0.76343   0.65987   0.80482   0.00000  Uiso   1.00
Br745  Br    0.80339   0.61618   0.90213   0.00000  Uiso   1.00
Br746  Br    0.89001   0.58859   0.52477   0.00000  Uiso   1.00
C747   C     0.71935   0.49284   0.76015   0.00000  Uiso   1.00
C748   C     0.84691   0.50027   0.55685   0.00000  Uiso   1.00
C749   C     0.86774   0.43267   0.56094   0.00000  Uiso   1.00
C750   C     0.94739   0.50715   0.74005   0.00000  Uiso   1.00
C751   C     0.81467   0.53154   0.91873   0.00000  Uiso   1.00
C752   C     0.99326   0.51001   0.73607   0.00000  Uiso   1.00
C753   C     0.67413   0.49048   0.76378   0.00000  Uiso   1.00
C754   C     0.84649   0.65578   0.73854   0.00000  Uiso   1.00
C755   C     0.81696   0.34574   0.76428   0.00000  Uiso   1.00
C756   C     0.82325   0.38931   0.75955   0.00000  Uiso   1.00
C757   C     0.84292   0.61118   0.74048   0.00000  Uiso   1.00
C758   C     0.83359   0.58921   0.96999   0.00000  Uiso   1.00
C759   C     0.85174   0.48125   0.62935   0.00000  Uiso   1.00
C760   C     0.81559   0.51849   0.87102   0.00000  Uiso   1.00
C761   C     0.86186   0.42006   0.51811   0.00000  Uiso   1.00
C762   C     0.85823   0.47220   0.58105   0.00000  Uiso   1.00
C763   C     0.81642   0.57438   0.93365   0.00000  Uiso   1.00
C764   C     0.84799   0.56246   0.99289   0.00000  Uiso   1.00
C765   C     0.83850   0.51873   0.98459   0.00000  Uiso   1.00
C766   C     0.82281   0.50321   0.94613   0.00000  Uiso   1.00
C767   C     0.84621   0.48980   0.51157   0.00000  Uiso   1.00
C768   C     0.84835   0.44758   0.99447   0.00000  Uiso   1.00
C769   C     0.83321   0.43292   0.95642   0.00000  Uiso   1.00
C770   C     0.81711   0.45970   0.93515   0.00000  Uiso   1.00
F771   F     0.83003   0.39182   0.94206   0.00000  Uiso   1.00
F772   F     0.86755   0.38045   0.50066   0.00000  Uiso   1.00
F773   F     0.82920   0.53420   0.57989   0.00000  Uiso   1.00
F774   F     0.79486   0.44241   0.90458   0.00000  Uiso   1.00
F775   F     0.68785   0.53254   0.70412   0.00000  Uiso   1.00
H776   H     0.98579   0.47238   0.78952   0.00000  Uiso   1.00
H777   H     0.87447   0.33706   0.71537   0.00000  Uiso   1.00
H778   H     0.83952   0.62247   0.97785   0.00000  Uiso   1.00
O779   O     0.83333   0.50000   0.75000   0.00000  Uiso   1.00
O780   O     0.82118   0.45970   0.65458   0.00000  Uiso   1.00
O781   O     0.79607   0.53724   0.84968   0.00000  Uiso   1.00
O782   O     0.87491   0.51092   0.64606   0.00000  Uiso   1.00
O783   O     0.84118   0.49213   0.84968   0.00000  Uiso   1.00
O784   O     0.84597   0.41352   0.78213   0.00000  Uiso   1.00
O785   O     0.81298   0.59418   0.77013   0.00000  Uiso   1.00
O786   O     0.74078   0.46625   0.73413   0.00000  Uiso   1.00
O787   O     0.93360   0.52605   0.71360   0.00000  Uiso   1.00
O788   O     0.73738   0.52211   0.78213   0.00000  Uiso   1.00
O789   O     0.92158   0.48559   0.77013   0.00000  Uiso   1.00
O790   O     0.80426   0.40277   0.73413   0.00000  Uiso   1.00
O791   O     0.87012   0.58953   0.71360   0.00000  Uiso   1.00
Zn792  Zn    0.86005   0.47327   0.78734   0.00000  Uiso   1.00
Zn793  Zn    0.80046   0.45791   0.71875   0.00000  Uiso   1.00
Zn794  Zn    0.87723   0.53109   0.70657   0.00000  Uiso   1.00
Zn795  Zn    0.79560   0.53773   0.78733   0.00000  Uiso   1.00
Br796  Br    0.21782   0.72698   0.59300   0.00000  Uiso   1.00
Br797  Br    0.09677   0.99320   0.80482   0.00000  Uiso   1.00
Br798  Br    0.13672   0.94952   0.90213   0.00000  Uiso   1.00
Br799  Br    0.22335   0.92192   0.52477   0.00000  Uiso   1.00
C800   C     0.05268   0.82617   0.76015   0.00000  Uiso   1.00
C801   C     0.18025   0.83361   0.55685   0.00000  Uiso   1.00
C802   C     0.20108   0.76600   0.56094   0.00000  Uiso   1.00
C803   C     0.28072   0.84048   0.74005   0.00000  Uiso   1.00
C804   C     0.14800   0.86488   0.91873   0.00000  Uiso   1.00
C805   C     0.32660   0.84335   0.73607   0.00000  Uiso   1.00
C806   C     0.00746   0.82382   0.76378   0.00000  Uiso   1.00
C807   C     0.17982   0.98911   0.73854   0.00000  Uiso   1.00
C808   C     0.15029   0.67907   0.76428   0.00000  Uiso   1.00
C809   C     0.15659   0.72264   0.75955   0.00000  Uiso   1.00
C810   C     0.17625   0.94452   0.74048   0.00000  Uiso   1.00
C811   C     0.16692   0.92254   0.96999   0.00000  Uiso   1.00
C812   C     0.18508   0.81459   0.62935   0.00000  Uiso   1.00
C813   C     0.14893   0.85183   0.87102   0.00000  Uiso   1.00
C814   C     0.19519   0.75339   0.51811   0.00000  Uiso   1.00
C815   C     0.19157   0.80554   0.58105   0.00000  Uiso   1.00
C816   C     0.14975   0.90771   0.93365   0.00000  Uiso   1.00
C817   C     0.18132   0.89579   0.99289   0.00000  Uiso   1.00
C818   C     0.17183   0.85206   0.98459   0.00000  Uiso   1.00
C819   C     0.15614   0.83654   0.94613   0.00000  Uiso   1.00
C820   C     0.17955   0.82314   0.51157   0.00000  Uiso   1.00
C821   C     0.18168   0.78091   0.99447   0.00000  Uiso   1.00
C822   C     0.16654   0.76625   0.95642   0.00000  Uiso   1.00
C823   C     0.15045   0.79303   0.93515   0.00000  Uiso   1.00
F824   F     0.16336   0.72516   0.94206   0.00000  Uiso   1.00
F825   F     0.20088   0.71379   0.50066   0.00000  Uiso   1.00
F826   F     0.16253   0.86754   0.57989   0.00000  Uiso   1.00
F827   F     0.12820   0.77574   0.90458   0.00000  Uiso   1.00
F828   F     0.02119   0.86587   0.70412   0.00000  Uiso   1.00
H829   H     0.31913   0.80571   0.78952   0.00000  Uiso   1.00
H830   H     0.20780   0.67040   0.71537   0.00000  Uiso   1.00
H831   H     0.17286   0.95580   0.97785   0.00000  Uiso   1.00
O832   O     0.16667   0.83333   0.75000   0.00000  Uiso   1.00
O833   O     0.15451   0.79304   0.65458   0.00000  Uiso   1.00
O834   O     0.12940   0.87058   0.84968   0.00000  Uiso   1.00
O835   O     0.20824   0.84425   0.64606   0.00000  Uiso   1.00
O836   O     0.17451   0.82546   0.84968   0.00000  Uiso   1.00
O837   O     0.17930   0.74686   0.78213   0.00000  Uiso   1.00
O838   O     0.14632   0.92751   0.77013   0.00000  Uiso   1.00
O839   O     0.07412   0.79958   0.73413   0.00000  Uiso   1.00
O840   O     0.26693   0.85939   0.71360   0.00000  Uiso   1.00
O841   O     0.07071   0.85544   0.78213   0.00000  Uiso   1.00
O842   O     0.25491   0.81892   0.77013   0.00000  Uiso   1.00
O843   O     0.13760   0.73610   0.73413   0.00000  Uiso   1.00
O844   O     0.20345   0.92286   0.71360   0.00000  Uiso   1.00
Zn845  Zn    0.19338   0.80661   0.78734   0.00000  Uiso   1.00
Zn846  Zn    0.13379   0.79124   0.71875   0.00000  Uiso   1.00
Zn847  Zn    0.21056   0.86442   0.70657   0.00000  Uiso   1.00
Zn848  Zn    0.12893   0.87106   0.78733   0.00000  Uiso   1.00
Br849  Br    0.55116   0.72698   0.59300   0.00000  Uiso   1.00
Br850  Br    0.43010   0.99320   0.80482   0.00000  Uiso   1.00
Br851  Br    0.47006   0.94952   0.90213   0.00000  Uiso   1.00
Br852  Br    0.55668   0.92192   0.52477   0.00000  Uiso   1.00
C853   C     0.38601   0.82617   0.76015   0.00000  Uiso   1.00
C854   C     0.51358   0.83361   0.55685   0.00000  Uiso   1.00
C855   C     0.53441   0.76600   0.56094   0.00000  Uiso   1.00
C856   C     0.61406   0.84048   0.74005   0.00000  Uiso   1.00
C857   C     0.48134   0.86488   0.91873   0.00000  Uiso   1.00
C858   C     0.65993   0.84335   0.73607   0.00000  Uiso   1.00
C859   C     0.34079   0.82382   0.76378   0.00000  Uiso   1.00
C860   C     0.51316   0.98911   0.73854   0.00000  Uiso   1.00
C861   C     0.48363   0.67907   0.76428   0.00000  Uiso   1.00
C862   C     0.48992   0.72264   0.75955   0.00000  Uiso   1.00
C863   C     0.50959   0.94452   0.74048   0.00000  Uiso   1.00
C864   C     0.50026   0.92254   0.96999   0.00000  Uiso   1.00
C865   C     0.51841   0.81459   0.62935   0.00000  Uiso   1.00
C866   C     0.48226   0.85183   0.87102   0.00000  Uiso   1.00
C867   C     0.52852   0.75339   0.51811   0.00000  Uiso   1.00
C868   C     0.52490   0.80554   0.58105   0.00000  Uiso   1.00
C869   C     0.48308   0.90771   0.93365   0.00000  Uiso   1.00
C870   C     0.51466   0.89579   0.99289   0.00000  Uiso   1.00
C871   C     0.50517   0.85206   0.98459   0.00000  Uiso   1.00
C872   C     0.48947   0.83654   0.94613   0.00000  Uiso   1.00
C873   C     0.51288   0.82314   0.51157   0.00000  Uiso   1.00
C874   C     0.51502   0.78091   0.99447   0.00000  Uiso   1.00
C875   C     0.49987   0.76625   0.95642   0.00000  Uiso   1.00
C876   C     0.48378   0.79303   0.93515   0.00000  Uiso   1.00
F877   F     0.49669   0.72516   0.94206   0.00000  Uiso   1.00
F878   F     0.53422   0.71379   0.50066   0.00000  Uiso   1.00
F879   F     0.49587   0.86754   0.57989   0.00000  Uiso   1.00
F880   F     0.46153   0.77574   0.90458   0.00000  Uiso   1.00
F881   F     0.35452   0.86587   0.70412   0.00000  Uiso   1.00
H882   H     0.65246   0.80571   0.78952   0.00000  Uiso   1.00
H883   H     0.54113   0.67040   0.71537   0.00000  Uiso   1.00
H884   H     0.50619   0.95580   0.97785   0.00000  Uiso   1.00
O885   O     0.50000   0.83333   0.75000   0.00000  Uiso   1.00
O886   O     0.48784   0.79304   0.65458   0.00000  Uiso   1.00
O887   O     0.46274   0.87058   0.84968   0.00000  Uiso   1.00
O888   O     0.54157   0.84425   0.64606   0.00000  Uiso   1.00
O889   O     0.50785   0.82546   0.84968   0.00000  Uiso   1.00
O890   O     0.51264   0.74686   0.78213   0.00000  Uiso   1.00
O891   O     0.47965   0.92751   0.77013   0.00000  Uiso   1.00
O892   O     0.40745   0.79958   0.73413   0.00000  Uiso   1.00
O893   O     0.60026   0.85939   0.71360   0.00000  Uiso   1.00
O894   O     0.40405   0.85544   0.78213   0.00000  Uiso   1.00
O895   O     0.58824   0.81892   0.77013   0.00000  Uiso   1.00
O896   O     0.47093   0.73610   0.73413   0.00000  Uiso   1.00
O897   O     0.53678   0.92286   0.71360   0.00000  Uiso   1.00
Zn898  Zn    0.52672   0.80661   0.78734   0.00000  Uiso   1.00
Zn899  Zn    0.46713   0.79124   0.71875   0.00000  Uiso   1.00
Zn900  Zn    0.54389   0.86442   0.70657   0.00000  Uiso   1.00
Zn901  Zn    0.46226   0.87106   0.78733   0.00000  Uiso   1.00
Br902  Br    0.88449   0.72698   0.59300   0.00000  Uiso   1.00
Br903  Br    0.76343   0.99320   0.80482   0.00000  Uiso   1.00
Br904  Br    0.80339   0.94952   0.90213   0.00000  Uiso   1.00
Br905  Br    0.89001   0.92192   0.52477   0.00000  Uiso   1.00
C906   C     0.71935   0.82617   0.76015   0.00000  Uiso   1.00
C907   C     0.84691   0.83361   0.55685   0.00000  Uiso   1.00
C908   C     0.86774   0.76600   0.56094   0.00000  Uiso   1.00
C909   C     0.94739   0.84048   0.74005   0.00000  Uiso   1.00
C910   C     0.81467   0.86488   0.91873   0.00000  Uiso   1.00
C911   C     0.99326   0.84335   0.73607   0.00000  Uiso   1.00
C912   C     0.67413   0.82382   0.76378   0.00000  Uiso   1.00
C913   C     0.84649   0.98911   0.73854   0.00000  Uiso   1.00
C914   C     0.81696   0.67907   0.76428   0.00000  Uiso   1.00
C915   C     0.82325   0.72264   0.75955   0.00000  Uiso   1.00
C916   C     0.84292   0.94452   0.74048   0.00000  Uiso   1.00
C917   C     0.83359   0.92254   0.96999   0.00000  Uiso   1.00
C918   C     0.85174   0.81459   0.62935   0.00000  Uiso   1.00
C919   C     0.81559   0.85183   0.87102   0.00000  Uiso   1.00
C920   C     0.86186   0.75339   0.51811   0.00000  Uiso   1.00
C921   C     0.85823   0.80554   0.58105   0.00000  Uiso   1.00
C922   C     0.81642   0.90771   0.93365   0.00000  Uiso   1.00
C923   C     0.84799   0.89579   0.99289   0.00000  Uiso   1.00
C924   C     0.83850   0.85206   0.98459   0.00000  Uiso   1.00
C925   C     0.82281   0.83654   0.94613   0.00000  Uiso   1.00
C926   C     0.84621   0.82314   0.51157   0.00000  Uiso   1.00
C927   C     0.84835   0.78091   0.99447   0.00000  Uiso   1.00
C928   C     0.83321   0.76625   0.95642   0.00000  Uiso   1.00
C929   C     0.81711   0.79303   0.93515   0.00000  Uiso   1.00
F930   F     0.83003   0.72516   0.94206   0.00000  Uiso   1.00
F931   F     0.86755   0.71379   0.50066   0.00000  Uiso   1.00
F932   F     0.82920   0.86754   0.57989   0.00000  Uiso   1.00
F933   F     0.79486   0.77574   0.90458   0.00000  Uiso   1.00
F934   F     0.68785   0.86587   0.70412   0.00000  Uiso   1.00
H935   H     0.98579   0.80571   0.78952   0.00000  Uiso   1.00
H936   H     0.87447   0.67040   0.71537   0.00000  Uiso   1.00
H937   H     0.83952   0.95580   0.97785   0.00000  Uiso   1.00
O938   O     0.83333   0.83333   0.75000   0.00000  Uiso   1.00
O939   O     0.82118   0.79304   0.65458   0.00000  Uiso   1.00
O940   O     0.79607   0.87058   0.84968   0.00000  Uiso   1.00
O941   O     0.87491   0.84425   0.64606   0.00000  Uiso   1.00
O942   O     0.84118   0.82546   0.84968   0.00000  Uiso   1.00
O943   O     0.84597   0.74686   0.78213   0.00000  Uiso   1.00
O944   O     0.81298   0.92751   0.77013   0.00000  Uiso   1.00
O945   O     0.74078   0.79958   0.73413   0.00000  Uiso   1.00
O946   O     0.93360   0.85939   0.71360   0.00000  Uiso   1.00
O947   O     0.73738   0.85544   0.78213   0.00000  Uiso   1.00
O948   O     0.92158   0.81892   0.77013   0.00000  Uiso   1.00
O949   O     0.80426   0.73610   0.73413   0.00000  Uiso   1.00
O950   O     0.87012   0.92286   0.71360   0.00000  Uiso   1.00
Zn951  Zn    0.86005   0.80661   0.78734   0.00000  Uiso   1.00
Zn952  Zn    0.80046   0.79124   0.71875   0.00000  Uiso   1.00
Zn953  Zn    0.87723   0.86442   0.70657   0.00000  Uiso   1.00
Zn954  Zn    0.79560   0.87106   0.78733   0.00000  Uiso   1.00
loop_
_geom_bond_atom_site_label_1
_geom_bond_atom_site_label_2
_geom_bond_distance
_geom_bond_site_symmetry_2
_ccdc_geom_bond_type
Br1    C7      1.924   .     S
Br2    C172    1.931   .     S
Br3    C21     1.925   .     S
Br4    C499    1.930   1_554 S
C5     O46     1.267   .     A
C5     O44     1.267   .     A
C5     C11     1.436   .     S
C6     F31     1.360   .     S
C6     C25     1.408   .     A
C6     C20     1.396   .     A
C7     C19     1.394   .     A
C7     C20     1.404   .     A
C8     O47     1.283   .     A
C8     C10     1.454   .     S
C8     O45     1.284   .     A
C9     C24     1.424   .     A
C9     C18     1.481   .     S
C9     C21     1.416   .     A
C10    C64     1.335   .     S
C10    F86     1.362   .     S
C11    C116    1.335   1_455 S
C11    H140    1.086   1_455 S
C12    C15     1.450   .     S
C12    C172    1.343   .     S
C12    H194    1.088   .     S
C13    C14     1.427   .     S
C13    Br320   1.931   1_545 S
C13    C330    1.343   1_545 S
C14    O42     1.274   .     A
C14    O48     1.270   .     A
C15    O49     1.278   .     A
C15    O43     1.264   .     A
C16    C22     1.389   .     A
C16    C21     1.389   .     A
C16    H36     1.083   .     S
C17    O38     1.271   .     A
C17    C20     1.455   .     S
C17    O40     1.280   .     A
C18    O39     1.283   .     A
C18    O41     1.287   .     A
C19    F30     1.359   .     S
C19    C503    1.407   1_554 S
C22    C23     1.422   .     A
C22    Br481   1.930   .     S
C23    C24     1.425   .     A
C23    C502    1.423   .     S
C24    C28     1.416   .     A
C25    C500    1.423   1_554 S
C25    C503    1.420   1_554 S
C26    C27     1.399   .     A
C26    C502    1.420   .     S
C26    C496    1.407   .     S
C27    F29     1.359   .     S
C27    C28     1.388   .     A
C28    F32     1.359   .     S
F33    C116    1.362   1_455 S
H34    C64     1.086   .     S
H35    C330    1.088   1_545 S
O37    Zn53    1.929   .     S
O37    Zn50    1.962   .     S
O37    Zn51    1.937   .     S
O37    Zn52    1.944   .     S
O38    Zn51    1.931   .     S
O39    Zn53    1.938   .     S
O40    Zn52    1.927   .     S
O41    Zn50    1.921   .     S
O42    Zn50    1.933   .     S
O43    Zn53    1.942   .     S
O44    Zn51    1.926   .     S
O45    Zn52    1.934   .     S
O46    Zn53    1.930   .     S
O47    Zn50    1.925   .     S
O48    Zn51    1.946   .     S
O49    Zn52    1.935   .     S
Br54   C60     1.924   .     S
Br55   C225    1.931   .     S
Br56   C74     1.925   .     S
Br57   C552    1.930   1_554 S
C58    O99     1.267   .     A
C58    O97     1.267   .     A
C58    C64     1.436   .     S
C59    F84     1.360   .     S
C59    C78     1.408   .     A
C59    C73     1.396   .     A
C60    C72     1.394   .     A
C60    C73     1.404   .     A
C61    O100    1.283   .     A
C61    C63     1.454   .     S
C61    O98     1.284   .     A
C62    C77     1.424   .     A
C62    C71     1.481   .     S
C62    C74     1.416   .     A
C63    C117    1.335   .     S
C63    F139    1.362   .     S
C65    C68     1.450   .     S
C65    C225    1.343   .     S
C65    H247    1.088   .     S
C66    C67     1.427   .     S
C66    Br373   1.931   1_545 S
C66    C383    1.343   1_545 S
C67    O95     1.274   .     A
C67    O101    1.270   .     A
C68    O102    1.278   .     A
C68    O96     1.264   .     A
C69    C75     1.389   .     A
C69    C74     1.389   .     A
C69    H89     1.083   .     S
C70    O91     1.271   .     A
C70    C73     1.455   .     S
C70    O93     1.280   .     A
C71    O92     1.283   .     A
C71    O94     1.287   .     A
C72    F83     1.359   .     S
C72    C556    1.407   1_554 S
C75    C76     1.422   .     A
C75    Br534   1.930   .     S
C76    C77     1.425   .     A
C76    C555    1.423   .     S
C77    C81     1.416   .     A
C78    C553    1.423   1_554 S
C78    C556    1.420   1_554 S
C79    C80     1.399   .     A
C79    C555    1.420   .     S
C79    C549    1.407   .     S
C80    F82     1.359   .     S
C80    C81     1.388   .     A
C81    F85     1.359   .     S
H87    C117    1.086   .     S
H88    C383    1.088   1_545 S
O90    Zn106   1.929   .     S
O90    Zn103   1.962   .     S
O90    Zn104   1.937   .     S
O90    Zn105   1.944   .     S
O91    Zn104   1.931   .     S
O92    Zn106   1.938   .     S
O93    Zn105   1.927   .     S
O94    Zn103   1.921   .     S
O95    Zn103   1.933   .     S
O96    Zn106   1.942   .     S
O97    Zn104   1.926   .     S
O98    Zn105   1.934   .     S
O99    Zn106   1.930   .     S
O100   Zn103   1.925   .     S
O101   Zn104   1.946   .     S
O102   Zn105   1.935   .     S
Br107  C113    1.924   .     S
Br108  C278    1.931   .     S
Br109  C127    1.925   .     S
Br110  C605    1.930   1_554 S
C111   O152    1.267   .     A
C111   O150    1.267   .     A
C111   C117    1.436   .     S
C112   F137    1.360   .     S
C112   C131    1.408   .     A
C112   C126    1.396   .     A
C113   C125    1.394   .     A
C113   C126    1.404   .     A
C114   O153    1.283   .     A
C114   C116    1.454   .     S
C114   O151    1.284   .     A
C115   C130    1.424   .     A
C115   C124    1.481   .     S
C115   C127    1.416   .     A
C116   C11     1.335   1_655 S
C116   F33     1.362   1_655 S
C118   C121    1.450   .     S
C118   C278    1.343   .     S
C118   H300    1.088   .     S
C119   C120    1.427   .     S
C119   Br426   1.931   1_545 S
C119   C436    1.343   1_545 S
C120   O148    1.274   .     A
C120   O154    1.270   .     A
C121   O155    1.278   .     A
C121   O149    1.264   .     A
C122   C128    1.389   .     A
C122   C127    1.389   .     A
C122   H142    1.083   .     S
C123   O144    1.271   .     A
C123   C126    1.455   .     S
C123   O146    1.280   .     A
C124   O145    1.283   .     A
C124   O147    1.287   .     A
C125   F136    1.359   .     S
C125   C609    1.407   1_554 S
C128   C129    1.422   .     A
C128   Br587   1.930   .     S
C129   C130    1.425   .     A
C129   C608    1.423   .     S
C130   C134    1.416   .     A
C131   C606    1.423   1_554 S
C131   C609    1.420   1_554 S
C132   C133    1.399   .     A
C132   C608    1.420   .     S
C132   C602    1.407   .     S
C133   F135    1.359   .     S
C133   C134    1.388   .     A
C134   F138    1.359   .     S
H140   C11     1.086   1_655 S
H141   C436    1.088   1_545 S
O143   Zn159   1.929   .     S
O143   Zn156   1.962   .     S
O143   Zn157   1.937   .     S
O143   Zn158   1.944   .     S
O144   Zn157   1.931   .     S
O145   Zn159   1.938   .     S
O146   Zn158   1.927   .     S
O147   Zn156   1.921   .     S
O148   Zn156   1.933   .     S
O149   Zn159   1.942   .     S
O150   Zn157   1.926   .     S
O151   Zn158   1.934   .     S
O152   Zn159   1.930   .     S
O153   Zn156   1.925   .     S
O154   Zn157   1.946   .     S
O155   Zn158   1.935   .     S
Br160  C166    1.924   .     S
Br161  C331    1.931   .     S
Br162  C180    1.925   .     S
Br163  C658    1.930   1_554 S
C164   O205    1.267   .     A
C164   O203    1.267   .     A
C164   C170    1.436   .     S
C165   F190    1.360   .     S
C165   C184    1.408   .     A
C165   C179    1.396   .     A
C166   C178    1.394   .     A
C166   C179    1.404   .     A
C167   O206    1.283   .     A
C167   C169    1.454   .     S
C167   O204    1.284   .     A
C168   C183    1.424   .     A
C168   C177    1.481   .     S
C168   C180    1.416   .     A
C169   C223    1.335   .     S
C169   F245    1.362   .     S
C170   C275    1.335   1_455 S
C170   H299    1.086   1_455 S
C171   C174    1.450   .     S
C171   C331    1.343   .     S
C171   H353    1.088   .     S
C172   C173    1.427   .     S
C173   O201    1.274   .     A
C173   O207    1.270   .     A
C174   O208    1.278   .     A
C174   O202    1.264   .     A
C175   C181    1.389   .     A
C175   C180    1.389   .     A
C175   H195    1.083   .     S
C176   O197    1.271   .     A
C176   C179    1.455   .     S
C176   O199    1.280   .     A
C177   O198    1.283   .     A
C177   O200    1.287   .     A
C178   F189    1.359   .     S
C178   C662    1.407   1_554 S
C181   C182    1.422   .     A
C181   Br640   1.930   .     S
C182   C183    1.425   .     A
C182   C661    1.423   .     S
C183   C187    1.416   .     A
C184   C659    1.423   1_554 S
C184   C662    1.420   1_554 S
C185   C186    1.399   .     A
C185   C661    1.420   .     S
C185   C655    1.407   .     S
C186   F188    1.359   .     S
C186   C187    1.388   .     A
C187   F191    1.359   .     S
F192   C275    1.362   1_455 S
H193   C223    1.086   .     S
O196   Zn212   1.929   .     S
O196   Zn209   1.962   .     S
O196   Zn210   1.937   .     S
O196   Zn211   1.944   .     S
O197   Zn210   1.931   .     S
O198   Zn212   1.938   .     S
O199   Zn211   1.927   .     S
O200   Zn209   1.921   .     S
O201   Zn209   1.933   .     S
O202   Zn212   1.942   .     S
O203   Zn210   1.926   .     S
O204   Zn211   1.934   .     S
O205   Zn212   1.930   .     S
O206   Zn209   1.925   .     S
O207   Zn210   1.946   .     S
O208   Zn211   1.935   .     S
Br213  C219    1.924   .     S
Br214  C384    1.931   .     S
Br215  C233    1.925   .     S
Br216  C711    1.930   1_554 S
C217   O258    1.267   .     A
C217   O256    1.267   .     A
C217   C223    1.436   .     S
C218   F243    1.360   .     S
C218   C237    1.408   .     A
C218   C232    1.396   .     A
C219   C231    1.394   .     A
C219   C232    1.404   .     A
C220   O259    1.283   .     A
C220   C222    1.454   .     S
C220   O257    1.284   .     A
C221   C236    1.424   .     A
C221   C230    1.481   .     S
C221   C233    1.416   .     A
C222   C276    1.335   .     S
C222   F298    1.362   .     S
C224   C227    1.450   .     S
C224   C384    1.343   .     S
C224   H406    1.088   .     S
C225   C226    1.427   .     S
C226   O254    1.274   .     A
C226   O260    1.270   .     A
C227   O261    1.278   .     A
C227   O255    1.264   .     A
C228   C234    1.389   .     A
C228   C233    1.389   .     A
C228   H248    1.083   .     S
C229   O250    1.271   .     A
C229   C232    1.455   .     S
C229   O252    1.280   .     A
C230   O251    1.283   .     A
C230   O253    1.287   .     A
C231   F242    1.359   .     S
C231   C715    1.407   1_554 S
C234   C235    1.422   .     A
C234   Br693   1.930   .     S
C235   C236    1.425   .     A
C235   C714    1.423   .     S
C236   C240    1.416   .     A
C237   C712    1.423   1_554 S
C237   C715    1.420   1_554 S
C238   C239    1.399   .     A
C238   C714    1.420   .     S
C238   C708    1.407   .     S
C239   F241    1.359   .     S
C239   C240    1.388   .     A
C240   F244    1.359   .     S
H246   C276    1.086   .     S
O249   Zn265   1.929   .     S
O249   Zn262   1.962   .     S
O249   Zn263   1.937   .     S
O249   Zn264   1.944   .     S
O250   Zn263   1.931   .     S
O251   Zn265   1.938   .     S
O252   Zn264   1.927   .     S
O253   Zn262   1.921   .     S
O254   Zn262   1.933   .     S
O255   Zn265   1.942   .     S
O256   Zn263   1.926   .     S
O257   Zn264   1.934   .     S
O258   Zn265   1.930   .     S
O259   Zn262   1.925   .     S
O260   Zn263   1.946   .     S
O261   Zn264   1.935   .     S
Br266  C272    1.924   .     S
Br267  C437    1.931   .     S
Br268  C286    1.925   .     S
Br269  C764    1.930   1_554 S
C270   O311    1.267   .     A
C270   O309    1.267   .     A
C270   C276    1.436   .     S
C271   F296    1.360   .     S
C271   C290    1.408   .     A
C271   C285    1.396   .     A
C272   C284    1.394   .     A
C272   C285    1.404   .     A
C273   O312    1.283   .     A
C273   C275    1.454   .     S
C273   O310    1.284   .     A
C274   C289    1.424   .     A
C274   C283    1.481   .     S
C274   C286    1.416   .     A
C275   C170    1.335   1_655 S
C275   F192    1.362   1_655 S
C277   C280    1.450   .     S
C277   C437    1.343   .     S
C277   H459    1.088   .     S
C278   C279    1.427   .     S
C279   O307    1.274   .     A
C279   O313    1.270   .     A
C280   O314    1.278   .     A
C280   O308    1.264   .     A
C281   C287    1.389   .     A
C281   C286    1.389   .     A
C281   H301    1.083   .     S
C282   O303    1.271   .     A
C282   C285    1.455   .     S
C282   O305    1.280   .     A
C283   O304    1.283   .     A
C283   O306    1.287   .     A
C284   F295    1.359   .     S
C284   C768    1.407   1_554 S
C287   C288    1.422   .     A
C287   Br746   1.930   .     S
C288   C289    1.425   .     A
C288   C767    1.423   .     S
C289   C293    1.416   .     A
C290   C765    1.423   1_554 S
C290   C768    1.420   1_554 S
C291   C292    1.399   .     A
C291   C767    1.420   .     S
C291   C761    1.407   .     S
C292   F294    1.359   .     S
C292   C293    1.388   .     A
C293   F297    1.359   .     S
H299   C170    1.086   1_655 S
O302   Zn318   1.929   .     S
O302   Zn315   1.962   .     S
O302   Zn316   1.937   .     S
O302   Zn317   1.944   .     S
O303   Zn316   1.931   .     S
O304   Zn318   1.938   .     S
O305   Zn317   1.927   .     S
O306   Zn315   1.921   .     S
O307   Zn315   1.933   .     S
O308   Zn318   1.942   .     S
O309   Zn316   1.926   .     S
O310   Zn317   1.934   .     S
O311   Zn318   1.930   .     S
O312   Zn315   1.925   .     S
O313   Zn316   1.946   .     S
O314   Zn317   1.935   .     S
Br319  C325    1.924   .     S
Br320  C13     1.931   1_565 S
Br321  C339    1.925   .     S
Br322  C817    1.930   1_554 S
C323   O364    1.267   .     A
C323   O362    1.267   .     A
C323   C329    1.436   .     S
C324   F349    1.360   .     S
C324   C343    1.408   .     A
C324   C338    1.396   .     A
C325   C337    1.394   .     A
C325   C338    1.404   .     A
C326   O365    1.283   .     A
C326   C328    1.454   .     S
C326   O363    1.284   .     A
C327   C342    1.424   .     A
C327   C336    1.481   .     S
C327   C339    1.416   .     A
C328   C382    1.335   .     S
C328   F404    1.362   .     S
C329   C434    1.335   1_455 S
C329   H458    1.086   1_455 S
C330   C333    1.450   .     S
C330   C13     1.343   1_565 S
C330   H35     1.088   1_565 S
C331   C332    1.427   .     S
C332   O360    1.274   .     A
C332   O366    1.270   .     A
C333   O367    1.278   .     A
C333   O361    1.264   .     A
C334   C340    1.389   .     A
C334   C339    1.389   .     A
C334   H354    1.083   .     S
C335   O356    1.271   .     A
C335   C338    1.455   .     S
C335   O358    1.280   .     A
C336   O357    1.283   .     A
C336   O359    1.287   .     A
C337   F348    1.359   .     S
C337   C821    1.407   1_554 S
C340   C341    1.422   .     A
C340   Br799   1.930   .     S
C341   C342    1.425   .     A
C341   C820    1.423   .     S
C342   C346    1.416   .     A
C343   C818    1.423   1_554 S
C343   C821    1.420   1_554 S
C344   C345    1.399   .     A
C344   C820    1.420   .     S
C344   C814    1.407   .     S
C345   F347    1.359   .     S
C345   C346    1.388   .     A
C346   F350    1.359   .     S
F351   C434    1.362   1_455 S
H352   C382    1.086   .     S
O355   Zn371   1.929   .     S
O355   Zn368   1.962   .     S
O355   Zn369   1.937   .     S
O355   Zn370   1.944   .     S
O356   Zn369   1.931   .     S
O357   Zn371   1.938   .     S
O358   Zn370   1.927   .     S
O359   Zn368   1.921   .     S
O360   Zn368   1.933   .     S
O361   Zn371   1.942   .     S
O362   Zn369   1.926   .     S
O363   Zn370   1.934   .     S
O364   Zn371   1.930   .     S
O365   Zn368   1.925   .     S
O366   Zn369   1.946   .     S
O367   Zn370   1.935   .     S
Br372  C378    1.924   .     S
Br373  C66     1.931   1_565 S
Br374  C392    1.925   .     S
Br375  C870    1.930   1_554 S
C376   O417    1.267   .     A
C376   O415    1.267   .     A
C376   C382    1.436   .     S
C377   F402    1.360   .     S
C377   C396    1.408   .     A
C377   C391    1.396   .     A
C378   C390    1.394   .     A
C378   C391    1.404   .     A
C379   O418    1.283   .     A
C379   C381    1.454   .     S
C379   O416    1.284   .     A
C380   C395    1.424   .     A
C380   C389    1.481   .     S
C380   C392    1.416   .     A
C381   C435    1.335   .     S
C381   F457    1.362   .     S
C383   C386    1.450   .     S
C383   C66     1.343   1_565 S
C383   H88     1.088   1_565 S
C384   C385    1.427   .     S
C385   O413    1.274   .     A
C385   O419    1.270   .     A
C386   O420    1.278   .     A
C386   O414    1.264   .     A
C387   C393    1.389   .     A
C387   C392    1.389   .     A
C387   H407    1.083   .     S
C388   O409    1.271   .     A
C388   C391    1.455   .     S
C388   O411    1.280   .     A
C389   O410    1.283   .     A
C389   O412    1.287   .     A
C390   F401    1.359   .     S
C390   C874    1.407   1_554 S
C393   C394    1.422   .     A
C393   Br852   1.930   .     S
C394   C395    1.425   .     A
C394   C873    1.423   .     S
C395   C399    1.416   .     A
C396   C871    1.423   1_554 S
C396   C874    1.420   1_554 S
C397   C398    1.399   .     A
C397   C873    1.420   .     S
C397   C867    1.407   .     S
C398   F400    1.359   .     S
C398   C399    1.388   .     A
C399   F403    1.359   .     S
H405   C435    1.086   .     S
O408   Zn424   1.929   .     S
O408   Zn421   1.962   .     S
O408   Zn422   1.937   .     S
O408   Zn423   1.944   .     S
O409   Zn422   1.931   .     S
O410   Zn424   1.938   .     S
O411   Zn423   1.927   .     S
O412   Zn421   1.921   .     S
O413   Zn421   1.933   .     S
O414   Zn424   1.942   .     S
O415   Zn422   1.926   .     S
O416   Zn423   1.934   .     S
O417   Zn424   1.930   .     S
O418   Zn421   1.925   .     S
O419   Zn422   1.946   .     S
O420   Zn423   1.935   .     S
Br425  C431    1.924   .     S
Br426  C119    1.931   1_565 S
Br427  C445    1.925   .     S
Br428  C923    1.930   1_554 S
C429   O470    1.267   .     A
C429   O468    1.267   .     A
C429   C435    1.436   .     S
C430   F455    1.360   .     S
C430   C449    1.408   .     A
C430   C444    1.396   .     A
C431   C443    1.394   .     A
C431   C444    1.404   .     A
C432   O471    1.283   .     A
C432   C434    1.454   .     S
C432   O469    1.284   .     A
C433   C448    1.424   .     A
C433   C442    1.481   .     S
C433   C445    1.416   .     A
C434   C329    1.335   1_655 S
C434   F351    1.362   1_655 S
C436   C439    1.450   .     S
C436   C119    1.343   1_565 S
C436   H141    1.088   1_565 S
C437   C438    1.427   .     S
C438   O466    1.274   .     A
C438   O472    1.270   .     A
C439   O473    1.278   .     A
C439   O467    1.264   .     A
C440   C446    1.389   .     A
C440   C445    1.389   .     A
C440   H460    1.083   .     S
C441   O462    1.271   .     A
C441   C444    1.455   .     S
C441   O464    1.280   .     A
C442   O463    1.283   .     A
C442   O465    1.287   .     A
C443   F454    1.359   .     S
C443   C927    1.407   1_554 S
C446   C447    1.422   .     A
C446   Br905   1.930   .     S
C447   C448    1.425   .     A
C447   C926    1.423   .     S
C448   C452    1.416   .     A
C449   C924    1.423   1_554 S
C449   C927    1.420   1_554 S
C450   C451    1.399   .     A
C450   C926    1.420   .     S
C450   C920    1.407   .     S
C451   F453    1.359   .     S
C451   C452    1.388   .     A
C452   F456    1.359   .     S
H458   C329    1.086   1_655 S
O461   Zn477   1.929   .     S
O461   Zn474   1.962   .     S
O461   Zn475   1.937   .     S
O461   Zn476   1.944   .     S
O462   Zn475   1.931   .     S
O463   Zn477   1.938   .     S
O464   Zn476   1.927   .     S
O465   Zn474   1.921   .     S
O466   Zn474   1.933   .     S
O467   Zn477   1.942   .     S
O468   Zn475   1.926   .     S
O469   Zn476   1.934   .     S
O470   Zn477   1.930   .     S
O471   Zn474   1.925   .     S
O472   Zn475   1.946   .     S
O473   Zn476   1.935   .     S
Br478  C484    1.924   .     S
Br479  C649    1.931   .     S
Br480  C498    1.925   .     S
C482   O523    1.267   .     A
C482   O521    1.267   .     A
C482   C488    1.436   .     S
C483   F508    1.360   .     S
C483   C502    1.408   .     A
C483   C497    1.396   .     A
C484   C496    1.394   .     A
C484   C497    1.404   .     A
C485   O524    1.283   .     A
C485   C487    1.454   .     S
C485   O522    1.284   .     A
C486   C501    1.424   .     A
C486   C495    1.481   .     S
C486   C498    1.416   .     A
C487   C541    1.335   .     S
C487   F563    1.362   .     S
C488   C593    1.335   1_455 S
C488   H617    1.086   1_455 S
C489   C492    1.450   .     S
C489   C649    1.343   .     S
C489   H671    1.088   .     S
C490   C491    1.427   .     S
C490   Br797   1.931   1_545 S
C490   C807    1.343   1_545 S
C491   O519    1.274   .     A
C491   O525    1.270   .     A
C492   O526    1.278   .     A
C492   O520    1.264   .     A
C493   C499    1.389   .     A
C493   C498    1.389   .     A
C493   H513    1.083   .     S
C494   O515    1.271   .     A
C494   C497    1.455   .     S
C494   O517    1.280   .     A
C495   O516    1.283   .     A
C495   O518    1.287   .     A
C496   F507    1.359   .     S
C499   C500    1.422   .     A
C499   Br4     1.930   1_556 S
C500   C501    1.425   .     A
C500   C25     1.423   1_556 S
C501   C505    1.416   .     A
C503   C504    1.399   .     A
C503   C25     1.420   1_556 S
C503   C19     1.407   1_556 S
C504   F506    1.359   .     S
C504   C505    1.388   .     A
C505   F509    1.359   .     S
F510   C593    1.362   1_455 S
H511   C541    1.086   .     S
H512   C807    1.088   1_545 S
O514   Zn530   1.929   .     S
O514   Zn527   1.962   .     S
O514   Zn528   1.937   .     S
O514   Zn529   1.944   .     S
O515   Zn528   1.931   .     S
O516   Zn530   1.938   .     S
O517   Zn529   1.927   .     S
O518   Zn527   1.921   .     S
O519   Zn527   1.933   .     S
O520   Zn530   1.942   .     S
O521   Zn528   1.926   .     S
O522   Zn529   1.934   .     S
O523   Zn530   1.930   .     S
O524   Zn527   1.925   .     S
O525   Zn528   1.946   .     S
O526   Zn529   1.935   .     S
Br531  C537    1.924   .     S
Br532  C702    1.931   .     S
Br533  C551    1.925   .     S
C535   O576    1.267   .     A
C535   O574    1.267   .     A
C535   C541    1.436   .     S
C536   F561    1.360   .     S
C536   C555    1.408   .     A
C536   C550    1.396   .     A
C537   C549    1.394   .     A
C537   C550    1.404   .     A
C538   O577    1.283   .     A
C538   C540    1.454   .     S
C538   O575    1.284   .     A
C539   C554    1.424   .     A
C539   C548    1.481   .     S
C539   C551    1.416   .     A
C540   C594    1.335   .     S
C540   F616    1.362   .     S
C542   C545    1.450   .     S
C542   C702    1.343   .     S
C542   H724    1.088   .     S
C543   C544    1.427   .     S
C543   Br850   1.931   1_545 S
C543   C860    1.343   1_545 S
C544   O572    1.274   .     A
C544   O578    1.270   .     A
C545   O579    1.278   .     A
C545   O573    1.264   .     A
C546   C552    1.389   .     A
C546   C551    1.389   .     A
C546   H566    1.083   .     S
C547   O568    1.271   .     A
C547   C550    1.455   .     S
C547   O570    1.280   .     A
C548   O569    1.283   .     A
C548   O571    1.287   .     A
C549   F560    1.359   .     S
C552   C553    1.422   .     A
C552   Br57    1.930   1_556 S
C553   C554    1.425   .     A
C553   C78     1.423   1_556 S
C554   C558    1.416   .     A
C556   C557    1.399   .     A
C556   C78     1.420   1_556 S
C556   C72     1.407   1_556 S
C557   F559    1.359   .     S
C557   C558    1.388   .     A
C558   F562    1.359   .     S
H564   C594    1.086   .     S
H565   C860    1.088   1_545 S
O567   Zn583   1.929   .     S
O567   Zn580   1.962   .     S
O567   Zn581   1.937   .     S
O567   Zn582   1.944   .     S
O568   Zn581   1.931   .     S
O569   Zn583   1.938   .     S
O570   Zn582   1.927   .     S
O571   Zn580   1.921   .     S
O572   Zn580   1.933   .     S
O573   Zn583   1.942   .     S
O574   Zn581   1.926   .     S
O575   Zn582   1.934   .     S
O576   Zn583   1.930   .     S
O577   Zn580   1.925   .     S
O578   Zn581   1.946   .     S
O579   Zn582   1.935   .     S
Br584  C590    1.924   .     S
Br585  C755    1.931   .     S
Br586  C604    1.925   .     S
C588   O629    1.267   .     A
C588   O627    1.267   .     A
C588   C594    1.436   .     S
C589   F614    1.360   .     S
C589   C608    1.408   .     A
C589   C603    1.396   .     A
C590   C602    1.394   .     A
C590   C603    1.404   .     A
C591   O630    1.283   .     A
C591   C593    1.454   .     S
C591   O628    1.284   .     A
C592   C607    1.424   .     A
C592   C601    1.481   .     S
C592   C604    1.416   .     A
C593   C488    1.335   1_655 S
C593   F510    1.362   1_655 S
C595   C598    1.450   .     S
C595   C755    1.343   .     S
C595   H777    1.088   .     S
C596   C597    1.427   .     S
C596   Br903   1.931   1_545 S
C596   C913    1.343   1_545 S
C597   O625    1.274   .     A
C597   O631    1.270   .     A
C598   O632    1.278   .     A
C598   O626    1.264   .     A
C599   C605    1.389   .     A
C599   C604    1.389   .     A
C599   H619    1.083   .     S
C600   O621    1.271   .     A
C600   C603    1.455   .     S
C600   O623    1.280   .     A
C601   O622    1.283   .     A
C601   O624    1.287   .     A
C602   F613    1.359   .     S
C605   C606    1.422   .     A
C605   Br110   1.930   1_556 S
C606   C607    1.425   .     A
C606   C131    1.423   1_556 S
C607   C611    1.416   .     A
C609   C610    1.399   .     A
C609   C131    1.420   1_556 S
C609   C125    1.407   1_556 S
C610   F612    1.359   .     S
C610   C611    1.388   .     A
C611   F615    1.359   .     S
H617   C488    1.086   1_655 S
H618   C913    1.088   1_545 S
O620   Zn636   1.929   .     S
O620   Zn633   1.962   .     S
O620   Zn634   1.937   .     S
O620   Zn635   1.944   .     S
O621   Zn634   1.931   .     S
O622   Zn636   1.938   .     S
O623   Zn635   1.927   .     S
O624   Zn633   1.921   .     S
O625   Zn633   1.933   .     S
O626   Zn636   1.942   .     S
O627   Zn634   1.926   .     S
O628   Zn635   1.934   .     S
O629   Zn636   1.930   .     S
O630   Zn633   1.925   .     S
O631   Zn634   1.946   .     S
O632   Zn635   1.935   .     S
Br637  C643    1.924   .     S
Br638  C808    1.931   .     S
Br639  C657    1.925   .     S
C641   O682    1.267   .     A
C641   O680    1.267   .     A
C641   C647    1.436   .     S
C642   F667    1.360   .     S
C642   C661    1.408   .     A
C642   C656    1.396   .     A
C643   C655    1.394   .     A
C643   C656    1.404   .     A
C644   O683    1.283   .     A
C644   C646    1.454   .     S
C644   O681    1.284   .     A
C645   C660    1.424   .     A
C645   C654    1.481   .     S
C645   C657    1.416   .     A
C646   C700    1.335   .     S
C646   F722    1.362   .     S
C647   C752    1.335   1_455 S
C647   H776    1.086   1_455 S
C648   C651    1.450   .     S
C648   C808    1.343   .     S
C648   H830    1.088   .     S
C649   C650    1.427   .     S
C650   O678    1.274   .     A
C650   O684    1.270   .     A
C651   O685    1.278   .     A
C651   O679    1.264   .     A
C652   C658    1.389   .     A
C652   C657    1.389   .     A
C652   H672    1.083   .     S
C653   O674    1.271   .     A
C653   C656    1.455   .     S
C653   O676    1.280   .     A
C654   O675    1.283   .     A
C654   O677    1.287   .     A
C655   F666    1.359   .     S
C658   C659    1.422   .     A
C658   Br163   1.930   1_556 S
C659   C660    1.425   .     A
C659   C184    1.423   1_556 S
C660   C664    1.416   .     A
C662   C663    1.399   .     A
C662   C184    1.420   1_556 S
C662   C178    1.407   1_556 S
C663   F665    1.359   .     S
C663   C664    1.388   .     A
C664   F668    1.359   .     S
F669   C752    1.362   1_455 S
H670   C700    1.086   .     S
O673   Zn689   1.929   .     S
O673   Zn686   1.962   .     S
O673   Zn687   1.937   .     S
O673   Zn688   1.944   .     S
O674   Zn687   1.931   .     S
O675   Zn689   1.938   .     S
O676   Zn688   1.927   .     S
O677   Zn686   1.921   .     S
O678   Zn686   1.933   .     S
O679   Zn689   1.942   .     S
O680   Zn687   1.926   .     S
O681   Zn688   1.934   .     S
O682   Zn689   1.930   .     S
O683   Zn686   1.925   .     S
O684   Zn687   1.946   .     S
O685   Zn688   1.935   .     S
Br690  C696    1.924   .     S
Br691  C861    1.931   .     S
Br692  C710    1.925   .     S
C694   O735    1.267   .     A
C694   O733    1.267   .     A
C694   C700    1.436   .     S
C695   F720    1.360   .     S
C695   C714    1.408   .     A
C695   C709    1.396   .     A
C696   C708    1.394   .     A
C696   C709    1.404   .     A
C697   O736    1.283   .     A
C697   C699    1.454   .     S
C697   O734    1.284   .     A
C698   C713    1.424   .     A
C698   C707    1.481   .     S
C698   C710    1.416   .     A
C699   C753    1.335   .     S
C699   F775    1.362   .     S
C701   C704    1.450   .     S
C701   C861    1.343   .     S
C701   H883    1.088   .     S
C702   C703    1.427   .     S
C703   O731    1.274   .     A
C703   O737    1.270   .     A
C704   O738    1.278   .     A
C704   O732    1.264   .     A
C705   C711    1.389   .     A
C705   C710    1.389   .     A
C705   H725    1.083   .     S
C706   O727    1.271   .     A
C706   C709    1.455   .     S
C706   O729    1.280   .     A
C707   O728    1.283   .     A
C707   O730    1.287   .     A
C708   F719    1.359   .     S
C711   C712    1.422   .     A
C711   Br216   1.930   1_556 S
C712   C713    1.425   .     A
C712   C237    1.423   1_556 S
C713   C717    1.416   .     A
C715   C716    1.399   .     A
C715   C237    1.420   1_556 S
C715   C231    1.407   1_556 S
C716   F718    1.359   .     S
C716   C717    1.388   .     A
C717   F721    1.359   .     S
H723   C753    1.086   .     S
O726   Zn742   1.929   .     S
O726   Zn739   1.962   .     S
O726   Zn740   1.937   .     S
O726   Zn741   1.944   .     S
O727   Zn740   1.931   .     S
O728   Zn742   1.938   .     S
O729   Zn741   1.927   .     S
O730   Zn739   1.921   .     S
O731   Zn739   1.933   .     S
O732   Zn742   1.942   .     S
O733   Zn740   1.926   .     S
O734   Zn741   1.934   .     S
O735   Zn742   1.930   .     S
O736   Zn739   1.925   .     S
O737   Zn740   1.946   .     S
O738   Zn741   1.935   .     S
Br743  C749    1.924   .     S
Br744  C914    1.931   .     S
Br745  C763    1.925   .     S
C747   O788    1.267   .     A
C747   O786    1.267   .     A
C747   C753    1.436   .     S
C748   F773    1.360   .     S
C748   C767    1.408   .     A
C748   C762    1.396   .     A
C749   C761    1.394   .     A
C749   C762    1.404   .     A
C750   O789    1.283   .     A
C750   C752    1.454   .     S
C750   O787    1.284   .     A
C751   C766    1.424   .     A
C751   C760    1.481   .     S
C751   C763    1.416   .     A
C752   C647    1.335   1_655 S
C752   F669    1.362   1_655 S
C754   C757    1.450   .     S
C754   C914    1.343   .     S
C754   H936    1.088   .     S
C755   C756    1.427   .     S
C756   O784    1.274   .     A
C756   O790    1.270   .     A
C757   O791    1.278   .     A
C757   O785    1.264   .     A
C758   C764    1.389   .     A
C758   C763    1.389   .     A
C758   H778    1.083   .     S
C759   O780    1.271   .     A
C759   C762    1.455   .     S
C759   O782    1.280   .     A
C760   O781    1.283   .     A
C760   O783    1.287   .     A
C761   F772    1.359   .     S
C764   C765    1.422   .     A
C764   Br269   1.930   1_556 S
C765   C766    1.425   .     A
C765   C290    1.423   1_556 S
C766   C770    1.416   .     A
C768   C769    1.399   .     A
C768   C290    1.420   1_556 S
C768   C284    1.407   1_556 S
C769   F771    1.359   .     S
C769   C770    1.388   .     A
C770   F774    1.359   .     S
H776   C647    1.086   1_655 S
O779   Zn795   1.929   .     S
O779   Zn792   1.962   .     S
O779   Zn793   1.937   .     S
O779   Zn794   1.944   .     S
O780   Zn793   1.931   .     S
O781   Zn795   1.938   .     S
O782   Zn794   1.927   .     S
O783   Zn792   1.921   .     S
O784   Zn792   1.933   .     S
O785   Zn795   1.942   .     S
O786   Zn793   1.926   .     S
O787   Zn794   1.934   .     S
O788   Zn795   1.930   .     S
O789   Zn792   1.925   .     S
O790   Zn793   1.946   .     S
O791   Zn794   1.935   .     S
Br796  C802    1.924   .     S
Br797  C490    1.931   1_565 S
Br798  C816    1.925   .     S
C800   O841    1.267   .     A
C800   O839    1.267   .     A
C800   C806    1.436   .     S
C801   F826    1.360   .     S
C801   C820    1.408   .     A
C801   C815    1.396   .     A
C802   C814    1.394   .     A
C802   C815    1.404   .     A
C803   O842    1.283   .     A
C803   C805    1.454   .     S
C803   O840    1.284   .     A
C804   C819    1.424   .     A
C804   C813    1.481   .     S
C804   C816    1.416   .     A
C805   C859    1.335   .     S
C805   F881    1.362   .     S
C806   C911    1.335   1_455 S
C806   H935    1.086   1_455 S
C807   C810    1.450   .     S
C807   C490    1.343   1_565 S
C807   H512    1.088   1_565 S
C808   C809    1.427   .     S
C809   O837    1.274   .     A
C809   O843    1.270   .     A
C810   O844    1.278   .     A
C810   O838    1.264   .     A
C811   C817    1.389   .     A
C811   C816    1.389   .     A
C811   H831    1.083   .     S
C812   O833    1.271   .     A
C812   C815    1.455   .     S
C812   O835    1.280   .     A
C813   O834    1.283   .     A
C813   O836    1.287   .     A
C814   F825    1.359   .     S
C817   C818    1.422   .     A
C817   Br322   1.930   1_556 S
C818   C819    1.425   .     A
C818   C343    1.423   1_556 S
C819   C823    1.416   .     A
C821   C822    1.399   .     A
C821   C343    1.420   1_556 S
C821   C337    1.407   1_556 S
C822   F824    1.359   .     S
C822   C823    1.388   .     A
C823   F827    1.359   .     S
F828   C911    1.362   1_455 S
H829   C859    1.086   .     S
O832   Zn848   1.929   .     S
O832   Zn845   1.962   .     S
O832   Zn846   1.937   .     S
O832   Zn847   1.944   .     S
O833   Zn846   1.931   .     S
O834   Zn848   1.938   .     S
O835   Zn847   1.927   .     S
O836   Zn845   1.921   .     S
O837   Zn845   1.933   .     S
O838   Zn848   1.942   .     S
O839   Zn846   1.926   .     S
O840   Zn847   1.934   .     S
O841   Zn848   1.930   .     S
O842   Zn845   1.925   .     S
O843   Zn846   1.946   .     S
O844   Zn847   1.935   .     S
Br849  C855    1.924   .     S
Br850  C543    1.931   1_565 S
Br851  C869    1.925   .     S
C853   O894    1.267   .     A
C853   O892    1.267   .     A
C853   C859    1.436   .     S
C854   F879    1.360   .     S
C854   C873    1.408   .     A
C854   C868    1.396   .     A
C855   C867    1.394   .     A
C855   C868    1.404   .     A
C856   O895    1.283   .     A
C856   C858    1.454   .     S
C856   O893    1.284   .     A
C857   C872    1.424   .     A
C857   C866    1.481   .     S
C857   C869    1.416   .     A
C858   C912    1.335   .     S
C858   F934    1.362   .     S
C860   C863    1.450   .     S
C860   C543    1.343   1_565 S
C860   H565    1.088   1_565 S
C861   C862    1.427   .     S
C862   O890    1.274   .     A
C862   O896    1.270   .     A
C863   O897    1.278   .     A
C863   O891    1.264   .     A
C864   C870    1.389   .     A
C864   C869    1.389   .     A
C864   H884    1.083   .     S
C865   O886    1.271   .     A
C865   C868    1.455   .     S
C865   O888    1.280   .     A
C866   O887    1.283   .     A
C866   O889    1.287   .     A
C867   F878    1.359   .     S
C870   C871    1.422   .     A
C870   Br375   1.930   1_556 S
C871   C872    1.425   .     A
C871   C396    1.423   1_556 S
C872   C876    1.416   .     A
C874   C875    1.399   .     A
C874   C396    1.420   1_556 S
C874   C390    1.407   1_556 S
C875   F877    1.359   .     S
C875   C876    1.388   .     A
C876   F880    1.359   .     S
H882   C912    1.086   .     S
O885   Zn901   1.929   .     S
O885   Zn898   1.962   .     S
O885   Zn899   1.937   .     S
O885   Zn900   1.944   .     S
O886   Zn899   1.931   .     S
O887   Zn901   1.938   .     S
O888   Zn900   1.927   .     S
O889   Zn898   1.921   .     S
O890   Zn898   1.933   .     S
O891   Zn901   1.942   .     S
O892   Zn899   1.926   .     S
O893   Zn900   1.934   .     S
O894   Zn901   1.930   .     S
O895   Zn898   1.925   .     S
O896   Zn899   1.946   .     S
O897   Zn900   1.935   .     S
Br902  C908    1.924   .     S
Br903  C596    1.931   1_565 S
Br904  C922    1.925   .     S
C906   O947    1.267   .     A
C906   O945    1.267   .     A
C906   C912    1.436   .     S
C907   F932    1.360   .     S
C907   C926    1.408   .     A
C907   C921    1.396   .     A
C908   C920    1.394   .     A
C908   C921    1.404   .     A
C909   O948    1.283   .     A
C909   C911    1.454   .     S
C909   O946    1.284   .     A
C910   C925    1.424   .     A
C910   C919    1.481   .     S
C910   C922    1.416   .     A
C911   C806    1.335   1_655 S
C911   F828    1.362   1_655 S
C913   C916    1.450   .     S
C913   C596    1.343   1_565 S
C913   H618    1.088   1_565 S
C914   C915    1.427   .     S
C915   O943    1.274   .     A
C915   O949    1.270   .     A
C916   O950    1.278   .     A
C916   O944    1.264   .     A
C917   C923    1.389   .     A
C917   C922    1.389   .     A
C917   H937    1.083   .     S
C918   O939    1.271   .     A
C918   C921    1.455   .     S
C918   O941    1.280   .     A
C919   O940    1.283   .     A
C919   O942    1.287   .     A
C920   F931    1.359   .     S
C923   C924    1.422   .     A
C923   Br428   1.930   1_556 S
C924   C925    1.425   .     A
C924   C449    1.423   1_556 S
C925   C929    1.416   .     A
C927   C928    1.399   .     A
C927   C449    1.420   1_556 S
C927   C443    1.407   1_556 S
C928   F930    1.359   .     S
C928   C929    1.388   .     A
C929   F933    1.359   .     S
H935   C806    1.086   1_655 S
O938   Zn954   1.929   .     S
O938   Zn951   1.962   .     S
O938   Zn952   1.937   .     S
O938   Zn953   1.944   .     S
O939   Zn952   1.931   .     S
O940   Zn954   1.938   .     S
O941   Zn953   1.927   .     S
O942   Zn951   1.921   .     S
O943   Zn951   1.933   .     S
O944   Zn954   1.942   .     S
O945   Zn952   1.926   .     S
O946   Zn953   1.934   .     S
O947   Zn954   1.930   .     S
O948   Zn951   1.925   .     S
O949   Zn952   1.946   .     S
O950   Zn953   1.935   .     S
