data_str_m3_o10_o18_pcu_sym.76
_audit_creation_date              2020-01-03
_audit_creation_method            'Materials Studio'
_symmetry_space_group_name_H-M    'P1'
_symmetry_Int_Tables_number       1
_symmetry_cell_setting            triclinic
loop_
_symmetry_equiv_pos_as_xyz
  x,y,z
_cell_length_a                    23.9301
_cell_length_b                    25.6158
_cell_length_c                    27.1318
_cell_angle_alpha                 95.5586
_cell_angle_beta                  93.7473
_cell_angle_gamma                 93.2368
loop_
_atom_site_label
_atom_site_type_symbol
_atom_site_fract_x
_atom_site_fract_y
_atom_site_fract_z
_atom_site_U_iso_or_equiv
_atom_site_adp_type
_atom_site_occupancy
C1     C     0.01466   0.26463   0.24915   0.00000  Uiso   1.00
C2     C     0.31245   0.16497   0.15867   0.00000  Uiso   1.00
C3     C     0.03506   0.18701   0.39395   0.00000  Uiso   1.00
C4     C     0.30352   0.16817   0.10486   0.00000  Uiso   1.00
C5     C     0.04218   0.26081   0.45717   0.00000  Uiso   1.00
C6     C     0.32429   0.13478   0.02205   0.00000  Uiso   1.00
C7     C     0.01352   0.23271   0.41578   0.00000  Uiso   1.00
C8     C     0.00425   0.14037   0.07291   0.00000  Uiso   1.00
C9     C     0.08268   0.16713   0.41608   0.00000  Uiso   1.00
C10    C     0.25977   0.19677   0.08514   0.00000  Uiso   1.00
C11    C     0.11729   0.19997   0.45178   0.00000  Uiso   1.00
C12    C     0.31869   0.06871   0.25098   0.00000  Uiso   1.00
C13    C     0.24643   0.19191   0.03301   0.00000  Uiso   1.00
C14    C     0.09489   0.24588   0.47425   0.00000  Uiso   1.00
C15    C     0.27677   0.15701   0.00245   0.00000  Uiso   1.00
C16    C     0.17316   0.18904   0.46602   0.00000  Uiso   1.00
C17    C     0.19919   0.21445   0.01078   0.00000  Uiso   1.00
C18    C     0.22534   0.22572   0.11903   0.00000  Uiso   1.00
C19    C     0.09221   0.11205   0.40380   0.00000  Uiso   1.00
C20    C     0.17777   0.26167   0.03047   0.00000  Uiso   1.00
C21    C     0.20546   0.15682   0.43549   0.00000  Uiso   1.00
C22    C     0.12635   0.27726   0.01225   0.00000  Uiso   1.00
C23    C     0.25755   0.14242   0.45309   0.00000  Uiso   1.00
C24    C     0.02248   0.31921   0.24960   0.00000  Uiso   1.00
C25    C     0.31088   0.01414   0.25071   0.00000  Uiso   1.00
C26    C     0.02136   0.17145   0.34129   0.00000  Uiso   1.00
H27    H     0.11093   0.31363   0.02832   0.00000  Uiso   1.00
H28    H     0.26819   0.33070   0.25091   0.00000  Uiso   1.00
H29    H     0.10893   0.02738   0.16670   0.00000  Uiso   1.00
H30    H     0.22462   0.30540   0.33422   0.00000  Uiso   1.00
H31    H     0.28100   0.11690   0.42903   0.00000  Uiso   1.00
H32    H     0.03900   0.11977   0.08753   0.00000  Uiso   1.00
H33    H     0.30989   0.24839   0.39907   0.00000  Uiso   1.00
H34    H     0.02514   0.29626   0.47352   0.00000  Uiso   1.00
H35    H     0.01561   0.10999   0.49842   0.00000  Uiso   1.00
H36    H     0.20164   0.28824   0.05849   0.00000  Uiso   1.00
H37    H     0.19185   0.14406   0.39724   0.00000  Uiso   1.00
H38    H     0.06517   0.00266   0.24942   0.00000  Uiso   1.00
N39    N     0.14695   0.15216   0.23739   0.00000  Uiso   1.00
N40    N     0.18638   0.18117   0.26260   0.00000  Uiso   1.00
N41    N     0.19794   0.24866   0.14618   0.00000  Uiso   1.00
N42    N     0.09950   0.06808   0.39398   0.00000  Uiso   1.00
O43    O     0.29719   0.24631   0.25309   0.00000  Uiso   1.00
O44    O     0.17029   0.05550   0.25281   0.00000  Uiso   1.00
O45    O     0.10121   0.06433   0.17687   0.00000  Uiso   1.00
O46    O     0.16273   0.27821   0.24836   0.00000  Uiso   1.00
O47    O     0.12792   0.24427   0.32310   0.00000  Uiso   1.00
O48    O     0.23233   0.26857   0.32358   0.00000  Uiso   1.00
O49    O     0.03614   0.08702   0.24690   0.00000  Uiso   1.00
O50    O     0.05822   0.23702   0.24501   0.00000  Uiso   1.00
O51    O     0.27512   0.09632   0.25498   0.00000  Uiso   1.00
O52    O     0.30328   0.17397   0.32247   0.00000  Uiso   1.00
O53    O     0.03005   0.15937   0.17753   0.00000  Uiso   1.00
O54    O     0.06431   0.16467   0.31439   0.00000  Uiso   1.00
O55    O     0.26902   0.16866   0.18561   0.00000  Uiso   1.00
O56    O     0.20568   0.08859   0.17775   0.00000  Uiso   1.00
S57    S     0.15884   0.08959   0.21172   0.00000  Uiso   1.00
S58    S     0.17451   0.24357   0.28890   0.00000  Uiso   1.00
Zn59   Zn    0.27033   0.17287   0.25539   0.00000  Uiso   1.00
Zn60   Zn    0.06300   0.16046   0.24460   0.00000  Uiso   1.00
C61    C     0.34800   0.26463   0.24915   0.00000  Uiso   1.00
C62    C     0.64579   0.16497   0.15867   0.00000  Uiso   1.00
C63    C     0.36839   0.18701   0.39395   0.00000  Uiso   1.00
C64    C     0.63686   0.16817   0.10486   0.00000  Uiso   1.00
C65    C     0.37551   0.26081   0.45717   0.00000  Uiso   1.00
C66    C     0.65763   0.13478   0.02205   0.00000  Uiso   1.00
C67    C     0.34685   0.23271   0.41578   0.00000  Uiso   1.00
C68    C     0.33759   0.14037   0.07291   0.00000  Uiso   1.00
C69    C     0.41601   0.16713   0.41608   0.00000  Uiso   1.00
C70    C     0.59310   0.19677   0.08514   0.00000  Uiso   1.00
C71    C     0.45062   0.19997   0.45178   0.00000  Uiso   1.00
C72    C     0.65202   0.06871   0.25098   0.00000  Uiso   1.00
C73    C     0.57976   0.19191   0.03301   0.00000  Uiso   1.00
C74    C     0.42823   0.24588   0.47425   0.00000  Uiso   1.00
C75    C     0.61011   0.15701   0.00245   0.00000  Uiso   1.00
C76    C     0.50649   0.18904   0.46602   0.00000  Uiso   1.00
C77    C     0.53252   0.21445   0.01078   0.00000  Uiso   1.00
C78    C     0.55867   0.22572   0.11903   0.00000  Uiso   1.00
C79    C     0.42555   0.11205   0.40380   0.00000  Uiso   1.00
C80    C     0.51110   0.26167   0.03047   0.00000  Uiso   1.00
C81    C     0.53879   0.15682   0.43549   0.00000  Uiso   1.00
C82    C     0.45968   0.27726   0.01225   0.00000  Uiso   1.00
C83    C     0.59088   0.14242   0.45309   0.00000  Uiso   1.00
C84    C     0.35581   0.31921   0.24960   0.00000  Uiso   1.00
C85    C     0.64422   0.01414   0.25071   0.00000  Uiso   1.00
C86    C     0.35470   0.17145   0.34129   0.00000  Uiso   1.00
H87    H     0.44426   0.31363   0.02832   0.00000  Uiso   1.00
H88    H     0.60152   0.33070   0.25091   0.00000  Uiso   1.00
H89    H     0.44226   0.02738   0.16670   0.00000  Uiso   1.00
H90    H     0.55795   0.30540   0.33422   0.00000  Uiso   1.00
H91    H     0.61434   0.11690   0.42903   0.00000  Uiso   1.00
H92    H     0.37233   0.11977   0.08753   0.00000  Uiso   1.00
H93    H     0.64322   0.24839   0.39907   0.00000  Uiso   1.00
H94    H     0.35848   0.29626   0.47352   0.00000  Uiso   1.00
H95    H     0.34894   0.10999   0.49842   0.00000  Uiso   1.00
H96    H     0.53497   0.28824   0.05849   0.00000  Uiso   1.00
H97    H     0.52518   0.14406   0.39724   0.00000  Uiso   1.00
H98    H     0.39850   0.00266   0.24942   0.00000  Uiso   1.00
N99    N     0.48029   0.15216   0.23739   0.00000  Uiso   1.00
N100   N     0.51971   0.18117   0.26260   0.00000  Uiso   1.00
N101   N     0.53127   0.24866   0.14618   0.00000  Uiso   1.00
N102   N     0.43284   0.06808   0.39398   0.00000  Uiso   1.00
O103   O     0.63052   0.24631   0.25309   0.00000  Uiso   1.00
O104   O     0.50362   0.05550   0.25281   0.00000  Uiso   1.00
O105   O     0.43454   0.06433   0.17687   0.00000  Uiso   1.00
O106   O     0.49606   0.27821   0.24836   0.00000  Uiso   1.00
O107   O     0.46126   0.24427   0.32310   0.00000  Uiso   1.00
O108   O     0.56566   0.26857   0.32358   0.00000  Uiso   1.00
O109   O     0.36948   0.08702   0.24690   0.00000  Uiso   1.00
O110   O     0.39155   0.23702   0.24501   0.00000  Uiso   1.00
O111   O     0.60845   0.09632   0.25498   0.00000  Uiso   1.00
O112   O     0.63662   0.17397   0.32247   0.00000  Uiso   1.00
O113   O     0.36338   0.15937   0.17753   0.00000  Uiso   1.00
O114   O     0.39764   0.16467   0.31439   0.00000  Uiso   1.00
O115   O     0.60236   0.16866   0.18561   0.00000  Uiso   1.00
O116   O     0.53901   0.08859   0.17775   0.00000  Uiso   1.00
S117   S     0.49218   0.08959   0.21172   0.00000  Uiso   1.00
S118   S     0.50784   0.24357   0.28890   0.00000  Uiso   1.00
Zn119  Zn    0.60366   0.17287   0.25539   0.00000  Uiso   1.00
Zn120  Zn    0.39634   0.16046   0.24460   0.00000  Uiso   1.00
C121   C     0.68133   0.26463   0.24915   0.00000  Uiso   1.00
C122   C     0.97912   0.16497   0.15867   0.00000  Uiso   1.00
C123   C     0.70173   0.18701   0.39395   0.00000  Uiso   1.00
C124   C     0.97019   0.16817   0.10486   0.00000  Uiso   1.00
C125   C     0.70885   0.26081   0.45717   0.00000  Uiso   1.00
C126   C     0.99096   0.13478   0.02205   0.00000  Uiso   1.00
C127   C     0.68018   0.23271   0.41578   0.00000  Uiso   1.00
C128   C     0.67092   0.14037   0.07291   0.00000  Uiso   1.00
C129   C     0.74934   0.16713   0.41608   0.00000  Uiso   1.00
C130   C     0.92644   0.19677   0.08514   0.00000  Uiso   1.00
C131   C     0.78395   0.19997   0.45178   0.00000  Uiso   1.00
C132   C     0.98536   0.06871   0.25098   0.00000  Uiso   1.00
C133   C     0.91310   0.19191   0.03301   0.00000  Uiso   1.00
C134   C     0.76156   0.24588   0.47425   0.00000  Uiso   1.00
C135   C     0.94344   0.15701   0.00245   0.00000  Uiso   1.00
C136   C     0.83983   0.18904   0.46602   0.00000  Uiso   1.00
C137   C     0.86586   0.21445   0.01078   0.00000  Uiso   1.00
C138   C     0.89201   0.22572   0.11903   0.00000  Uiso   1.00
C139   C     0.75888   0.11205   0.40380   0.00000  Uiso   1.00
C140   C     0.84444   0.26167   0.03047   0.00000  Uiso   1.00
C141   C     0.87212   0.15682   0.43549   0.00000  Uiso   1.00
C142   C     0.79302   0.27726   0.01225   0.00000  Uiso   1.00
C143   C     0.92422   0.14242   0.45309   0.00000  Uiso   1.00
C144   C     0.68915   0.31921   0.24960   0.00000  Uiso   1.00
C145   C     0.97755   0.01414   0.25071   0.00000  Uiso   1.00
C146   C     0.68803   0.17145   0.34129   0.00000  Uiso   1.00
H147   H     0.77760   0.31363   0.02832   0.00000  Uiso   1.00
H148   H     0.93486   0.33070   0.25091   0.00000  Uiso   1.00
H149   H     0.77559   0.02738   0.16670   0.00000  Uiso   1.00
H150   H     0.89129   0.30540   0.33422   0.00000  Uiso   1.00
H151   H     0.94767   0.11690   0.42903   0.00000  Uiso   1.00
H152   H     0.70566   0.11977   0.08753   0.00000  Uiso   1.00
H153   H     0.97655   0.24839   0.39907   0.00000  Uiso   1.00
H154   H     0.69181   0.29626   0.47352   0.00000  Uiso   1.00
H155   H     0.68228   0.10999   0.49842   0.00000  Uiso   1.00
H156   H     0.86831   0.28824   0.05849   0.00000  Uiso   1.00
H157   H     0.85851   0.14406   0.39724   0.00000  Uiso   1.00
H158   H     0.73183   0.00266   0.24942   0.00000  Uiso   1.00
N159   N     0.81362   0.15216   0.23739   0.00000  Uiso   1.00
N160   N     0.85305   0.18117   0.26260   0.00000  Uiso   1.00
N161   N     0.86461   0.24866   0.14618   0.00000  Uiso   1.00
N162   N     0.76617   0.06808   0.39398   0.00000  Uiso   1.00
O163   O     0.96386   0.24631   0.25309   0.00000  Uiso   1.00
O164   O     0.83696   0.05550   0.25281   0.00000  Uiso   1.00
O165   O     0.76788   0.06433   0.17687   0.00000  Uiso   1.00
O166   O     0.82939   0.27821   0.24836   0.00000  Uiso   1.00
O167   O     0.79459   0.24427   0.32310   0.00000  Uiso   1.00
O168   O     0.89900   0.26857   0.32358   0.00000  Uiso   1.00
O169   O     0.70281   0.08702   0.24690   0.00000  Uiso   1.00
O170   O     0.72488   0.23702   0.24501   0.00000  Uiso   1.00
O171   O     0.94178   0.09632   0.25498   0.00000  Uiso   1.00
O172   O     0.96995   0.17397   0.32247   0.00000  Uiso   1.00
O173   O     0.69672   0.15937   0.17753   0.00000  Uiso   1.00
O174   O     0.73098   0.16467   0.31439   0.00000  Uiso   1.00
O175   O     0.93569   0.16866   0.18561   0.00000  Uiso   1.00
O176   O     0.87235   0.08859   0.17775   0.00000  Uiso   1.00
S177   S     0.82551   0.08959   0.21172   0.00000  Uiso   1.00
S178   S     0.84117   0.24357   0.28890   0.00000  Uiso   1.00
Zn179  Zn    0.93700   0.17287   0.25539   0.00000  Uiso   1.00
Zn180  Zn    0.72967   0.16046   0.24460   0.00000  Uiso   1.00
C181   C     0.01466   0.59797   0.24915   0.00000  Uiso   1.00
C182   C     0.31245   0.49830   0.15867   0.00000  Uiso   1.00
C183   C     0.03506   0.52034   0.39395   0.00000  Uiso   1.00
C184   C     0.30352   0.50150   0.10486   0.00000  Uiso   1.00
C185   C     0.04218   0.59415   0.45717   0.00000  Uiso   1.00
C186   C     0.32429   0.46811   0.02205   0.00000  Uiso   1.00
C187   C     0.01352   0.56604   0.41578   0.00000  Uiso   1.00
C188   C     0.00425   0.47370   0.07291   0.00000  Uiso   1.00
C189   C     0.08268   0.50046   0.41608   0.00000  Uiso   1.00
C190   C     0.25977   0.53010   0.08514   0.00000  Uiso   1.00
C191   C     0.11729   0.53330   0.45178   0.00000  Uiso   1.00
C192   C     0.31869   0.40205   0.25098   0.00000  Uiso   1.00
C193   C     0.24643   0.52525   0.03301   0.00000  Uiso   1.00
C194   C     0.09489   0.57921   0.47425   0.00000  Uiso   1.00
C195   C     0.27677   0.49034   0.00245   0.00000  Uiso   1.00
C196   C     0.17316   0.52237   0.46602   0.00000  Uiso   1.00
C197   C     0.19919   0.54778   0.01078   0.00000  Uiso   1.00
C198   C     0.22534   0.55905   0.11903   0.00000  Uiso   1.00
C199   C     0.09221   0.44538   0.40380   0.00000  Uiso   1.00
C200   C     0.17777   0.59500   0.03047   0.00000  Uiso   1.00
C201   C     0.20546   0.49015   0.43549   0.00000  Uiso   1.00
C202   C     0.12635   0.61060   0.01225   0.00000  Uiso   1.00
C203   C     0.25755   0.47575   0.45309   0.00000  Uiso   1.00
C204   C     0.02248   0.65255   0.24960   0.00000  Uiso   1.00
C205   C     0.31088   0.34748   0.25071   0.00000  Uiso   1.00
C206   C     0.02136   0.50478   0.34129   0.00000  Uiso   1.00
H207   H     0.11093   0.64696   0.02832   0.00000  Uiso   1.00
H208   H     0.26819   0.66403   0.25091   0.00000  Uiso   1.00
H209   H     0.10893   0.36072   0.16670   0.00000  Uiso   1.00
H210   H     0.22462   0.63873   0.33422   0.00000  Uiso   1.00
H211   H     0.28100   0.45023   0.42903   0.00000  Uiso   1.00
H212   H     0.03900   0.45310   0.08753   0.00000  Uiso   1.00
H213   H     0.30989   0.58172   0.39907   0.00000  Uiso   1.00
H214   H     0.02514   0.62959   0.47352   0.00000  Uiso   1.00
H215   H     0.01561   0.44332   0.49842   0.00000  Uiso   1.00
H216   H     0.20164   0.62157   0.05849   0.00000  Uiso   1.00
H217   H     0.19185   0.47739   0.39724   0.00000  Uiso   1.00
H218   H     0.06517   0.33599   0.24942   0.00000  Uiso   1.00
N219   N     0.14695   0.48550   0.23739   0.00000  Uiso   1.00
N220   N     0.18638   0.51450   0.26260   0.00000  Uiso   1.00
N221   N     0.19794   0.58199   0.14618   0.00000  Uiso   1.00
N222   N     0.09950   0.40141   0.39398   0.00000  Uiso   1.00
O223   O     0.29719   0.57964   0.25309   0.00000  Uiso   1.00
O224   O     0.17029   0.38884   0.25281   0.00000  Uiso   1.00
O225   O     0.10121   0.39766   0.17687   0.00000  Uiso   1.00
O226   O     0.16273   0.61154   0.24836   0.00000  Uiso   1.00
O227   O     0.12792   0.57760   0.32310   0.00000  Uiso   1.00
O228   O     0.23233   0.60190   0.32358   0.00000  Uiso   1.00
O229   O     0.03614   0.42036   0.24690   0.00000  Uiso   1.00
O230   O     0.05822   0.57035   0.24501   0.00000  Uiso   1.00
O231   O     0.27512   0.42965   0.25498   0.00000  Uiso   1.00
O232   O     0.30328   0.50730   0.32247   0.00000  Uiso   1.00
O233   O     0.03005   0.49270   0.17753   0.00000  Uiso   1.00
O234   O     0.06431   0.49801   0.31439   0.00000  Uiso   1.00
O235   O     0.26902   0.50199   0.18561   0.00000  Uiso   1.00
O236   O     0.20568   0.42192   0.17775   0.00000  Uiso   1.00
S237   S     0.15884   0.42292   0.21172   0.00000  Uiso   1.00
S238   S     0.17451   0.57690   0.28890   0.00000  Uiso   1.00
Zn239  Zn    0.27033   0.50621   0.25539   0.00000  Uiso   1.00
Zn240  Zn    0.06300   0.49379   0.24460   0.00000  Uiso   1.00
C241   C     0.34800   0.59797   0.24915   0.00000  Uiso   1.00
C242   C     0.64579   0.49830   0.15867   0.00000  Uiso   1.00
C243   C     0.36839   0.52034   0.39395   0.00000  Uiso   1.00
C244   C     0.63686   0.50150   0.10486   0.00000  Uiso   1.00
C245   C     0.37551   0.59415   0.45717   0.00000  Uiso   1.00
C246   C     0.65763   0.46811   0.02205   0.00000  Uiso   1.00
C247   C     0.34685   0.56604   0.41578   0.00000  Uiso   1.00
C248   C     0.33759   0.47370   0.07291   0.00000  Uiso   1.00
C249   C     0.41601   0.50046   0.41608   0.00000  Uiso   1.00
C250   C     0.59310   0.53010   0.08514   0.00000  Uiso   1.00
C251   C     0.45062   0.53330   0.45178   0.00000  Uiso   1.00
C252   C     0.65202   0.40205   0.25098   0.00000  Uiso   1.00
C253   C     0.57976   0.52525   0.03301   0.00000  Uiso   1.00
C254   C     0.42823   0.57921   0.47425   0.00000  Uiso   1.00
C255   C     0.61011   0.49034   0.00245   0.00000  Uiso   1.00
C256   C     0.50649   0.52237   0.46602   0.00000  Uiso   1.00
C257   C     0.53252   0.54778   0.01078   0.00000  Uiso   1.00
C258   C     0.55867   0.55905   0.11903   0.00000  Uiso   1.00
C259   C     0.42555   0.44538   0.40380   0.00000  Uiso   1.00
C260   C     0.51110   0.59500   0.03047   0.00000  Uiso   1.00
C261   C     0.53879   0.49015   0.43549   0.00000  Uiso   1.00
C262   C     0.45968   0.61060   0.01225   0.00000  Uiso   1.00
C263   C     0.59088   0.47575   0.45309   0.00000  Uiso   1.00
C264   C     0.35581   0.65255   0.24960   0.00000  Uiso   1.00
C265   C     0.64422   0.34748   0.25071   0.00000  Uiso   1.00
C266   C     0.35470   0.50478   0.34129   0.00000  Uiso   1.00
H267   H     0.44426   0.64696   0.02832   0.00000  Uiso   1.00
H268   H     0.60152   0.66403   0.25091   0.00000  Uiso   1.00
H269   H     0.44226   0.36072   0.16670   0.00000  Uiso   1.00
H270   H     0.55795   0.63873   0.33422   0.00000  Uiso   1.00
H271   H     0.61434   0.45023   0.42903   0.00000  Uiso   1.00
H272   H     0.37233   0.45310   0.08753   0.00000  Uiso   1.00
H273   H     0.64322   0.58172   0.39907   0.00000  Uiso   1.00
H274   H     0.35848   0.62959   0.47352   0.00000  Uiso   1.00
H275   H     0.34894   0.44332   0.49842   0.00000  Uiso   1.00
H276   H     0.53497   0.62157   0.05849   0.00000  Uiso   1.00
H277   H     0.52518   0.47739   0.39724   0.00000  Uiso   1.00
H278   H     0.39850   0.33599   0.24942   0.00000  Uiso   1.00
N279   N     0.48029   0.48550   0.23739   0.00000  Uiso   1.00
N280   N     0.51971   0.51450   0.26260   0.00000  Uiso   1.00
N281   N     0.53127   0.58199   0.14618   0.00000  Uiso   1.00
N282   N     0.43284   0.40141   0.39398   0.00000  Uiso   1.00
O283   O     0.63052   0.57964   0.25309   0.00000  Uiso   1.00
O284   O     0.50362   0.38884   0.25281   0.00000  Uiso   1.00
O285   O     0.43454   0.39766   0.17687   0.00000  Uiso   1.00
O286   O     0.49606   0.61154   0.24836   0.00000  Uiso   1.00
O287   O     0.46126   0.57760   0.32310   0.00000  Uiso   1.00
O288   O     0.56566   0.60190   0.32358   0.00000  Uiso   1.00
O289   O     0.36948   0.42036   0.24690   0.00000  Uiso   1.00
O290   O     0.39155   0.57035   0.24501   0.00000  Uiso   1.00
O291   O     0.60845   0.42965   0.25498   0.00000  Uiso   1.00
O292   O     0.63662   0.50730   0.32247   0.00000  Uiso   1.00
O293   O     0.36338   0.49270   0.17753   0.00000  Uiso   1.00
O294   O     0.39764   0.49801   0.31439   0.00000  Uiso   1.00
O295   O     0.60236   0.50199   0.18561   0.00000  Uiso   1.00
O296   O     0.53901   0.42192   0.17775   0.00000  Uiso   1.00
S297   S     0.49218   0.42292   0.21172   0.00000  Uiso   1.00
S298   S     0.50784   0.57690   0.28890   0.00000  Uiso   1.00
Zn299  Zn    0.60366   0.50621   0.25539   0.00000  Uiso   1.00
Zn300  Zn    0.39634   0.49379   0.24460   0.00000  Uiso   1.00
C301   C     0.68133   0.59797   0.24915   0.00000  Uiso   1.00
C302   C     0.97912   0.49830   0.15867   0.00000  Uiso   1.00
C303   C     0.70173   0.52034   0.39395   0.00000  Uiso   1.00
C304   C     0.97019   0.50150   0.10486   0.00000  Uiso   1.00
C305   C     0.70885   0.59415   0.45717   0.00000  Uiso   1.00
C306   C     0.99096   0.46811   0.02205   0.00000  Uiso   1.00
C307   C     0.68018   0.56604   0.41578   0.00000  Uiso   1.00
C308   C     0.67092   0.47370   0.07291   0.00000  Uiso   1.00
C309   C     0.74934   0.50046   0.41608   0.00000  Uiso   1.00
C310   C     0.92644   0.53010   0.08514   0.00000  Uiso   1.00
C311   C     0.78395   0.53330   0.45178   0.00000  Uiso   1.00
C312   C     0.98536   0.40205   0.25098   0.00000  Uiso   1.00
C313   C     0.91310   0.52525   0.03301   0.00000  Uiso   1.00
C314   C     0.76156   0.57921   0.47425   0.00000  Uiso   1.00
C315   C     0.94344   0.49034   0.00245   0.00000  Uiso   1.00
C316   C     0.83983   0.52237   0.46602   0.00000  Uiso   1.00
C317   C     0.86586   0.54778   0.01078   0.00000  Uiso   1.00
C318   C     0.89201   0.55905   0.11903   0.00000  Uiso   1.00
C319   C     0.75888   0.44538   0.40380   0.00000  Uiso   1.00
C320   C     0.84444   0.59500   0.03047   0.00000  Uiso   1.00
C321   C     0.87212   0.49015   0.43549   0.00000  Uiso   1.00
C322   C     0.79302   0.61060   0.01225   0.00000  Uiso   1.00
C323   C     0.92422   0.47575   0.45309   0.00000  Uiso   1.00
C324   C     0.68915   0.65255   0.24960   0.00000  Uiso   1.00
C325   C     0.97755   0.34748   0.25071   0.00000  Uiso   1.00
C326   C     0.68803   0.50478   0.34129   0.00000  Uiso   1.00
H327   H     0.77760   0.64696   0.02832   0.00000  Uiso   1.00
H328   H     0.93486   0.66403   0.25091   0.00000  Uiso   1.00
H329   H     0.77559   0.36072   0.16670   0.00000  Uiso   1.00
H330   H     0.89129   0.63873   0.33422   0.00000  Uiso   1.00
H331   H     0.94767   0.45023   0.42903   0.00000  Uiso   1.00
H332   H     0.70566   0.45310   0.08753   0.00000  Uiso   1.00
H333   H     0.97655   0.58172   0.39907   0.00000  Uiso   1.00
H334   H     0.69181   0.62959   0.47352   0.00000  Uiso   1.00
H335   H     0.68228   0.44332   0.49842   0.00000  Uiso   1.00
H336   H     0.86831   0.62157   0.05849   0.00000  Uiso   1.00
H337   H     0.85851   0.47739   0.39724   0.00000  Uiso   1.00
H338   H     0.73183   0.33599   0.24942   0.00000  Uiso   1.00
N339   N     0.81362   0.48550   0.23739   0.00000  Uiso   1.00
N340   N     0.85305   0.51450   0.26260   0.00000  Uiso   1.00
N341   N     0.86461   0.58199   0.14618   0.00000  Uiso   1.00
N342   N     0.76617   0.40141   0.39398   0.00000  Uiso   1.00
O343   O     0.96386   0.57964   0.25309   0.00000  Uiso   1.00
O344   O     0.83696   0.38884   0.25281   0.00000  Uiso   1.00
O345   O     0.76788   0.39766   0.17687   0.00000  Uiso   1.00
O346   O     0.82939   0.61154   0.24836   0.00000  Uiso   1.00
O347   O     0.79459   0.57760   0.32310   0.00000  Uiso   1.00
O348   O     0.89900   0.60190   0.32358   0.00000  Uiso   1.00
O349   O     0.70281   0.42036   0.24690   0.00000  Uiso   1.00
O350   O     0.72488   0.57035   0.24501   0.00000  Uiso   1.00
O351   O     0.94178   0.42965   0.25498   0.00000  Uiso   1.00
O352   O     0.96995   0.50730   0.32247   0.00000  Uiso   1.00
O353   O     0.69672   0.49270   0.17753   0.00000  Uiso   1.00
O354   O     0.73098   0.49801   0.31439   0.00000  Uiso   1.00
O355   O     0.93569   0.50199   0.18561   0.00000  Uiso   1.00
O356   O     0.87235   0.42192   0.17775   0.00000  Uiso   1.00
S357   S     0.82551   0.42292   0.21172   0.00000  Uiso   1.00
S358   S     0.84117   0.57690   0.28890   0.00000  Uiso   1.00
Zn359  Zn    0.93700   0.50621   0.25539   0.00000  Uiso   1.00
Zn360  Zn    0.72967   0.49379   0.24460   0.00000  Uiso   1.00
C361   C     0.01466   0.93130   0.24915   0.00000  Uiso   1.00
C362   C     0.31245   0.83163   0.15867   0.00000  Uiso   1.00
C363   C     0.03506   0.85367   0.39395   0.00000  Uiso   1.00
C364   C     0.30352   0.83483   0.10486   0.00000  Uiso   1.00
C365   C     0.04218   0.92748   0.45717   0.00000  Uiso   1.00
C366   C     0.32429   0.80144   0.02205   0.00000  Uiso   1.00
C367   C     0.01352   0.89937   0.41578   0.00000  Uiso   1.00
C368   C     0.00425   0.80703   0.07291   0.00000  Uiso   1.00
C369   C     0.08268   0.83380   0.41608   0.00000  Uiso   1.00
C370   C     0.25977   0.86343   0.08514   0.00000  Uiso   1.00
C371   C     0.11729   0.86663   0.45178   0.00000  Uiso   1.00
C372   C     0.31869   0.73538   0.25098   0.00000  Uiso   1.00
C373   C     0.24643   0.85858   0.03301   0.00000  Uiso   1.00
C374   C     0.09489   0.91255   0.47425   0.00000  Uiso   1.00
C375   C     0.27677   0.82368   0.00245   0.00000  Uiso   1.00
C376   C     0.17316   0.85571   0.46602   0.00000  Uiso   1.00
C377   C     0.19919   0.88112   0.01078   0.00000  Uiso   1.00
C378   C     0.22534   0.89239   0.11903   0.00000  Uiso   1.00
C379   C     0.09221   0.77871   0.40380   0.00000  Uiso   1.00
C380   C     0.17777   0.92833   0.03047   0.00000  Uiso   1.00
C381   C     0.20546   0.82348   0.43549   0.00000  Uiso   1.00
C382   C     0.12635   0.94393   0.01225   0.00000  Uiso   1.00
C383   C     0.25755   0.80908   0.45309   0.00000  Uiso   1.00
C384   C     0.02248   0.98588   0.24960   0.00000  Uiso   1.00
C385   C     0.31088   0.68081   0.25071   0.00000  Uiso   1.00
C386   C     0.02136   0.83811   0.34129   0.00000  Uiso   1.00
H387   H     0.11093   0.98030   0.02832   0.00000  Uiso   1.00
H388   H     0.26819   0.99737   0.25091   0.00000  Uiso   1.00
H389   H     0.10893   0.69405   0.16670   0.00000  Uiso   1.00
H390   H     0.22462   0.97207   0.33422   0.00000  Uiso   1.00
H391   H     0.28100   0.78356   0.42903   0.00000  Uiso   1.00
H392   H     0.03900   0.78644   0.08753   0.00000  Uiso   1.00
H393   H     0.30989   0.91505   0.39907   0.00000  Uiso   1.00
H394   H     0.02514   0.96292   0.47352   0.00000  Uiso   1.00
H395   H     0.01561   0.77665   0.49842   0.00000  Uiso   1.00
H396   H     0.20164   0.95490   0.05849   0.00000  Uiso   1.00
H397   H     0.19185   0.81072   0.39724   0.00000  Uiso   1.00
H398   H     0.06517   0.66933   0.24942   0.00000  Uiso   1.00
N399   N     0.14695   0.81883   0.23739   0.00000  Uiso   1.00
N400   N     0.18638   0.84784   0.26260   0.00000  Uiso   1.00
N401   N     0.19794   0.91532   0.14618   0.00000  Uiso   1.00
N402   N     0.09950   0.73474   0.39398   0.00000  Uiso   1.00
O403   O     0.29719   0.91298   0.25309   0.00000  Uiso   1.00
O404   O     0.17029   0.72217   0.25281   0.00000  Uiso   1.00
O405   O     0.10121   0.73100   0.17687   0.00000  Uiso   1.00
O406   O     0.16273   0.94488   0.24836   0.00000  Uiso   1.00
O407   O     0.12792   0.91094   0.32310   0.00000  Uiso   1.00
O408   O     0.23233   0.93523   0.32358   0.00000  Uiso   1.00
O409   O     0.03614   0.75369   0.24690   0.00000  Uiso   1.00
O410   O     0.05822   0.90368   0.24501   0.00000  Uiso   1.00
O411   O     0.27512   0.76298   0.25498   0.00000  Uiso   1.00
O412   O     0.30328   0.84063   0.32247   0.00000  Uiso   1.00
O413   O     0.03005   0.82603   0.17753   0.00000  Uiso   1.00
O414   O     0.06431   0.83134   0.31439   0.00000  Uiso   1.00
O415   O     0.26902   0.83533   0.18561   0.00000  Uiso   1.00
O416   O     0.20568   0.75525   0.17775   0.00000  Uiso   1.00
S417   S     0.15884   0.75625   0.21172   0.00000  Uiso   1.00
S418   S     0.17451   0.91024   0.28890   0.00000  Uiso   1.00
Zn419  Zn    0.27033   0.83954   0.25539   0.00000  Uiso   1.00
Zn420  Zn    0.06300   0.82713   0.24460   0.00000  Uiso   1.00
C421   C     0.34800   0.93130   0.24915   0.00000  Uiso   1.00
C422   C     0.64579   0.83163   0.15867   0.00000  Uiso   1.00
C423   C     0.36839   0.85367   0.39395   0.00000  Uiso   1.00
C424   C     0.63686   0.83483   0.10486   0.00000  Uiso   1.00
C425   C     0.37551   0.92748   0.45717   0.00000  Uiso   1.00
C426   C     0.65763   0.80144   0.02205   0.00000  Uiso   1.00
C427   C     0.34685   0.89937   0.41578   0.00000  Uiso   1.00
C428   C     0.33759   0.80703   0.07291   0.00000  Uiso   1.00
C429   C     0.41601   0.83380   0.41608   0.00000  Uiso   1.00
C430   C     0.59310   0.86343   0.08514   0.00000  Uiso   1.00
C431   C     0.45062   0.86663   0.45178   0.00000  Uiso   1.00
C432   C     0.65202   0.73538   0.25098   0.00000  Uiso   1.00
C433   C     0.57976   0.85858   0.03301   0.00000  Uiso   1.00
C434   C     0.42823   0.91255   0.47425   0.00000  Uiso   1.00
C435   C     0.61011   0.82368   0.00245   0.00000  Uiso   1.00
C436   C     0.50649   0.85571   0.46602   0.00000  Uiso   1.00
C437   C     0.53252   0.88112   0.01078   0.00000  Uiso   1.00
C438   C     0.55867   0.89239   0.11903   0.00000  Uiso   1.00
C439   C     0.42555   0.77871   0.40380   0.00000  Uiso   1.00
C440   C     0.51110   0.92833   0.03047   0.00000  Uiso   1.00
C441   C     0.53879   0.82348   0.43549   0.00000  Uiso   1.00
C442   C     0.45968   0.94393   0.01225   0.00000  Uiso   1.00
C443   C     0.59088   0.80908   0.45309   0.00000  Uiso   1.00
C444   C     0.35581   0.98588   0.24960   0.00000  Uiso   1.00
C445   C     0.64422   0.68081   0.25071   0.00000  Uiso   1.00
C446   C     0.35470   0.83811   0.34129   0.00000  Uiso   1.00
H447   H     0.44426   0.98030   0.02832   0.00000  Uiso   1.00
H448   H     0.60152   0.99737   0.25091   0.00000  Uiso   1.00
H449   H     0.44226   0.69405   0.16670   0.00000  Uiso   1.00
H450   H     0.55795   0.97207   0.33422   0.00000  Uiso   1.00
H451   H     0.61434   0.78356   0.42903   0.00000  Uiso   1.00
H452   H     0.37233   0.78644   0.08753   0.00000  Uiso   1.00
H453   H     0.64322   0.91505   0.39907   0.00000  Uiso   1.00
H454   H     0.35848   0.96292   0.47352   0.00000  Uiso   1.00
H455   H     0.34894   0.77665   0.49842   0.00000  Uiso   1.00
H456   H     0.53497   0.95490   0.05849   0.00000  Uiso   1.00
H457   H     0.52518   0.81072   0.39724   0.00000  Uiso   1.00
H458   H     0.39850   0.66933   0.24942   0.00000  Uiso   1.00
N459   N     0.48029   0.81883   0.23739   0.00000  Uiso   1.00
N460   N     0.51971   0.84784   0.26260   0.00000  Uiso   1.00
N461   N     0.53127   0.91532   0.14618   0.00000  Uiso   1.00
N462   N     0.43284   0.73474   0.39398   0.00000  Uiso   1.00
O463   O     0.63052   0.91298   0.25309   0.00000  Uiso   1.00
O464   O     0.50362   0.72217   0.25281   0.00000  Uiso   1.00
O465   O     0.43454   0.73100   0.17687   0.00000  Uiso   1.00
O466   O     0.49606   0.94488   0.24836   0.00000  Uiso   1.00
O467   O     0.46126   0.91094   0.32310   0.00000  Uiso   1.00
O468   O     0.56566   0.93523   0.32358   0.00000  Uiso   1.00
O469   O     0.36948   0.75369   0.24690   0.00000  Uiso   1.00
O470   O     0.39155   0.90368   0.24501   0.00000  Uiso   1.00
O471   O     0.60845   0.76298   0.25498   0.00000  Uiso   1.00
O472   O     0.63662   0.84063   0.32247   0.00000  Uiso   1.00
O473   O     0.36338   0.82603   0.17753   0.00000  Uiso   1.00
O474   O     0.39764   0.83134   0.31439   0.00000  Uiso   1.00
O475   O     0.60236   0.83533   0.18561   0.00000  Uiso   1.00
O476   O     0.53901   0.75525   0.17775   0.00000  Uiso   1.00
S477   S     0.49218   0.75625   0.21172   0.00000  Uiso   1.00
S478   S     0.50784   0.91024   0.28890   0.00000  Uiso   1.00
Zn479  Zn    0.60366   0.83954   0.25539   0.00000  Uiso   1.00
Zn480  Zn    0.39634   0.82713   0.24460   0.00000  Uiso   1.00
C481   C     0.68133   0.93130   0.24915   0.00000  Uiso   1.00
C482   C     0.97912   0.83163   0.15867   0.00000  Uiso   1.00
C483   C     0.70173   0.85367   0.39395   0.00000  Uiso   1.00
C484   C     0.97019   0.83483   0.10486   0.00000  Uiso   1.00
C485   C     0.70885   0.92748   0.45717   0.00000  Uiso   1.00
C486   C     0.99096   0.80144   0.02205   0.00000  Uiso   1.00
C487   C     0.68018   0.89937   0.41578   0.00000  Uiso   1.00
C488   C     0.67092   0.80703   0.07291   0.00000  Uiso   1.00
C489   C     0.74934   0.83380   0.41608   0.00000  Uiso   1.00
C490   C     0.92644   0.86343   0.08514   0.00000  Uiso   1.00
C491   C     0.78395   0.86663   0.45178   0.00000  Uiso   1.00
C492   C     0.98536   0.73538   0.25098   0.00000  Uiso   1.00
C493   C     0.91310   0.85858   0.03301   0.00000  Uiso   1.00
C494   C     0.76156   0.91255   0.47425   0.00000  Uiso   1.00
C495   C     0.94344   0.82368   0.00245   0.00000  Uiso   1.00
C496   C     0.83983   0.85571   0.46602   0.00000  Uiso   1.00
C497   C     0.86586   0.88112   0.01078   0.00000  Uiso   1.00
C498   C     0.89201   0.89239   0.11903   0.00000  Uiso   1.00
C499   C     0.75888   0.77871   0.40380   0.00000  Uiso   1.00
C500   C     0.84444   0.92833   0.03047   0.00000  Uiso   1.00
C501   C     0.87212   0.82348   0.43549   0.00000  Uiso   1.00
C502   C     0.79302   0.94393   0.01225   0.00000  Uiso   1.00
C503   C     0.92422   0.80908   0.45309   0.00000  Uiso   1.00
C504   C     0.68915   0.98588   0.24960   0.00000  Uiso   1.00
C505   C     0.97755   0.68081   0.25071   0.00000  Uiso   1.00
C506   C     0.68803   0.83811   0.34129   0.00000  Uiso   1.00
H507   H     0.77760   0.98030   0.02832   0.00000  Uiso   1.00
H508   H     0.93486   0.99737   0.25091   0.00000  Uiso   1.00
H509   H     0.77559   0.69405   0.16670   0.00000  Uiso   1.00
H510   H     0.89129   0.97207   0.33422   0.00000  Uiso   1.00
H511   H     0.94767   0.78356   0.42903   0.00000  Uiso   1.00
H512   H     0.70566   0.78644   0.08753   0.00000  Uiso   1.00
H513   H     0.97655   0.91505   0.39907   0.00000  Uiso   1.00
H514   H     0.69181   0.96292   0.47352   0.00000  Uiso   1.00
H515   H     0.68228   0.77665   0.49842   0.00000  Uiso   1.00
H516   H     0.86831   0.95490   0.05849   0.00000  Uiso   1.00
H517   H     0.85851   0.81072   0.39724   0.00000  Uiso   1.00
H518   H     0.73183   0.66933   0.24942   0.00000  Uiso   1.00
N519   N     0.81362   0.81883   0.23739   0.00000  Uiso   1.00
N520   N     0.85305   0.84784   0.26260   0.00000  Uiso   1.00
N521   N     0.86461   0.91532   0.14618   0.00000  Uiso   1.00
N522   N     0.76617   0.73474   0.39398   0.00000  Uiso   1.00
O523   O     0.96386   0.91298   0.25309   0.00000  Uiso   1.00
O524   O     0.83696   0.72217   0.25281   0.00000  Uiso   1.00
O525   O     0.76788   0.73100   0.17687   0.00000  Uiso   1.00
O526   O     0.82939   0.94488   0.24836   0.00000  Uiso   1.00
O527   O     0.79459   0.91094   0.32310   0.00000  Uiso   1.00
O528   O     0.89900   0.93523   0.32358   0.00000  Uiso   1.00
O529   O     0.70281   0.75369   0.24690   0.00000  Uiso   1.00
O530   O     0.72488   0.90368   0.24501   0.00000  Uiso   1.00
O531   O     0.94178   0.76298   0.25498   0.00000  Uiso   1.00
O532   O     0.96995   0.84063   0.32247   0.00000  Uiso   1.00
O533   O     0.69672   0.82603   0.17753   0.00000  Uiso   1.00
O534   O     0.73098   0.83134   0.31439   0.00000  Uiso   1.00
O535   O     0.93569   0.83533   0.18561   0.00000  Uiso   1.00
O536   O     0.87235   0.75525   0.17775   0.00000  Uiso   1.00
S537   S     0.82551   0.75625   0.21172   0.00000  Uiso   1.00
S538   S     0.84117   0.91024   0.28890   0.00000  Uiso   1.00
Zn539  Zn    0.93700   0.83954   0.25539   0.00000  Uiso   1.00
Zn540  Zn    0.72967   0.82713   0.24460   0.00000  Uiso   1.00
C541   C     0.01466   0.26463   0.74915   0.00000  Uiso   1.00
C542   C     0.31245   0.16497   0.65867   0.00000  Uiso   1.00
C543   C     0.03506   0.18701   0.89395   0.00000  Uiso   1.00
C544   C     0.30352   0.16817   0.60486   0.00000  Uiso   1.00
C545   C     0.04218   0.26081   0.95717   0.00000  Uiso   1.00
C546   C     0.32429   0.13478   0.52205   0.00000  Uiso   1.00
C547   C     0.01352   0.23271   0.91578   0.00000  Uiso   1.00
C548   C     0.00425   0.14037   0.57291   0.00000  Uiso   1.00
C549   C     0.08268   0.16713   0.91608   0.00000  Uiso   1.00
C550   C     0.25977   0.19677   0.58514   0.00000  Uiso   1.00
C551   C     0.11729   0.19997   0.95178   0.00000  Uiso   1.00
C552   C     0.31869   0.06871   0.75098   0.00000  Uiso   1.00
C553   C     0.24643   0.19191   0.53301   0.00000  Uiso   1.00
C554   C     0.09489   0.24588   0.97425   0.00000  Uiso   1.00
C555   C     0.27677   0.15701   0.50245   0.00000  Uiso   1.00
C556   C     0.17316   0.18904   0.96602   0.00000  Uiso   1.00
C557   C     0.19919   0.21445   0.51078   0.00000  Uiso   1.00
C558   C     0.22534   0.22572   0.61903   0.00000  Uiso   1.00
C559   C     0.09221   0.11205   0.90380   0.00000  Uiso   1.00
C560   C     0.17777   0.26167   0.53047   0.00000  Uiso   1.00
C561   C     0.20546   0.15682   0.93549   0.00000  Uiso   1.00
C562   C     0.12635   0.27726   0.51225   0.00000  Uiso   1.00
C563   C     0.25755   0.14242   0.95309   0.00000  Uiso   1.00
C564   C     0.02248   0.31921   0.74960   0.00000  Uiso   1.00
C565   C     0.31088   0.01414   0.75071   0.00000  Uiso   1.00
C566   C     0.02136   0.17145   0.84129   0.00000  Uiso   1.00
H567   H     0.11093   0.31363   0.52832   0.00000  Uiso   1.00
H568   H     0.26819   0.33070   0.75091   0.00000  Uiso   1.00
H569   H     0.10893   0.02738   0.66670   0.00000  Uiso   1.00
H570   H     0.22462   0.30540   0.83422   0.00000  Uiso   1.00
H571   H     0.28100   0.11690   0.92903   0.00000  Uiso   1.00
H572   H     0.03900   0.11977   0.58753   0.00000  Uiso   1.00
H573   H     0.30989   0.24839   0.89907   0.00000  Uiso   1.00
H574   H     0.02514   0.29626   0.97352   0.00000  Uiso   1.00
H575   H     0.01561   0.10999   0.99842   0.00000  Uiso   1.00
H576   H     0.20164   0.28824   0.55849   0.00000  Uiso   1.00
H577   H     0.19185   0.14406   0.89724   0.00000  Uiso   1.00
H578   H     0.06517   0.00266   0.74942   0.00000  Uiso   1.00
N579   N     0.14695   0.15216   0.73739   0.00000  Uiso   1.00
N580   N     0.18638   0.18117   0.76260   0.00000  Uiso   1.00
N581   N     0.19794   0.24866   0.64618   0.00000  Uiso   1.00
N582   N     0.09950   0.06808   0.89398   0.00000  Uiso   1.00
O583   O     0.29719   0.24631   0.75309   0.00000  Uiso   1.00
O584   O     0.17029   0.05550   0.75281   0.00000  Uiso   1.00
O585   O     0.10121   0.06433   0.67687   0.00000  Uiso   1.00
O586   O     0.16273   0.27821   0.74836   0.00000  Uiso   1.00
O587   O     0.12792   0.24427   0.82310   0.00000  Uiso   1.00
O588   O     0.23233   0.26857   0.82358   0.00000  Uiso   1.00
O589   O     0.03614   0.08702   0.74690   0.00000  Uiso   1.00
O590   O     0.05822   0.23702   0.74501   0.00000  Uiso   1.00
O591   O     0.27512   0.09632   0.75498   0.00000  Uiso   1.00
O592   O     0.30328   0.17397   0.82247   0.00000  Uiso   1.00
O593   O     0.03005   0.15937   0.67753   0.00000  Uiso   1.00
O594   O     0.06431   0.16467   0.81439   0.00000  Uiso   1.00
O595   O     0.26902   0.16866   0.68561   0.00000  Uiso   1.00
O596   O     0.20568   0.08859   0.67775   0.00000  Uiso   1.00
S597   S     0.15884   0.08959   0.71172   0.00000  Uiso   1.00
S598   S     0.17451   0.24357   0.78890   0.00000  Uiso   1.00
Zn599  Zn    0.27033   0.17287   0.75539   0.00000  Uiso   1.00
Zn600  Zn    0.06300   0.16046   0.74460   0.00000  Uiso   1.00
C601   C     0.34800   0.26463   0.74915   0.00000  Uiso   1.00
C602   C     0.64579   0.16497   0.65867   0.00000  Uiso   1.00
C603   C     0.36839   0.18701   0.89395   0.00000  Uiso   1.00
C604   C     0.63686   0.16817   0.60486   0.00000  Uiso   1.00
C605   C     0.37551   0.26081   0.95717   0.00000  Uiso   1.00
C606   C     0.65763   0.13478   0.52205   0.00000  Uiso   1.00
C607   C     0.34685   0.23271   0.91578   0.00000  Uiso   1.00
C608   C     0.33759   0.14037   0.57291   0.00000  Uiso   1.00
C609   C     0.41601   0.16713   0.91608   0.00000  Uiso   1.00
C610   C     0.59310   0.19677   0.58514   0.00000  Uiso   1.00
C611   C     0.45062   0.19997   0.95178   0.00000  Uiso   1.00
C612   C     0.65202   0.06871   0.75098   0.00000  Uiso   1.00
C613   C     0.57976   0.19191   0.53301   0.00000  Uiso   1.00
C614   C     0.42823   0.24588   0.97425   0.00000  Uiso   1.00
C615   C     0.61011   0.15701   0.50245   0.00000  Uiso   1.00
C616   C     0.50649   0.18904   0.96602   0.00000  Uiso   1.00
C617   C     0.53252   0.21445   0.51078   0.00000  Uiso   1.00
C618   C     0.55867   0.22572   0.61903   0.00000  Uiso   1.00
C619   C     0.42555   0.11205   0.90380   0.00000  Uiso   1.00
C620   C     0.51110   0.26167   0.53047   0.00000  Uiso   1.00
C621   C     0.53879   0.15682   0.93549   0.00000  Uiso   1.00
C622   C     0.45968   0.27726   0.51225   0.00000  Uiso   1.00
C623   C     0.59088   0.14242   0.95309   0.00000  Uiso   1.00
C624   C     0.35581   0.31921   0.74960   0.00000  Uiso   1.00
C625   C     0.64422   0.01414   0.75071   0.00000  Uiso   1.00
C626   C     0.35470   0.17145   0.84129   0.00000  Uiso   1.00
H627   H     0.44426   0.31363   0.52832   0.00000  Uiso   1.00
H628   H     0.60152   0.33070   0.75091   0.00000  Uiso   1.00
H629   H     0.44226   0.02738   0.66670   0.00000  Uiso   1.00
H630   H     0.55795   0.30540   0.83422   0.00000  Uiso   1.00
H631   H     0.61434   0.11690   0.92903   0.00000  Uiso   1.00
H632   H     0.37233   0.11977   0.58753   0.00000  Uiso   1.00
H633   H     0.64322   0.24839   0.89907   0.00000  Uiso   1.00
H634   H     0.35848   0.29626   0.97352   0.00000  Uiso   1.00
H635   H     0.34894   0.10999   0.99842   0.00000  Uiso   1.00
H636   H     0.53497   0.28824   0.55849   0.00000  Uiso   1.00
H637   H     0.52518   0.14406   0.89724   0.00000  Uiso   1.00
H638   H     0.39850   0.00266   0.74942   0.00000  Uiso   1.00
N639   N     0.48029   0.15216   0.73739   0.00000  Uiso   1.00
N640   N     0.51971   0.18117   0.76260   0.00000  Uiso   1.00
N641   N     0.53127   0.24866   0.64618   0.00000  Uiso   1.00
N642   N     0.43284   0.06808   0.89398   0.00000  Uiso   1.00
O643   O     0.63052   0.24631   0.75309   0.00000  Uiso   1.00
O644   O     0.50362   0.05550   0.75281   0.00000  Uiso   1.00
O645   O     0.43454   0.06433   0.67687   0.00000  Uiso   1.00
O646   O     0.49606   0.27821   0.74836   0.00000  Uiso   1.00
O647   O     0.46126   0.24427   0.82310   0.00000  Uiso   1.00
O648   O     0.56566   0.26857   0.82358   0.00000  Uiso   1.00
O649   O     0.36948   0.08702   0.74690   0.00000  Uiso   1.00
O650   O     0.39155   0.23702   0.74501   0.00000  Uiso   1.00
O651   O     0.60845   0.09632   0.75498   0.00000  Uiso   1.00
O652   O     0.63662   0.17397   0.82247   0.00000  Uiso   1.00
O653   O     0.36338   0.15937   0.67753   0.00000  Uiso   1.00
O654   O     0.39764   0.16467   0.81439   0.00000  Uiso   1.00
O655   O     0.60236   0.16866   0.68561   0.00000  Uiso   1.00
O656   O     0.53901   0.08859   0.67775   0.00000  Uiso   1.00
S657   S     0.49218   0.08959   0.71172   0.00000  Uiso   1.00
S658   S     0.50784   0.24357   0.78890   0.00000  Uiso   1.00
Zn659  Zn    0.60366   0.17287   0.75539   0.00000  Uiso   1.00
Zn660  Zn    0.39634   0.16046   0.74460   0.00000  Uiso   1.00
C661   C     0.68133   0.26463   0.74915   0.00000  Uiso   1.00
C662   C     0.97912   0.16497   0.65867   0.00000  Uiso   1.00
C663   C     0.70173   0.18701   0.89395   0.00000  Uiso   1.00
C664   C     0.97019   0.16817   0.60486   0.00000  Uiso   1.00
C665   C     0.70885   0.26081   0.95717   0.00000  Uiso   1.00
C666   C     0.99096   0.13478   0.52205   0.00000  Uiso   1.00
C667   C     0.68018   0.23271   0.91578   0.00000  Uiso   1.00
C668   C     0.67092   0.14037   0.57291   0.00000  Uiso   1.00
C669   C     0.74934   0.16713   0.91608   0.00000  Uiso   1.00
C670   C     0.92644   0.19677   0.58514   0.00000  Uiso   1.00
C671   C     0.78395   0.19997   0.95178   0.00000  Uiso   1.00
C672   C     0.98536   0.06871   0.75098   0.00000  Uiso   1.00
C673   C     0.91310   0.19191   0.53301   0.00000  Uiso   1.00
C674   C     0.76156   0.24588   0.97425   0.00000  Uiso   1.00
C675   C     0.94344   0.15701   0.50245   0.00000  Uiso   1.00
C676   C     0.83983   0.18904   0.96602   0.00000  Uiso   1.00
C677   C     0.86586   0.21445   0.51078   0.00000  Uiso   1.00
C678   C     0.89201   0.22572   0.61903   0.00000  Uiso   1.00
C679   C     0.75888   0.11205   0.90380   0.00000  Uiso   1.00
C680   C     0.84444   0.26167   0.53047   0.00000  Uiso   1.00
C681   C     0.87212   0.15682   0.93549   0.00000  Uiso   1.00
C682   C     0.79302   0.27726   0.51225   0.00000  Uiso   1.00
C683   C     0.92422   0.14242   0.95309   0.00000  Uiso   1.00
C684   C     0.68915   0.31921   0.74960   0.00000  Uiso   1.00
C685   C     0.97755   0.01414   0.75071   0.00000  Uiso   1.00
C686   C     0.68803   0.17145   0.84129   0.00000  Uiso   1.00
H687   H     0.77760   0.31363   0.52832   0.00000  Uiso   1.00
H688   H     0.93486   0.33070   0.75091   0.00000  Uiso   1.00
H689   H     0.77559   0.02738   0.66670   0.00000  Uiso   1.00
H690   H     0.89129   0.30540   0.83422   0.00000  Uiso   1.00
H691   H     0.94767   0.11690   0.92903   0.00000  Uiso   1.00
H692   H     0.70566   0.11977   0.58753   0.00000  Uiso   1.00
H693   H     0.97655   0.24839   0.89907   0.00000  Uiso   1.00
H694   H     0.69181   0.29626   0.97352   0.00000  Uiso   1.00
H695   H     0.68228   0.10999   0.99842   0.00000  Uiso   1.00
H696   H     0.86831   0.28824   0.55849   0.00000  Uiso   1.00
H697   H     0.85851   0.14406   0.89724   0.00000  Uiso   1.00
H698   H     0.73183   0.00266   0.74942   0.00000  Uiso   1.00
N699   N     0.81362   0.15216   0.73739   0.00000  Uiso   1.00
N700   N     0.85305   0.18117   0.76260   0.00000  Uiso   1.00
N701   N     0.86461   0.24866   0.64618   0.00000  Uiso   1.00
N702   N     0.76617   0.06808   0.89398   0.00000  Uiso   1.00
O703   O     0.96386   0.24631   0.75309   0.00000  Uiso   1.00
O704   O     0.83696   0.05550   0.75281   0.00000  Uiso   1.00
O705   O     0.76788   0.06433   0.67687   0.00000  Uiso   1.00
O706   O     0.82939   0.27821   0.74836   0.00000  Uiso   1.00
O707   O     0.79459   0.24427   0.82310   0.00000  Uiso   1.00
O708   O     0.89900   0.26857   0.82358   0.00000  Uiso   1.00
O709   O     0.70281   0.08702   0.74690   0.00000  Uiso   1.00
O710   O     0.72488   0.23702   0.74501   0.00000  Uiso   1.00
O711   O     0.94178   0.09632   0.75498   0.00000  Uiso   1.00
O712   O     0.96995   0.17397   0.82247   0.00000  Uiso   1.00
O713   O     0.69672   0.15937   0.67753   0.00000  Uiso   1.00
O714   O     0.73098   0.16467   0.81439   0.00000  Uiso   1.00
O715   O     0.93569   0.16866   0.68561   0.00000  Uiso   1.00
O716   O     0.87235   0.08859   0.67775   0.00000  Uiso   1.00
S717   S     0.82551   0.08959   0.71172   0.00000  Uiso   1.00
S718   S     0.84117   0.24357   0.78890   0.00000  Uiso   1.00
Zn719  Zn    0.93700   0.17287   0.75539   0.00000  Uiso   1.00
Zn720  Zn    0.72967   0.16046   0.74460   0.00000  Uiso   1.00
C721   C     0.01466   0.59797   0.74915   0.00000  Uiso   1.00
C722   C     0.31245   0.49830   0.65867   0.00000  Uiso   1.00
C723   C     0.03506   0.52034   0.89395   0.00000  Uiso   1.00
C724   C     0.30352   0.50150   0.60486   0.00000  Uiso   1.00
C725   C     0.04218   0.59415   0.95717   0.00000  Uiso   1.00
C726   C     0.32429   0.46811   0.52205   0.00000  Uiso   1.00
C727   C     0.01352   0.56604   0.91578   0.00000  Uiso   1.00
C728   C     0.00425   0.47370   0.57291   0.00000  Uiso   1.00
C729   C     0.08268   0.50046   0.91608   0.00000  Uiso   1.00
C730   C     0.25977   0.53010   0.58514   0.00000  Uiso   1.00
C731   C     0.11729   0.53330   0.95178   0.00000  Uiso   1.00
C732   C     0.31869   0.40205   0.75098   0.00000  Uiso   1.00
C733   C     0.24643   0.52525   0.53301   0.00000  Uiso   1.00
C734   C     0.09489   0.57921   0.97425   0.00000  Uiso   1.00
C735   C     0.27677   0.49034   0.50245   0.00000  Uiso   1.00
C736   C     0.17316   0.52237   0.96602   0.00000  Uiso   1.00
C737   C     0.19919   0.54778   0.51078   0.00000  Uiso   1.00
C738   C     0.22534   0.55905   0.61903   0.00000  Uiso   1.00
C739   C     0.09221   0.44538   0.90380   0.00000  Uiso   1.00
C740   C     0.17777   0.59500   0.53047   0.00000  Uiso   1.00
C741   C     0.20546   0.49015   0.93549   0.00000  Uiso   1.00
C742   C     0.12635   0.61060   0.51225   0.00000  Uiso   1.00
C743   C     0.25755   0.47575   0.95309   0.00000  Uiso   1.00
C744   C     0.02248   0.65255   0.74960   0.00000  Uiso   1.00
C745   C     0.31088   0.34748   0.75071   0.00000  Uiso   1.00
C746   C     0.02136   0.50478   0.84129   0.00000  Uiso   1.00
H747   H     0.11093   0.64696   0.52832   0.00000  Uiso   1.00
H748   H     0.26819   0.66403   0.75091   0.00000  Uiso   1.00
H749   H     0.10893   0.36072   0.66670   0.00000  Uiso   1.00
H750   H     0.22462   0.63873   0.83422   0.00000  Uiso   1.00
H751   H     0.28100   0.45023   0.92903   0.00000  Uiso   1.00
H752   H     0.03900   0.45310   0.58753   0.00000  Uiso   1.00
H753   H     0.30989   0.58172   0.89907   0.00000  Uiso   1.00
H754   H     0.02514   0.62959   0.97352   0.00000  Uiso   1.00
H755   H     0.01561   0.44332   0.99842   0.00000  Uiso   1.00
H756   H     0.20164   0.62157   0.55849   0.00000  Uiso   1.00
H757   H     0.19185   0.47739   0.89724   0.00000  Uiso   1.00
H758   H     0.06517   0.33599   0.74942   0.00000  Uiso   1.00
N759   N     0.14695   0.48550   0.73739   0.00000  Uiso   1.00
N760   N     0.18638   0.51450   0.76260   0.00000  Uiso   1.00
N761   N     0.19794   0.58199   0.64618   0.00000  Uiso   1.00
N762   N     0.09950   0.40141   0.89398   0.00000  Uiso   1.00
O763   O     0.29719   0.57964   0.75309   0.00000  Uiso   1.00
O764   O     0.17029   0.38884   0.75281   0.00000  Uiso   1.00
O765   O     0.10121   0.39766   0.67687   0.00000  Uiso   1.00
O766   O     0.16273   0.61154   0.74836   0.00000  Uiso   1.00
O767   O     0.12792   0.57760   0.82310   0.00000  Uiso   1.00
O768   O     0.23233   0.60190   0.82358   0.00000  Uiso   1.00
O769   O     0.03614   0.42036   0.74690   0.00000  Uiso   1.00
O770   O     0.05822   0.57035   0.74501   0.00000  Uiso   1.00
O771   O     0.27512   0.42965   0.75498   0.00000  Uiso   1.00
O772   O     0.30328   0.50730   0.82247   0.00000  Uiso   1.00
O773   O     0.03005   0.49270   0.67753   0.00000  Uiso   1.00
O774   O     0.06431   0.49801   0.81439   0.00000  Uiso   1.00
O775   O     0.26902   0.50199   0.68561   0.00000  Uiso   1.00
O776   O     0.20568   0.42192   0.67775   0.00000  Uiso   1.00
S777   S     0.15884   0.42292   0.71172   0.00000  Uiso   1.00
S778   S     0.17451   0.57690   0.78890   0.00000  Uiso   1.00
Zn779  Zn    0.27033   0.50621   0.75539   0.00000  Uiso   1.00
Zn780  Zn    0.06300   0.49379   0.74460   0.00000  Uiso   1.00
C781   C     0.34800   0.59797   0.74915   0.00000  Uiso   1.00
C782   C     0.64579   0.49830   0.65867   0.00000  Uiso   1.00
C783   C     0.36839   0.52034   0.89395   0.00000  Uiso   1.00
C784   C     0.63686   0.50150   0.60486   0.00000  Uiso   1.00
C785   C     0.37551   0.59415   0.95717   0.00000  Uiso   1.00
C786   C     0.65763   0.46811   0.52205   0.00000  Uiso   1.00
C787   C     0.34685   0.56604   0.91578   0.00000  Uiso   1.00
C788   C     0.33759   0.47370   0.57291   0.00000  Uiso   1.00
C789   C     0.41601   0.50046   0.91608   0.00000  Uiso   1.00
C790   C     0.59310   0.53010   0.58514   0.00000  Uiso   1.00
C791   C     0.45062   0.53330   0.95178   0.00000  Uiso   1.00
C792   C     0.65202   0.40205   0.75098   0.00000  Uiso   1.00
C793   C     0.57976   0.52525   0.53301   0.00000  Uiso   1.00
C794   C     0.42823   0.57921   0.97425   0.00000  Uiso   1.00
C795   C     0.61011   0.49034   0.50245   0.00000  Uiso   1.00
C796   C     0.50649   0.52237   0.96602   0.00000  Uiso   1.00
C797   C     0.53252   0.54778   0.51078   0.00000  Uiso   1.00
C798   C     0.55867   0.55905   0.61903   0.00000  Uiso   1.00
C799   C     0.42555   0.44538   0.90380   0.00000  Uiso   1.00
C800   C     0.51110   0.59500   0.53047   0.00000  Uiso   1.00
C801   C     0.53879   0.49015   0.93549   0.00000  Uiso   1.00
C802   C     0.45968   0.61060   0.51225   0.00000  Uiso   1.00
C803   C     0.59088   0.47575   0.95309   0.00000  Uiso   1.00
C804   C     0.35581   0.65255   0.74960   0.00000  Uiso   1.00
C805   C     0.64422   0.34748   0.75071   0.00000  Uiso   1.00
C806   C     0.35470   0.50478   0.84129   0.00000  Uiso   1.00
H807   H     0.44426   0.64696   0.52832   0.00000  Uiso   1.00
H808   H     0.60152   0.66403   0.75091   0.00000  Uiso   1.00
H809   H     0.44226   0.36072   0.66670   0.00000  Uiso   1.00
H810   H     0.55795   0.63873   0.83422   0.00000  Uiso   1.00
H811   H     0.61434   0.45023   0.92903   0.00000  Uiso   1.00
H812   H     0.37233   0.45310   0.58753   0.00000  Uiso   1.00
H813   H     0.64322   0.58172   0.89907   0.00000  Uiso   1.00
H814   H     0.35848   0.62959   0.97352   0.00000  Uiso   1.00
H815   H     0.34894   0.44332   0.99842   0.00000  Uiso   1.00
H816   H     0.53497   0.62157   0.55849   0.00000  Uiso   1.00
H817   H     0.52518   0.47739   0.89724   0.00000  Uiso   1.00
H818   H     0.39850   0.33599   0.74942   0.00000  Uiso   1.00
N819   N     0.48029   0.48550   0.73739   0.00000  Uiso   1.00
N820   N     0.51971   0.51450   0.76260   0.00000  Uiso   1.00
N821   N     0.53127   0.58199   0.64618   0.00000  Uiso   1.00
N822   N     0.43284   0.40141   0.89398   0.00000  Uiso   1.00
O823   O     0.63052   0.57964   0.75309   0.00000  Uiso   1.00
O824   O     0.50362   0.38884   0.75281   0.00000  Uiso   1.00
O825   O     0.43454   0.39766   0.67687   0.00000  Uiso   1.00
O826   O     0.49606   0.61154   0.74836   0.00000  Uiso   1.00
O827   O     0.46126   0.57760   0.82310   0.00000  Uiso   1.00
O828   O     0.56566   0.60190   0.82358   0.00000  Uiso   1.00
O829   O     0.36948   0.42036   0.74690   0.00000  Uiso   1.00
O830   O     0.39155   0.57035   0.74501   0.00000  Uiso   1.00
O831   O     0.60845   0.42965   0.75498   0.00000  Uiso   1.00
O832   O     0.63662   0.50730   0.82247   0.00000  Uiso   1.00
O833   O     0.36338   0.49270   0.67753   0.00000  Uiso   1.00
O834   O     0.39764   0.49801   0.81439   0.00000  Uiso   1.00
O835   O     0.60236   0.50199   0.68561   0.00000  Uiso   1.00
O836   O     0.53901   0.42192   0.67775   0.00000  Uiso   1.00
S837   S     0.49218   0.42292   0.71172   0.00000  Uiso   1.00
S838   S     0.50784   0.57690   0.78890   0.00000  Uiso   1.00
Zn839  Zn    0.60366   0.50621   0.75539   0.00000  Uiso   1.00
Zn840  Zn    0.39634   0.49379   0.74460   0.00000  Uiso   1.00
C841   C     0.68133   0.59797   0.74915   0.00000  Uiso   1.00
C842   C     0.97912   0.49830   0.65867   0.00000  Uiso   1.00
C843   C     0.70173   0.52034   0.89395   0.00000  Uiso   1.00
C844   C     0.97019   0.50150   0.60486   0.00000  Uiso   1.00
C845   C     0.70885   0.59415   0.95717   0.00000  Uiso   1.00
C846   C     0.99096   0.46811   0.52205   0.00000  Uiso   1.00
C847   C     0.68018   0.56604   0.91578   0.00000  Uiso   1.00
C848   C     0.67092   0.47370   0.57291   0.00000  Uiso   1.00
C849   C     0.74934   0.50046   0.91608   0.00000  Uiso   1.00
C850   C     0.92644   0.53010   0.58514   0.00000  Uiso   1.00
C851   C     0.78395   0.53330   0.95178   0.00000  Uiso   1.00
C852   C     0.98536   0.40205   0.75098   0.00000  Uiso   1.00
C853   C     0.91310   0.52525   0.53301   0.00000  Uiso   1.00
C854   C     0.76156   0.57921   0.97425   0.00000  Uiso   1.00
C855   C     0.94344   0.49034   0.50245   0.00000  Uiso   1.00
C856   C     0.83983   0.52237   0.96602   0.00000  Uiso   1.00
C857   C     0.86586   0.54778   0.51078   0.00000  Uiso   1.00
C858   C     0.89201   0.55905   0.61903   0.00000  Uiso   1.00
C859   C     0.75888   0.44538   0.90380   0.00000  Uiso   1.00
C860   C     0.84444   0.59500   0.53047   0.00000  Uiso   1.00
C861   C     0.87212   0.49015   0.93549   0.00000  Uiso   1.00
C862   C     0.79302   0.61060   0.51225   0.00000  Uiso   1.00
C863   C     0.92422   0.47575   0.95309   0.00000  Uiso   1.00
C864   C     0.68915   0.65255   0.74960   0.00000  Uiso   1.00
C865   C     0.97755   0.34748   0.75071   0.00000  Uiso   1.00
C866   C     0.68803   0.50478   0.84129   0.00000  Uiso   1.00
H867   H     0.77760   0.64696   0.52832   0.00000  Uiso   1.00
H868   H     0.93486   0.66403   0.75091   0.00000  Uiso   1.00
H869   H     0.77559   0.36072   0.66670   0.00000  Uiso   1.00
H870   H     0.89129   0.63873   0.83422   0.00000  Uiso   1.00
H871   H     0.94767   0.45023   0.92903   0.00000  Uiso   1.00
H872   H     0.70566   0.45310   0.58753   0.00000  Uiso   1.00
H873   H     0.97655   0.58172   0.89907   0.00000  Uiso   1.00
H874   H     0.69181   0.62959   0.97352   0.00000  Uiso   1.00
H875   H     0.68228   0.44332   0.99842   0.00000  Uiso   1.00
H876   H     0.86831   0.62157   0.55849   0.00000  Uiso   1.00
H877   H     0.85851   0.47739   0.89724   0.00000  Uiso   1.00
H878   H     0.73183   0.33599   0.74942   0.00000  Uiso   1.00
N879   N     0.81362   0.48550   0.73739   0.00000  Uiso   1.00
N880   N     0.85305   0.51450   0.76260   0.00000  Uiso   1.00
N881   N     0.86461   0.58199   0.64618   0.00000  Uiso   1.00
N882   N     0.76617   0.40141   0.89398   0.00000  Uiso   1.00
O883   O     0.96386   0.57964   0.75309   0.00000  Uiso   1.00
O884   O     0.83696   0.38884   0.75281   0.00000  Uiso   1.00
O885   O     0.76788   0.39766   0.67687   0.00000  Uiso   1.00
O886   O     0.82939   0.61154   0.74836   0.00000  Uiso   1.00
O887   O     0.79459   0.57760   0.82310   0.00000  Uiso   1.00
O888   O     0.89900   0.60190   0.82358   0.00000  Uiso   1.00
O889   O     0.70281   0.42036   0.74690   0.00000  Uiso   1.00
O890   O     0.72488   0.57035   0.74501   0.00000  Uiso   1.00
O891   O     0.94178   0.42965   0.75498   0.00000  Uiso   1.00
O892   O     0.96995   0.50730   0.82247   0.00000  Uiso   1.00
O893   O     0.69672   0.49270   0.67753   0.00000  Uiso   1.00
O894   O     0.73098   0.49801   0.81439   0.00000  Uiso   1.00
O895   O     0.93569   0.50199   0.68561   0.00000  Uiso   1.00
O896   O     0.87235   0.42192   0.67775   0.00000  Uiso   1.00
S897   S     0.82551   0.42292   0.71172   0.00000  Uiso   1.00
S898   S     0.84117   0.57690   0.78890   0.00000  Uiso   1.00
Zn899  Zn    0.93700   0.50621   0.75539   0.00000  Uiso   1.00
Zn900  Zn    0.72967   0.49379   0.74460   0.00000  Uiso   1.00
C901   C     0.01466   0.93130   0.74915   0.00000  Uiso   1.00
C902   C     0.31245   0.83163   0.65867   0.00000  Uiso   1.00
C903   C     0.03506   0.85367   0.89395   0.00000  Uiso   1.00
C904   C     0.30352   0.83483   0.60486   0.00000  Uiso   1.00
C905   C     0.04218   0.92748   0.95717   0.00000  Uiso   1.00
C906   C     0.32429   0.80144   0.52205   0.00000  Uiso   1.00
C907   C     0.01352   0.89937   0.91578   0.00000  Uiso   1.00
C908   C     0.00425   0.80703   0.57291   0.00000  Uiso   1.00
C909   C     0.08268   0.83380   0.91608   0.00000  Uiso   1.00
C910   C     0.25977   0.86343   0.58514   0.00000  Uiso   1.00
C911   C     0.11729   0.86663   0.95178   0.00000  Uiso   1.00
C912   C     0.31869   0.73538   0.75098   0.00000  Uiso   1.00
C913   C     0.24643   0.85858   0.53301   0.00000  Uiso   1.00
C914   C     0.09489   0.91255   0.97425   0.00000  Uiso   1.00
C915   C     0.27677   0.82368   0.50245   0.00000  Uiso   1.00
C916   C     0.17316   0.85571   0.96602   0.00000  Uiso   1.00
C917   C     0.19919   0.88112   0.51078   0.00000  Uiso   1.00
C918   C     0.22534   0.89239   0.61903   0.00000  Uiso   1.00
C919   C     0.09221   0.77871   0.90380   0.00000  Uiso   1.00
C920   C     0.17777   0.92833   0.53047   0.00000  Uiso   1.00
C921   C     0.20546   0.82348   0.93549   0.00000  Uiso   1.00
C922   C     0.12635   0.94393   0.51225   0.00000  Uiso   1.00
C923   C     0.25755   0.80908   0.95309   0.00000  Uiso   1.00
C924   C     0.02248   0.98588   0.74960   0.00000  Uiso   1.00
C925   C     0.31088   0.68081   0.75071   0.00000  Uiso   1.00
C926   C     0.02136   0.83811   0.84129   0.00000  Uiso   1.00
H927   H     0.11093   0.98030   0.52832   0.00000  Uiso   1.00
H928   H     0.26819   0.99737   0.75091   0.00000  Uiso   1.00
H929   H     0.10893   0.69405   0.66670   0.00000  Uiso   1.00
H930   H     0.22462   0.97207   0.83422   0.00000  Uiso   1.00
H931   H     0.28100   0.78356   0.92903   0.00000  Uiso   1.00
H932   H     0.03900   0.78644   0.58753   0.00000  Uiso   1.00
H933   H     0.30989   0.91505   0.89907   0.00000  Uiso   1.00
H934   H     0.02514   0.96292   0.97352   0.00000  Uiso   1.00
H935   H     0.01561   0.77665   0.99842   0.00000  Uiso   1.00
H936   H     0.20164   0.95490   0.55849   0.00000  Uiso   1.00
H937   H     0.19185   0.81072   0.89724   0.00000  Uiso   1.00
H938   H     0.06517   0.66933   0.74942   0.00000  Uiso   1.00
N939   N     0.14695   0.81883   0.73739   0.00000  Uiso   1.00
N940   N     0.18638   0.84784   0.76260   0.00000  Uiso   1.00
N941   N     0.19794   0.91532   0.64618   0.00000  Uiso   1.00
N942   N     0.09950   0.73474   0.89398   0.00000  Uiso   1.00
O943   O     0.29719   0.91298   0.75309   0.00000  Uiso   1.00
O944   O     0.17029   0.72217   0.75281   0.00000  Uiso   1.00
O945   O     0.10121   0.73100   0.67687   0.00000  Uiso   1.00
O946   O     0.16273   0.94488   0.74836   0.00000  Uiso   1.00
O947   O     0.12792   0.91094   0.82310   0.00000  Uiso   1.00
O948   O     0.23233   0.93523   0.82358   0.00000  Uiso   1.00
O949   O     0.03614   0.75369   0.74690   0.00000  Uiso   1.00
O950   O     0.05822   0.90368   0.74501   0.00000  Uiso   1.00
O951   O     0.27512   0.76298   0.75498   0.00000  Uiso   1.00
O952   O     0.30328   0.84063   0.82247   0.00000  Uiso   1.00
O953   O     0.03005   0.82603   0.67753   0.00000  Uiso   1.00
O954   O     0.06431   0.83134   0.81439   0.00000  Uiso   1.00
O955   O     0.26902   0.83533   0.68561   0.00000  Uiso   1.00
O956   O     0.20568   0.75525   0.67775   0.00000  Uiso   1.00
S957   S     0.15884   0.75625   0.71172   0.00000  Uiso   1.00
S958   S     0.17451   0.91024   0.78890   0.00000  Uiso   1.00
Zn959  Zn    0.27033   0.83954   0.75539   0.00000  Uiso   1.00
Zn960  Zn    0.06300   0.82713   0.74460   0.00000  Uiso   1.00
C961   C     0.34800   0.93130   0.74915   0.00000  Uiso   1.00
C962   C     0.64579   0.83163   0.65867   0.00000  Uiso   1.00
C963   C     0.36839   0.85367   0.89395   0.00000  Uiso   1.00
C964   C     0.63686   0.83483   0.60486   0.00000  Uiso   1.00
C965   C     0.37551   0.92748   0.95717   0.00000  Uiso   1.00
C966   C     0.65763   0.80144   0.52205   0.00000  Uiso   1.00
C967   C     0.34685   0.89937   0.91578   0.00000  Uiso   1.00
C968   C     0.33759   0.80703   0.57291   0.00000  Uiso   1.00
C969   C     0.41601   0.83380   0.91608   0.00000  Uiso   1.00
C970   C     0.59310   0.86343   0.58514   0.00000  Uiso   1.00
C971   C     0.45062   0.86663   0.95178   0.00000  Uiso   1.00
C972   C     0.65202   0.73538   0.75098   0.00000  Uiso   1.00
C973   C     0.57976   0.85858   0.53301   0.00000  Uiso   1.00
C974   C     0.42823   0.91255   0.97425   0.00000  Uiso   1.00
C975   C     0.61011   0.82368   0.50245   0.00000  Uiso   1.00
C976   C     0.50649   0.85571   0.96602   0.00000  Uiso   1.00
C977   C     0.53252   0.88112   0.51078   0.00000  Uiso   1.00
C978   C     0.55867   0.89239   0.61903   0.00000  Uiso   1.00
C979   C     0.42555   0.77871   0.90380   0.00000  Uiso   1.00
C980   C     0.51110   0.92833   0.53047   0.00000  Uiso   1.00
C981   C     0.53879   0.82348   0.93549   0.00000  Uiso   1.00
C982   C     0.45968   0.94393   0.51225   0.00000  Uiso   1.00
C983   C     0.59088   0.80908   0.95309   0.00000  Uiso   1.00
C984   C     0.35581   0.98588   0.74960   0.00000  Uiso   1.00
C985   C     0.64422   0.68081   0.75071   0.00000  Uiso   1.00
C986   C     0.35470   0.83811   0.84129   0.00000  Uiso   1.00
H987   H     0.44426   0.98030   0.52832   0.00000  Uiso   1.00
H988   H     0.60152   0.99737   0.75091   0.00000  Uiso   1.00
H989   H     0.44226   0.69405   0.66670   0.00000  Uiso   1.00
H990   H     0.55795   0.97207   0.83422   0.00000  Uiso   1.00
H991   H     0.61434   0.78356   0.92903   0.00000  Uiso   1.00
H992   H     0.37233   0.78644   0.58753   0.00000  Uiso   1.00
H993   H     0.64322   0.91505   0.89907   0.00000  Uiso   1.00
H994   H     0.35848   0.96292   0.97352   0.00000  Uiso   1.00
H995   H     0.34894   0.77665   0.99842   0.00000  Uiso   1.00
H996   H     0.53497   0.95490   0.55849   0.00000  Uiso   1.00
H997   H     0.52518   0.81072   0.89724   0.00000  Uiso   1.00
H998   H     0.39850   0.66933   0.74942   0.00000  Uiso   1.00
N999   N     0.48029   0.81883   0.73739   0.00000  Uiso   1.00
N1000  N     0.51971   0.84784   0.76260   0.00000  Uiso   1.00
N1001  N     0.53127   0.91532   0.64618   0.00000  Uiso   1.00
N1002  N     0.43284   0.73474   0.89398   0.00000  Uiso   1.00
O1003  O     0.63052   0.91298   0.75309   0.00000  Uiso   1.00
O1004  O     0.50362   0.72217   0.75281   0.00000  Uiso   1.00
O1005  O     0.43454   0.73100   0.67687   0.00000  Uiso   1.00
O1006  O     0.49606   0.94488   0.74836   0.00000  Uiso   1.00
O1007  O     0.46126   0.91094   0.82310   0.00000  Uiso   1.00
O1008  O     0.56566   0.93523   0.82358   0.00000  Uiso   1.00
O1009  O     0.36948   0.75369   0.74690   0.00000  Uiso   1.00
O1010  O     0.39155   0.90368   0.74501   0.00000  Uiso   1.00
O1011  O     0.60845   0.76298   0.75498   0.00000  Uiso   1.00
O1012  O     0.63662   0.84063   0.82247   0.00000  Uiso   1.00
O1013  O     0.36338   0.82603   0.67753   0.00000  Uiso   1.00
O1014  O     0.39764   0.83134   0.81439   0.00000  Uiso   1.00
O1015  O     0.60236   0.83533   0.68561   0.00000  Uiso   1.00
O1016  O     0.53901   0.75525   0.67775   0.00000  Uiso   1.00
S1017  S     0.49218   0.75625   0.71172   0.00000  Uiso   1.00
S1018  S     0.50784   0.91024   0.78890   0.00000  Uiso   1.00
Zn1019 Zn    0.60366   0.83954   0.75539   0.00000  Uiso   1.00
Zn1020 Zn    0.39634   0.82713   0.74460   0.00000  Uiso   1.00
C1021  C     0.68133   0.93130   0.74915   0.00000  Uiso   1.00
C1022  C     0.97912   0.83163   0.65867   0.00000  Uiso   1.00
C1023  C     0.70173   0.85367   0.89395   0.00000  Uiso   1.00
C1024  C     0.97019   0.83483   0.60486   0.00000  Uiso   1.00
C1025  C     0.70885   0.92748   0.95717   0.00000  Uiso   1.00
C1026  C     0.99096   0.80144   0.52205   0.00000  Uiso   1.00
C1027  C     0.68018   0.89937   0.91578   0.00000  Uiso   1.00
C1028  C     0.67092   0.80703   0.57291   0.00000  Uiso   1.00
C1029  C     0.74934   0.83380   0.91608   0.00000  Uiso   1.00
C1030  C     0.92644   0.86343   0.58514   0.00000  Uiso   1.00
C1031  C     0.78395   0.86663   0.95178   0.00000  Uiso   1.00
C1032  C     0.98536   0.73538   0.75098   0.00000  Uiso   1.00
C1033  C     0.91310   0.85858   0.53301   0.00000  Uiso   1.00
C1034  C     0.76156   0.91255   0.97425   0.00000  Uiso   1.00
C1035  C     0.94344   0.82368   0.50245   0.00000  Uiso   1.00
C1036  C     0.83983   0.85571   0.96602   0.00000  Uiso   1.00
C1037  C     0.86586   0.88112   0.51078   0.00000  Uiso   1.00
C1038  C     0.89201   0.89239   0.61903   0.00000  Uiso   1.00
C1039  C     0.75888   0.77871   0.90380   0.00000  Uiso   1.00
C1040  C     0.84444   0.92833   0.53047   0.00000  Uiso   1.00
C1041  C     0.87212   0.82348   0.93549   0.00000  Uiso   1.00
C1042  C     0.79302   0.94393   0.51225   0.00000  Uiso   1.00
C1043  C     0.92422   0.80908   0.95309   0.00000  Uiso   1.00
C1044  C     0.68915   0.98588   0.74960   0.00000  Uiso   1.00
C1045  C     0.97755   0.68081   0.75071   0.00000  Uiso   1.00
C1046  C     0.68803   0.83811   0.84129   0.00000  Uiso   1.00
H1047  H     0.77760   0.98030   0.52832   0.00000  Uiso   1.00
H1048  H     0.93486   0.99737   0.75091   0.00000  Uiso   1.00
H1049  H     0.77559   0.69405   0.66670   0.00000  Uiso   1.00
H1050  H     0.89129   0.97207   0.83422   0.00000  Uiso   1.00
H1051  H     0.94767   0.78356   0.92903   0.00000  Uiso   1.00
H1052  H     0.70566   0.78644   0.58753   0.00000  Uiso   1.00
H1053  H     0.97655   0.91505   0.89907   0.00000  Uiso   1.00
H1054  H     0.69181   0.96292   0.97352   0.00000  Uiso   1.00
H1055  H     0.68228   0.77665   0.99842   0.00000  Uiso   1.00
H1056  H     0.86831   0.95490   0.55849   0.00000  Uiso   1.00
H1057  H     0.85851   0.81072   0.89724   0.00000  Uiso   1.00
H1058  H     0.73183   0.66933   0.74942   0.00000  Uiso   1.00
N1059  N     0.81362   0.81883   0.73739   0.00000  Uiso   1.00
N1060  N     0.85305   0.84784   0.76260   0.00000  Uiso   1.00
N1061  N     0.86461   0.91532   0.64618   0.00000  Uiso   1.00
N1062  N     0.76617   0.73474   0.89398   0.00000  Uiso   1.00
O1063  O     0.96386   0.91298   0.75309   0.00000  Uiso   1.00
O1064  O     0.83696   0.72217   0.75281   0.00000  Uiso   1.00
O1065  O     0.76788   0.73100   0.67687   0.00000  Uiso   1.00
O1066  O     0.82939   0.94488   0.74836   0.00000  Uiso   1.00
O1067  O     0.79459   0.91094   0.82310   0.00000  Uiso   1.00
O1068  O     0.89900   0.93523   0.82358   0.00000  Uiso   1.00
O1069  O     0.70281   0.75369   0.74690   0.00000  Uiso   1.00
O1070  O     0.72488   0.90368   0.74501   0.00000  Uiso   1.00
O1071  O     0.94178   0.76298   0.75498   0.00000  Uiso   1.00
O1072  O     0.96995   0.84063   0.82247   0.00000  Uiso   1.00
O1073  O     0.69672   0.82603   0.67753   0.00000  Uiso   1.00
O1074  O     0.73098   0.83134   0.81439   0.00000  Uiso   1.00
O1075  O     0.93569   0.83533   0.68561   0.00000  Uiso   1.00
O1076  O     0.87235   0.75525   0.67775   0.00000  Uiso   1.00
S1077  S     0.82551   0.75625   0.71172   0.00000  Uiso   1.00
S1078  S     0.84117   0.91024   0.78890   0.00000  Uiso   1.00
Zn1079 Zn    0.93700   0.83954   0.75539   0.00000  Uiso   1.00
Zn1080 Zn    0.72967   0.82713   0.74460   0.00000  Uiso   1.00
loop_
_geom_bond_atom_site_label_1
_geom_bond_atom_site_label_2
_geom_bond_distance
_geom_bond_site_symmetry_2
_ccdc_geom_bond_type
C1     O50     1.297   .     A
C1     C24     1.399   .     S
C1     O163    1.293   1_455 S
C2     C4      1.472   .     S
C2     O55     1.312   .     A
C2     O113    1.312   .     S
C3     C9      1.398   .     A
C3     C7      1.400   .     A
C3     C26     1.457   .     S
C4     C10     1.417   .     A
C4     C68     1.401   .     S
C5     H34     1.084   .     S
C5     C14     1.402   .     A
C5     C7      1.392   .     A
C6     C15     1.397   .     A
C6     C68     1.388   .     S
C6     H635    1.084   1_554 S
C7     H153    1.083   1_455 S
C8     H32     1.084   .     S
C8     C124    1.401   1_455 S
C8     C126    1.388   1_455 S
C9     C11     1.411   .     A
C9     C19     1.452   .     S
C10    C13     1.421   .     A
C10    C18     1.453   .     S
C11    C14     1.420   .     A
C11    C16     1.418   .     A
C12    C25     1.399   .     S
C12    O51     1.297   .     A
C12    O109    1.293   .     S
C13    C15     1.422   .     A
C13    C17     1.424   .     A
C14    C562    1.395   .     S
C15    C563    1.396   1_554 S
C16    C21     1.410   .     A
C16    C557    1.410   .     S
C17    C20     1.411   .     A
C17    C556    1.410   1_554 S
C18    N41     1.158   .     T
C19    N42     1.158   .     T
C20    C22     1.390   .     A
C20    H36     1.080   .     S
C21    C23     1.388   .     A
C21    H37     1.081   .     S
C22    H27     1.084   .     S
C22    C554    1.395   1_554 S
C23    H31     1.084   .     S
C23    C555    1.396   .     S
C24    C325    1.330   1_455 S
C24    H218    1.086   .     S
C25    C444    1.330   1_545 S
C25    H388    1.086   1_545 S
C26    O54     1.309   .     A
C26    O172    1.308   1_455 S
H28    C205    1.086   .     S
H29    O45     0.991   .     S
H30    O48     0.991   .     S
H33    C67     1.083   .     S
H35    C666    1.084   1_455 S
H38    C384    1.086   1_545 S
N39    Zn60    2.052   .     S
N39    N40     1.284   .     D
N39    S57     1.731   .     S
N40    Zn59    2.052   .     S
N40    S58     1.733   .     S
O43    Zn59    1.961   .     S
O43    C61     1.293   .     S
O44    S57     1.502   .     D
O45    S57     1.681   .     S
O46    S58     1.501   .     D
O47    S58     1.496   .     D
O48    S58     1.680   .     S
O49    Zn60    1.961   .     S
O49    C132    1.293   1_455 S
O50    Zn60    1.970   .     S
O51    Zn59    1.970   .     S
O52    Zn59    1.933   .     S
O52    C86     1.308   .     S
O53    Zn60    1.933   .     S
O53    C122    1.312   1_455 S
O54    Zn60    1.884   .     S
O55    Zn59    1.884   .     S
O56    S57     1.497   .     D
C61    O110    1.297   .     A
C61    C84     1.399   .     S
C62    C64     1.472   .     S
C62    O115    1.312   .     A
C62    O173    1.312   .     S
C63    C69     1.398   .     A
C63    C67     1.400   .     A
C63    C86     1.457   .     S
C64    C70     1.417   .     A
C64    C128    1.401   .     S
C65    H94     1.084   .     S
C65    C74     1.402   .     A
C65    C67     1.392   .     A
C66    C75     1.397   .     A
C66    C128    1.388   .     S
C66    H695    1.084   1_554 S
C68    H92     1.084   .     S
C69    C71     1.411   .     A
C69    C79     1.452   .     S
C70    C73     1.421   .     A
C70    C78     1.453   .     S
C71    C74     1.420   .     A
C71    C76     1.418   .     A
C72    C85     1.399   .     S
C72    O111    1.297   .     A
C72    O169    1.293   .     S
C73    C75     1.422   .     A
C73    C77     1.424   .     A
C74    C622    1.395   .     S
C75    C623    1.396   1_554 S
C76    C81     1.410   .     A
C76    C617    1.410   .     S
C77    C80     1.411   .     A
C77    C616    1.410   1_554 S
C78    N101    1.158   .     T
C79    N102    1.158   .     T
C80    C82     1.390   .     A
C80    H96     1.080   .     S
C81    C83     1.388   .     A
C81    H97     1.081   .     S
C82    H87     1.084   .     S
C82    C614    1.395   1_554 S
C83    H91     1.084   .     S
C83    C615    1.396   .     S
C84    C205    1.330   .     S
C84    H278    1.086   .     S
C85    C504    1.330   1_545 S
C85    H448    1.086   1_545 S
C86    O114    1.309   .     A
H88    C265    1.086   .     S
H89    O105    0.991   .     S
H90    O108    0.991   .     S
H93    C127    1.083   .     S
H95    C546    1.084   .     S
H98    C444    1.086   1_545 S
N99    Zn120   2.052   .     S
N99    N100    1.284   .     D
N99    S117    1.731   .     S
N100   Zn119   2.052   .     S
N100   S118    1.733   .     S
O103   Zn119   1.961   .     S
O103   C121    1.293   .     S
O104   S117    1.502   .     D
O105   S117    1.681   .     S
O106   S118    1.501   .     D
O107   S118    1.496   .     D
O108   S118    1.680   .     S
O109   Zn120   1.961   .     S
O110   Zn120   1.970   .     S
O111   Zn119   1.970   .     S
O112   Zn119   1.933   .     S
O112   C146    1.308   .     S
O113   Zn120   1.933   .     S
O114   Zn120   1.884   .     S
O115   Zn119   1.884   .     S
O116   S117    1.497   .     D
C121   O170    1.297   .     A
C121   C144    1.399   .     S
C122   C124    1.472   .     S
C122   O175    1.312   .     A
C122   O53     1.312   1_655 S
C123   C129    1.398   .     A
C123   C127    1.400   .     A
C123   C146    1.457   .     S
C124   C130    1.417   .     A
C124   C8      1.401   1_655 S
C125   H154    1.084   .     S
C125   C134    1.402   .     A
C125   C127    1.392   .     A
C126   C135    1.397   .     A
C126   C8      1.388   1_655 S
C126   H575    1.084   1_654 S
C128   H152    1.084   .     S
C129   C131    1.411   .     A
C129   C139    1.452   .     S
C130   C133    1.421   .     A
C130   C138    1.453   .     S
C131   C134    1.420   .     A
C131   C136    1.418   .     A
C132   C145    1.399   .     S
C132   O171    1.297   .     A
C132   O49     1.293   1_655 S
C133   C135    1.422   .     A
C133   C137    1.424   .     A
C134   C682    1.395   .     S
C135   C683    1.396   1_554 S
C136   C141    1.410   .     A
C136   C677    1.410   .     S
C137   C140    1.411   .     A
C137   C676    1.410   1_554 S
C138   N161    1.158   .     T
C139   N162    1.158   .     T
C140   C142    1.390   .     A
C140   H156    1.080   .     S
C141   C143    1.388   .     A
C141   H157    1.081   .     S
C142   H147    1.084   .     S
C142   C674    1.395   1_554 S
C143   H151    1.084   .     S
C143   C675    1.396   .     S
C144   C265    1.330   .     S
C144   H338    1.086   .     S
C145   C384    1.330   1_645 S
C145   H508    1.086   1_545 S
C146   O174    1.309   .     A
H148   C325    1.086   .     S
H149   O165    0.991   .     S
H150   O168    0.991   .     S
H153   C7      1.083   1_655 S
H155   C606    1.084   .     S
H158   C504    1.086   1_545 S
N159   Zn180   2.052   .     S
N159   N160    1.284   .     D
N159   S177    1.731   .     S
N160   Zn179   2.052   .     S
N160   S178    1.733   .     S
O163   Zn179   1.961   .     S
O163   C1      1.293   1_655 S
O164   S177    1.502   .     D
O165   S177    1.681   .     S
O166   S178    1.501   .     D
O167   S178    1.496   .     D
O168   S178    1.680   .     S
O169   Zn180   1.961   .     S
O170   Zn180   1.970   .     S
O171   Zn179   1.970   .     S
O172   Zn179   1.933   .     S
O172   C26     1.308   1_655 S
O173   Zn180   1.933   .     S
O174   Zn180   1.884   .     S
O175   Zn179   1.884   .     S
O176   S177    1.497   .     D
C181   O230    1.297   .     A
C181   C204    1.399   .     S
C181   O343    1.293   1_455 S
C182   C184    1.472   .     S
C182   O235    1.312   .     A
C182   O293    1.312   .     S
C183   C189    1.398   .     A
C183   C187    1.400   .     A
C183   C206    1.457   .     S
C184   C190    1.417   .     A
C184   C248    1.401   .     S
C185   H214    1.084   .     S
C185   C194    1.402   .     A
C185   C187    1.392   .     A
C186   C195    1.397   .     A
C186   C248    1.388   .     S
C186   H815    1.084   1_554 S
C187   H333    1.083   1_455 S
C188   H212    1.084   .     S
C188   C304    1.401   1_455 S
C188   C306    1.388   1_455 S
C189   C191    1.411   .     A
C189   C199    1.452   .     S
C190   C193    1.421   .     A
C190   C198    1.453   .     S
C191   C194    1.420   .     A
C191   C196    1.418   .     A
C192   C205    1.399   .     S
C192   O231    1.297   .     A
C192   O289    1.293   .     S
C193   C195    1.422   .     A
C193   C197    1.424   .     A
C194   C742    1.395   .     S
C195   C743    1.396   1_554 S
C196   C201    1.410   .     A
C196   C737    1.410   .     S
C197   C200    1.411   .     A
C197   C736    1.410   1_554 S
C198   N221    1.158   .     T
C199   N222    1.158   .     T
C200   C202    1.390   .     A
C200   H216    1.080   .     S
C201   C203    1.388   .     A
C201   H217    1.081   .     S
C202   H207    1.084   .     S
C202   C734    1.395   1_554 S
C203   H211    1.084   .     S
C203   C735    1.396   .     S
C204   C505    1.330   1_455 S
C204   H398    1.086   .     S
C206   O234    1.309   .     A
C206   O352    1.308   1_455 S
H208   C385    1.086   .     S
H209   O225    0.991   .     S
H210   O228    0.991   .     S
H213   C247    1.083   .     S
H215   C846    1.084   1_455 S
N219   Zn240   2.052   .     S
N219   N220    1.284   .     D
N219   S237    1.731   .     S
N220   Zn239   2.052   .     S
N220   S238    1.733   .     S
O223   Zn239   1.961   .     S
O223   C241    1.293   .     S
O224   S237    1.502   .     D
O225   S237    1.681   .     S
O226   S238    1.501   .     D
O227   S238    1.496   .     D
O228   S238    1.680   .     S
O229   Zn240   1.961   .     S
O229   C312    1.293   1_455 S
O230   Zn240   1.970   .     S
O231   Zn239   1.970   .     S
O232   Zn239   1.933   .     S
O232   C266    1.308   .     S
O233   Zn240   1.933   .     S
O233   C302    1.312   1_455 S
O234   Zn240   1.884   .     S
O235   Zn239   1.884   .     S
O236   S237    1.497   .     D
C241   O290    1.297   .     A
C241   C264    1.399   .     S
C242   C244    1.472   .     S
C242   O295    1.312   .     A
C242   O353    1.312   .     S
C243   C249    1.398   .     A
C243   C247    1.400   .     A
C243   C266    1.457   .     S
C244   C250    1.417   .     A
C244   C308    1.401   .     S
C245   H274    1.084   .     S
C245   C254    1.402   .     A
C245   C247    1.392   .     A
C246   C255    1.397   .     A
C246   C308    1.388   .     S
C246   H875    1.084   1_554 S
C248   H272    1.084   .     S
C249   C251    1.411   .     A
C249   C259    1.452   .     S
C250   C253    1.421   .     A
C250   C258    1.453   .     S
C251   C254    1.420   .     A
C251   C256    1.418   .     A
C252   C265    1.399   .     S
C252   O291    1.297   .     A
C252   O349    1.293   .     S
C253   C255    1.422   .     A
C253   C257    1.424   .     A
C254   C802    1.395   .     S
C255   C803    1.396   1_554 S
C256   C261    1.410   .     A
C256   C797    1.410   .     S
C257   C260    1.411   .     A
C257   C796    1.410   1_554 S
C258   N281    1.158   .     T
C259   N282    1.158   .     T
C260   C262    1.390   .     A
C260   H276    1.080   .     S
C261   C263    1.388   .     A
C261   H277    1.081   .     S
C262   H267    1.084   .     S
C262   C794    1.395   1_554 S
C263   H271    1.084   .     S
C263   C795    1.396   .     S
C264   C385    1.330   .     S
C264   H458    1.086   .     S
C266   O294    1.309   .     A
H268   C445    1.086   .     S
H269   O285    0.991   .     S
H270   O288    0.991   .     S
H273   C307    1.083   .     S
H275   C726    1.084   .     S
N279   Zn300   2.052   .     S
N279   N280    1.284   .     D
N279   S297    1.731   .     S
N280   Zn299   2.052   .     S
N280   S298    1.733   .     S
O283   Zn299   1.961   .     S
O283   C301    1.293   .     S
O284   S297    1.502   .     D
O285   S297    1.681   .     S
O286   S298    1.501   .     D
O287   S298    1.496   .     D
O288   S298    1.680   .     S
O289   Zn300   1.961   .     S
O290   Zn300   1.970   .     S
O291   Zn299   1.970   .     S
O292   Zn299   1.933   .     S
O292   C326    1.308   .     S
O293   Zn300   1.933   .     S
O294   Zn300   1.884   .     S
O295   Zn299   1.884   .     S
O296   S297    1.497   .     D
C301   O350    1.297   .     A
C301   C324    1.399   .     S
C302   C304    1.472   .     S
C302   O355    1.312   .     A
C302   O233    1.312   1_655 S
C303   C309    1.398   .     A
C303   C307    1.400   .     A
C303   C326    1.457   .     S
C304   C310    1.417   .     A
C304   C188    1.401   1_655 S
C305   H334    1.084   .     S
C305   C314    1.402   .     A
C305   C307    1.392   .     A
C306   C315    1.397   .     A
C306   C188    1.388   1_655 S
C306   H755    1.084   1_654 S
C308   H332    1.084   .     S
C309   C311    1.411   .     A
C309   C319    1.452   .     S
C310   C313    1.421   .     A
C310   C318    1.453   .     S
C311   C314    1.420   .     A
C311   C316    1.418   .     A
C312   C325    1.399   .     S
C312   O351    1.297   .     A
C312   O229    1.293   1_655 S
C313   C315    1.422   .     A
C313   C317    1.424   .     A
C314   C862    1.395   .     S
C315   C863    1.396   1_554 S
C316   C321    1.410   .     A
C316   C857    1.410   .     S
C317   C320    1.411   .     A
C317   C856    1.410   1_554 S
C318   N341    1.158   .     T
C319   N342    1.158   .     T
C320   C322    1.390   .     A
C320   H336    1.080   .     S
C321   C323    1.388   .     A
C321   H337    1.081   .     S
C322   H327    1.084   .     S
C322   C854    1.395   1_554 S
C323   H331    1.084   .     S
C323   C855    1.396   .     S
C324   C445    1.330   .     S
C324   H518    1.086   .     S
C325   C24     1.330   1_655 S
C326   O354    1.309   .     A
H328   C505    1.086   .     S
H329   O345    0.991   .     S
H330   O348    0.991   .     S
H333   C187    1.083   1_655 S
H335   C786    1.084   .     S
N339   Zn360   2.052   .     S
N339   N340    1.284   .     D
N339   S357    1.731   .     S
N340   Zn359   2.052   .     S
N340   S358    1.733   .     S
O343   Zn359   1.961   .     S
O343   C181    1.293   1_655 S
O344   S357    1.502   .     D
O345   S357    1.681   .     S
O346   S358    1.501   .     D
O347   S358    1.496   .     D
O348   S358    1.680   .     S
O349   Zn360   1.961   .     S
O350   Zn360   1.970   .     S
O351   Zn359   1.970   .     S
O352   Zn359   1.933   .     S
O352   C206    1.308   1_655 S
O353   Zn360   1.933   .     S
O354   Zn360   1.884   .     S
O355   Zn359   1.884   .     S
O356   S357    1.497   .     D
C361   O410    1.297   .     A
C361   C384    1.399   .     S
C361   O523    1.293   1_455 S
C362   C364    1.472   .     S
C362   O415    1.312   .     A
C362   O473    1.312   .     S
C363   C369    1.398   .     A
C363   C367    1.400   .     A
C363   C386    1.457   .     S
C364   C370    1.417   .     A
C364   C428    1.401   .     S
C365   H394    1.084   .     S
C365   C374    1.402   .     A
C365   C367    1.392   .     A
C366   C375    1.397   .     A
C366   C428    1.388   .     S
C366   H995    1.084   1_554 S
C367   H513    1.083   1_455 S
C368   H392    1.084   .     S
C368   C484    1.401   1_455 S
C368   C486    1.388   1_455 S
C369   C371    1.411   .     A
C369   C379    1.452   .     S
C370   C373    1.421   .     A
C370   C378    1.453   .     S
C371   C374    1.420   .     A
C371   C376    1.418   .     A
C372   C385    1.399   .     S
C372   O411    1.297   .     A
C372   O469    1.293   .     S
C373   C375    1.422   .     A
C373   C377    1.424   .     A
C374   C922    1.395   .     S
C375   C923    1.396   1_554 S
C376   C381    1.410   .     A
C376   C917    1.410   .     S
C377   C380    1.411   .     A
C377   C916    1.410   1_554 S
C378   N401    1.158   .     T
C379   N402    1.158   .     T
C380   C382    1.390   .     A
C380   H396    1.080   .     S
C381   C383    1.388   .     A
C381   H397    1.081   .     S
C382   H387    1.084   .     S
C382   C914    1.395   1_554 S
C383   H391    1.084   .     S
C383   C915    1.396   .     S
C384   C145    1.330   1_465 S
C384   H38     1.086   1_565 S
C386   O414    1.309   .     A
C386   O532    1.308   1_455 S
H388   C25     1.086   1_565 S
H389   O405    0.991   .     S
H390   O408    0.991   .     S
H393   C427    1.083   .     S
H395   C1026   1.084   1_455 S
N399   Zn420   2.052   .     S
N399   N400    1.284   .     D
N399   S417    1.731   .     S
N400   Zn419   2.052   .     S
N400   S418    1.733   .     S
O403   Zn419   1.961   .     S
O403   C421    1.293   .     S
O404   S417    1.502   .     D
O405   S417    1.681   .     S
O406   S418    1.501   .     D
O407   S418    1.496   .     D
O408   S418    1.680   .     S
O409   Zn420   1.961   .     S
O409   C492    1.293   1_455 S
O410   Zn420   1.970   .     S
O411   Zn419   1.970   .     S
O412   Zn419   1.933   .     S
O412   C446    1.308   .     S
O413   Zn420   1.933   .     S
O413   C482    1.312   1_455 S
O414   Zn420   1.884   .     S
O415   Zn419   1.884   .     S
O416   S417    1.497   .     D
C421   O470    1.297   .     A
C421   C444    1.399   .     S
C422   C424    1.472   .     S
C422   O475    1.312   .     A
C422   O533    1.312   .     S
C423   C429    1.398   .     A
C423   C427    1.400   .     A
C423   C446    1.457   .     S
C424   C430    1.417   .     A
C424   C488    1.401   .     S
C425   H454    1.084   .     S
C425   C434    1.402   .     A
C425   C427    1.392   .     A
C426   C435    1.397   .     A
C426   C488    1.388   .     S
C426   H1055   1.084   1_554 S
C428   H452    1.084   .     S
C429   C431    1.411   .     A
C429   C439    1.452   .     S
C430   C433    1.421   .     A
C430   C438    1.453   .     S
C431   C434    1.420   .     A
C431   C436    1.418   .     A
C432   C445    1.399   .     S
C432   O471    1.297   .     A
C432   O529    1.293   .     S
C433   C435    1.422   .     A
C433   C437    1.424   .     A
C434   C982    1.395   .     S
C435   C983    1.396   1_554 S
C436   C441    1.410   .     A
C436   C977    1.410   .     S
C437   C440    1.411   .     A
C437   C976    1.410   1_554 S
C438   N461    1.158   .     T
C439   N462    1.158   .     T
C440   C442    1.390   .     A
C440   H456    1.080   .     S
C441   C443    1.388   .     A
C441   H457    1.081   .     S
C442   H447    1.084   .     S
C442   C974    1.395   1_554 S
C443   H451    1.084   .     S
C443   C975    1.396   .     S
C444   C25     1.330   1_565 S
C444   H98     1.086   1_565 S
C446   O474    1.309   .     A
H448   C85     1.086   1_565 S
H449   O465    0.991   .     S
H450   O468    0.991   .     S
H453   C487    1.083   .     S
H455   C906    1.084   .     S
N459   Zn480   2.052   .     S
N459   N460    1.284   .     D
N459   S477    1.731   .     S
N460   Zn479   2.052   .     S
N460   S478    1.733   .     S
O463   Zn479   1.961   .     S
O463   C481    1.293   .     S
O464   S477    1.502   .     D
O465   S477    1.681   .     S
O466   S478    1.501   .     D
O467   S478    1.496   .     D
O468   S478    1.680   .     S
O469   Zn480   1.961   .     S
O470   Zn480   1.970   .     S
O471   Zn479   1.970   .     S
O472   Zn479   1.933   .     S
O472   C506    1.308   .     S
O473   Zn480   1.933   .     S
O474   Zn480   1.884   .     S
O475   Zn479   1.884   .     S
O476   S477    1.497   .     D
C481   O530    1.297   .     A
C481   C504    1.399   .     S
C482   C484    1.472   .     S
C482   O535    1.312   .     A
C482   O413    1.312   1_655 S
C483   C489    1.398   .     A
C483   C487    1.400   .     A
C483   C506    1.457   .     S
C484   C490    1.417   .     A
C484   C368    1.401   1_655 S
C485   H514    1.084   .     S
C485   C494    1.402   .     A
C485   C487    1.392   .     A
C486   C495    1.397   .     A
C486   C368    1.388   1_655 S
C486   H935    1.084   1_654 S
C488   H512    1.084   .     S
C489   C491    1.411   .     A
C489   C499    1.452   .     S
C490   C493    1.421   .     A
C490   C498    1.453   .     S
C491   C494    1.420   .     A
C491   C496    1.418   .     A
C492   C505    1.399   .     S
C492   O531    1.297   .     A
C492   O409    1.293   1_655 S
C493   C495    1.422   .     A
C493   C497    1.424   .     A
C494   C1042   1.395   .     S
C495   C1043   1.396   1_554 S
C496   C501    1.410   .     A
C496   C1037   1.410   .     S
C497   C500    1.411   .     A
C497   C1036   1.410   1_554 S
C498   N521    1.158   .     T
C499   N522    1.158   .     T
C500   C502    1.390   .     A
C500   H516    1.080   .     S
C501   C503    1.388   .     A
C501   H517    1.081   .     S
C502   H507    1.084   .     S
C502   C1034   1.395   1_554 S
C503   H511    1.084   .     S
C503   C1035   1.396   .     S
C504   C85     1.330   1_565 S
C504   H158    1.086   1_565 S
C505   C204    1.330   1_655 S
C506   O534    1.309   .     A
H508   C145    1.086   1_565 S
H509   O525    0.991   .     S
H510   O528    0.991   .     S
H513   C367    1.083   1_655 S
H515   C966    1.084   .     S
N519   Zn540   2.052   .     S
N519   N520    1.284   .     D
N519   S537    1.731   .     S
N520   Zn539   2.052   .     S
N520   S538    1.733   .     S
O523   Zn539   1.961   .     S
O523   C361    1.293   1_655 S
O524   S537    1.502   .     D
O525   S537    1.681   .     S
O526   S538    1.501   .     D
O527   S538    1.496   .     D
O528   S538    1.680   .     S
O529   Zn540   1.961   .     S
O530   Zn540   1.970   .     S
O531   Zn539   1.970   .     S
O532   Zn539   1.933   .     S
O532   C386    1.308   1_655 S
O533   Zn540   1.933   .     S
O534   Zn540   1.884   .     S
O535   Zn539   1.884   .     S
O536   S537    1.497   .     D
C541   O590    1.297   .     A
C541   C564    1.399   .     S
C541   O703    1.293   1_455 S
C542   C544    1.472   .     S
C542   O595    1.312   .     A
C542   O653    1.312   .     S
C543   C549    1.398   .     A
C543   C547    1.400   .     A
C543   C566    1.457   .     S
C544   C550    1.417   .     A
C544   C608    1.401   .     S
C545   H574    1.084   .     S
C545   C554    1.402   .     A
C545   C547    1.392   .     A
C546   C555    1.397   .     A
C546   C608    1.388   .     S
C547   H693    1.083   1_455 S
C548   H572    1.084   .     S
C548   C664    1.401   1_455 S
C548   C666    1.388   1_455 S
C549   C551    1.411   .     A
C549   C559    1.452   .     S
C550   C553    1.421   .     A
C550   C558    1.453   .     S
C551   C554    1.420   .     A
C551   C556    1.418   .     A
C552   C565    1.399   .     S
C552   O591    1.297   .     A
C552   O649    1.293   .     S
C553   C555    1.422   .     A
C553   C557    1.424   .     A
C554   C22     1.395   1_556 S
C556   C561    1.410   .     A
C556   C17     1.410   1_556 S
C557   C560    1.411   .     A
C558   N581    1.158   .     T
C559   N582    1.158   .     T
C560   C562    1.390   .     A
C560   H576    1.080   .     S
C561   C563    1.388   .     A
C561   H577    1.081   .     S
C562   H567    1.084   .     S
C563   H571    1.084   .     S
C563   C15     1.396   1_556 S
C564   C865    1.330   1_455 S
C564   H758    1.086   .     S
C565   C984    1.330   1_545 S
C565   H928    1.086   1_545 S
C566   O594    1.309   .     A
C566   O712    1.308   1_455 S
H568   C745    1.086   .     S
H569   O585    0.991   .     S
H570   O588    0.991   .     S
H573   C607    1.083   .     S
H575   C126    1.084   1_456 S
H578   C924    1.086   1_545 S
N579   Zn600   2.052   .     S
N579   N580    1.284   .     D
N579   S597    1.731   .     S
N580   Zn599   2.052   .     S
N580   S598    1.733   .     S
O583   Zn599   1.961   .     S
O583   C601    1.293   .     S
O584   S597    1.502   .     D
O585   S597    1.681   .     S
O586   S598    1.501   .     D
O587   S598    1.496   .     D
O588   S598    1.680   .     S
O589   Zn600   1.961   .     S
O589   C672    1.293   1_455 S
O590   Zn600   1.970   .     S
O591   Zn599   1.970   .     S
O592   Zn599   1.933   .     S
O592   C626    1.308   .     S
O593   Zn600   1.933   .     S
O593   C662    1.312   1_455 S
O594   Zn600   1.884   .     S
O595   Zn599   1.884   .     S
O596   S597    1.497   .     D
C601   O650    1.297   .     A
C601   C624    1.399   .     S
C602   C604    1.472   .     S
C602   O655    1.312   .     A
C602   O713    1.312   .     S
C603   C609    1.398   .     A
C603   C607    1.400   .     A
C603   C626    1.457   .     S
C604   C610    1.417   .     A
C604   C668    1.401   .     S
C605   H634    1.084   .     S
C605   C614    1.402   .     A
C605   C607    1.392   .     A
C606   C615    1.397   .     A
C606   C668    1.388   .     S
C608   H632    1.084   .     S
C609   C611    1.411   .     A
C609   C619    1.452   .     S
C610   C613    1.421   .     A
C610   C618    1.453   .     S
C611   C614    1.420   .     A
C611   C616    1.418   .     A
C612   C625    1.399   .     S
C612   O651    1.297   .     A
C612   O709    1.293   .     S
C613   C615    1.422   .     A
C613   C617    1.424   .     A
C614   C82     1.395   1_556 S
C616   C621    1.410   .     A
C616   C77     1.410   1_556 S
C617   C620    1.411   .     A
C618   N641    1.158   .     T
C619   N642    1.158   .     T
C620   C622    1.390   .     A
C620   H636    1.080   .     S
C621   C623    1.388   .     A
C621   H637    1.081   .     S
C622   H627    1.084   .     S
C623   H631    1.084   .     S
C623   C75     1.396   1_556 S
C624   C745    1.330   .     S
C624   H818    1.086   .     S
C625   C1044   1.330   1_545 S
C625   H988    1.086   1_545 S
C626   O654    1.309   .     A
H628   C805    1.086   .     S
H629   O645    0.991   .     S
H630   O648    0.991   .     S
H633   C667    1.083   .     S
H635   C6      1.084   1_556 S
H638   C984    1.086   1_545 S
N639   Zn660   2.052   .     S
N639   N640    1.284   .     D
N639   S657    1.731   .     S
N640   Zn659   2.052   .     S
N640   S658    1.733   .     S
O643   Zn659   1.961   .     S
O643   C661    1.293   .     S
O644   S657    1.502   .     D
O645   S657    1.681   .     S
O646   S658    1.501   .     D
O647   S658    1.496   .     D
O648   S658    1.680   .     S
O649   Zn660   1.961   .     S
O650   Zn660   1.970   .     S
O651   Zn659   1.970   .     S
O652   Zn659   1.933   .     S
O652   C686    1.308   .     S
O653   Zn660   1.933   .     S
O654   Zn660   1.884   .     S
O655   Zn659   1.884   .     S
O656   S657    1.497   .     D
C661   O710    1.297   .     A
C661   C684    1.399   .     S
C662   C664    1.472   .     S
C662   O715    1.312   .     A
C662   O593    1.312   1_655 S
C663   C669    1.398   .     A
C663   C667    1.400   .     A
C663   C686    1.457   .     S
C664   C670    1.417   .     A
C664   C548    1.401   1_655 S
C665   H694    1.084   .     S
C665   C674    1.402   .     A
C665   C667    1.392   .     A
C666   C675    1.397   .     A
C666   C548    1.388   1_655 S
C666   H35     1.084   1_655 S
C668   H692    1.084   .     S
C669   C671    1.411   .     A
C669   C679    1.452   .     S
C670   C673    1.421   .     A
C670   C678    1.453   .     S
C671   C674    1.420   .     A
C671   C676    1.418   .     A
C672   C685    1.399   .     S
C672   O711    1.297   .     A
C672   O589    1.293   1_655 S
C673   C675    1.422   .     A
C673   C677    1.424   .     A
C674   C142    1.395   1_556 S
C676   C681    1.410   .     A
C676   C137    1.410   1_556 S
C677   C680    1.411   .     A
C678   N701    1.158   .     T
C679   N702    1.158   .     T
C680   C682    1.390   .     A
C680   H696    1.080   .     S
C681   C683    1.388   .     A
C681   H697    1.081   .     S
C682   H687    1.084   .     S
C683   H691    1.084   .     S
C683   C135    1.396   1_556 S
C684   C805    1.330   .     S
C684   H878    1.086   .     S
C685   C924    1.330   1_645 S
C685   H1048   1.086   1_545 S
C686   O714    1.309   .     A
H688   C865    1.086   .     S
H689   O705    0.991   .     S
H690   O708    0.991   .     S
H693   C547    1.083   1_655 S
H695   C66     1.084   1_556 S
H698   C1044   1.086   1_545 S
N699   Zn720   2.052   .     S
N699   N700    1.284   .     D
N699   S717    1.731   .     S
N700   Zn719   2.052   .     S
N700   S718    1.733   .     S
O703   Zn719   1.961   .     S
O703   C541    1.293   1_655 S
O704   S717    1.502   .     D
O705   S717    1.681   .     S
O706   S718    1.501   .     D
O707   S718    1.496   .     D
O708   S718    1.680   .     S
O709   Zn720   1.961   .     S
O710   Zn720   1.970   .     S
O711   Zn719   1.970   .     S
O712   Zn719   1.933   .     S
O712   C566    1.308   1_655 S
O713   Zn720   1.933   .     S
O714   Zn720   1.884   .     S
O715   Zn719   1.884   .     S
O716   S717    1.497   .     D
C721   O770    1.297   .     A
C721   C744    1.399   .     S
C721   O883    1.293   1_455 S
C722   C724    1.472   .     S
C722   O775    1.312   .     A
C722   O833    1.312   .     S
C723   C729    1.398   .     A
C723   C727    1.400   .     A
C723   C746    1.457   .     S
C724   C730    1.417   .     A
C724   C788    1.401   .     S
C725   H754    1.084   .     S
C725   C734    1.402   .     A
C725   C727    1.392   .     A
C726   C735    1.397   .     A
C726   C788    1.388   .     S
C727   H873    1.083   1_455 S
C728   H752    1.084   .     S
C728   C844    1.401   1_455 S
C728   C846    1.388   1_455 S
C729   C731    1.411   .     A
C729   C739    1.452   .     S
C730   C733    1.421   .     A
C730   C738    1.453   .     S
C731   C734    1.420   .     A
C731   C736    1.418   .     A
C732   C745    1.399   .     S
C732   O771    1.297   .     A
C732   O829    1.293   .     S
C733   C735    1.422   .     A
C733   C737    1.424   .     A
C734   C202    1.395   1_556 S
C736   C741    1.410   .     A
C736   C197    1.410   1_556 S
C737   C740    1.411   .     A
C738   N761    1.158   .     T
C739   N762    1.158   .     T
C740   C742    1.390   .     A
C740   H756    1.080   .     S
C741   C743    1.388   .     A
C741   H757    1.081   .     S
C742   H747    1.084   .     S
C743   H751    1.084   .     S
C743   C195    1.396   1_556 S
C744   C1045   1.330   1_455 S
C744   H938    1.086   .     S
C746   O774    1.309   .     A
C746   O892    1.308   1_455 S
H748   C925    1.086   .     S
H749   O765    0.991   .     S
H750   O768    0.991   .     S
H753   C787    1.083   .     S
H755   C306    1.084   1_456 S
N759   Zn780   2.052   .     S
N759   N760    1.284   .     D
N759   S777    1.731   .     S
N760   Zn779   2.052   .     S
N760   S778    1.733   .     S
O763   Zn779   1.961   .     S
O763   C781    1.293   .     S
O764   S777    1.502   .     D
O765   S777    1.681   .     S
O766   S778    1.501   .     D
O767   S778    1.496   .     D
O768   S778    1.680   .     S
O769   Zn780   1.961   .     S
O769   C852    1.293   1_455 S
O770   Zn780   1.970   .     S
O771   Zn779   1.970   .     S
O772   Zn779   1.933   .     S
O772   C806    1.308   .     S
O773   Zn780   1.933   .     S
O773   C842    1.312   1_455 S
O774   Zn780   1.884   .     S
O775   Zn779   1.884   .     S
O776   S777    1.497   .     D
C781   O830    1.297   .     A
C781   C804    1.399   .     S
C782   C784    1.472   .     S
C782   O835    1.312   .     A
C782   O893    1.312   .     S
C783   C789    1.398   .     A
C783   C787    1.400   .     A
C783   C806    1.457   .     S
C784   C790    1.417   .     A
C784   C848    1.401   .     S
C785   H814    1.084   .     S
C785   C794    1.402   .     A
C785   C787    1.392   .     A
C786   C795    1.397   .     A
C786   C848    1.388   .     S
C788   H812    1.084   .     S
C789   C791    1.411   .     A
C789   C799    1.452   .     S
C790   C793    1.421   .     A
C790   C798    1.453   .     S
C791   C794    1.420   .     A
C791   C796    1.418   .     A
C792   C805    1.399   .     S
C792   O831    1.297   .     A
C792   O889    1.293   .     S
C793   C795    1.422   .     A
C793   C797    1.424   .     A
C794   C262    1.395   1_556 S
C796   C801    1.410   .     A
C796   C257    1.410   1_556 S
C797   C800    1.411   .     A
C798   N821    1.158   .     T
C799   N822    1.158   .     T
C800   C802    1.390   .     A
C800   H816    1.080   .     S
C801   C803    1.388   .     A
C801   H817    1.081   .     S
C802   H807    1.084   .     S
C803   H811    1.084   .     S
C803   C255    1.396   1_556 S
C804   C925    1.330   .     S
C804   H998    1.086   .     S
C806   O834    1.309   .     A
H808   C985    1.086   .     S
H809   O825    0.991   .     S
H810   O828    0.991   .     S
H813   C847    1.083   .     S
H815   C186    1.084   1_556 S
N819   Zn840   2.052   .     S
N819   N820    1.284   .     D
N819   S837    1.731   .     S
N820   Zn839   2.052   .     S
N820   S838    1.733   .     S
O823   Zn839   1.961   .     S
O823   C841    1.293   .     S
O824   S837    1.502   .     D
O825   S837    1.681   .     S
O826   S838    1.501   .     D
O827   S838    1.496   .     D
O828   S838    1.680   .     S
O829   Zn840   1.961   .     S
O830   Zn840   1.970   .     S
O831   Zn839   1.970   .     S
O832   Zn839   1.933   .     S
O832   C866    1.308   .     S
O833   Zn840   1.933   .     S
O834   Zn840   1.884   .     S
O835   Zn839   1.884   .     S
O836   S837    1.497   .     D
C841   O890    1.297   .     A
C841   C864    1.399   .     S
C842   C844    1.472   .     S
C842   O895    1.312   .     A
C842   O773    1.312   1_655 S
C843   C849    1.398   .     A
C843   C847    1.400   .     A
C843   C866    1.457   .     S
C844   C850    1.417   .     A
C844   C728    1.401   1_655 S
C845   H874    1.084   .     S
C845   C854    1.402   .     A
C845   C847    1.392   .     A
C846   C855    1.397   .     A
C846   C728    1.388   1_655 S
C846   H215    1.084   1_655 S
C848   H872    1.084   .     S
C849   C851    1.411   .     A
C849   C859    1.452   .     S
C850   C853    1.421   .     A
C850   C858    1.453   .     S
C851   C854    1.420   .     A
C851   C856    1.418   .     A
C852   C865    1.399   .     S
C852   O891    1.297   .     A
C852   O769    1.293   1_655 S
C853   C855    1.422   .     A
C853   C857    1.424   .     A
C854   C322    1.395   1_556 S
C856   C861    1.410   .     A
C856   C317    1.410   1_556 S
C857   C860    1.411   .     A
C858   N881    1.158   .     T
C859   N882    1.158   .     T
C860   C862    1.390   .     A
C860   H876    1.080   .     S
C861   C863    1.388   .     A
C861   H877    1.081   .     S
C862   H867    1.084   .     S
C863   H871    1.084   .     S
C863   C315    1.396   1_556 S
C864   C985    1.330   .     S
C864   H1058   1.086   .     S
C865   C564    1.330   1_655 S
C866   O894    1.309   .     A
H868   C1045   1.086   .     S
H869   O885    0.991   .     S
H870   O888    0.991   .     S
H873   C727    1.083   1_655 S
H875   C246    1.084   1_556 S
N879   Zn900   2.052   .     S
N879   N880    1.284   .     D
N879   S897    1.731   .     S
N880   Zn899   2.052   .     S
N880   S898    1.733   .     S
O883   Zn899   1.961   .     S
O883   C721    1.293   1_655 S
O884   S897    1.502   .     D
O885   S897    1.681   .     S
O886   S898    1.501   .     D
O887   S898    1.496   .     D
O888   S898    1.680   .     S
O889   Zn900   1.961   .     S
O890   Zn900   1.970   .     S
O891   Zn899   1.970   .     S
O892   Zn899   1.933   .     S
O892   C746    1.308   1_655 S
O893   Zn900   1.933   .     S
O894   Zn900   1.884   .     S
O895   Zn899   1.884   .     S
O896   S897    1.497   .     D
C901   O950    1.297   .     A
C901   C924    1.399   .     S
C901   O1063   1.293   1_455 S
C902   C904    1.472   .     S
C902   O955    1.312   .     A
C902   O1013   1.312   .     S
C903   C909    1.398   .     A
C903   C907    1.400   .     A
C903   C926    1.457   .     S
C904   C910    1.417   .     A
C904   C968    1.401   .     S
C905   H934    1.084   .     S
C905   C914    1.402   .     A
C905   C907    1.392   .     A
C906   C915    1.397   .     A
C906   C968    1.388   .     S
C907   H1053   1.083   1_455 S
C908   H932    1.084   .     S
C908   C1024   1.401   1_455 S
C908   C1026   1.388   1_455 S
C909   C911    1.411   .     A
C909   C919    1.452   .     S
C910   C913    1.421   .     A
C910   C918    1.453   .     S
C911   C914    1.420   .     A
C911   C916    1.418   .     A
C912   C925    1.399   .     S
C912   O951    1.297   .     A
C912   O1009   1.293   .     S
C913   C915    1.422   .     A
C913   C917    1.424   .     A
C914   C382    1.395   1_556 S
C916   C921    1.410   .     A
C916   C377    1.410   1_556 S
C917   C920    1.411   .     A
C918   N941    1.158   .     T
C919   N942    1.158   .     T
C920   C922    1.390   .     A
C920   H936    1.080   .     S
C921   C923    1.388   .     A
C921   H937    1.081   .     S
C922   H927    1.084   .     S
C923   H931    1.084   .     S
C923   C375    1.396   1_556 S
C924   C685    1.330   1_465 S
C924   H578    1.086   1_565 S
C926   O954    1.309   .     A
C926   O1072   1.308   1_455 S
H928   C565    1.086   1_565 S
H929   O945    0.991   .     S
H930   O948    0.991   .     S
H933   C967    1.083   .     S
H935   C486    1.084   1_456 S
N939   Zn960   2.052   .     S
N939   N940    1.284   .     D
N939   S957    1.731   .     S
N940   Zn959   2.052   .     S
N940   S958    1.733   .     S
O943   Zn959   1.961   .     S
O943   C961    1.293   .     S
O944   S957    1.502   .     D
O945   S957    1.681   .     S
O946   S958    1.501   .     D
O947   S958    1.496   .     D
O948   S958    1.680   .     S
O949   Zn960   1.961   .     S
O949   C1032   1.293   1_455 S
O950   Zn960   1.970   .     S
O951   Zn959   1.970   .     S
O952   Zn959   1.933   .     S
O952   C986    1.308   .     S
O953   Zn960   1.933   .     S
O953   C1022   1.312   1_455 S
O954   Zn960   1.884   .     S
O955   Zn959   1.884   .     S
O956   S957    1.497   .     D
C961   O1010   1.297   .     A
C961   C984    1.399   .     S
C962   C964    1.472   .     S
C962   O1015   1.312   .     A
C962   O1073   1.312   .     S
C963   C969    1.398   .     A
C963   C967    1.400   .     A
C963   C986    1.457   .     S
C964   C970    1.417   .     A
C964   C1028   1.401   .     S
C965   H994    1.084   .     S
C965   C974    1.402   .     A
C965   C967    1.392   .     A
C966   C975    1.397   .     A
C966   C1028   1.388   .     S
C968   H992    1.084   .     S
C969   C971    1.411   .     A
C969   C979    1.452   .     S
C970   C973    1.421   .     A
C970   C978    1.453   .     S
C971   C974    1.420   .     A
C971   C976    1.418   .     A
C972   C985    1.399   .     S
C972   O1011   1.297   .     A
C972   O1069   1.293   .     S
C973   C975    1.422   .     A
C973   C977    1.424   .     A
C974   C442    1.395   1_556 S
C976   C981    1.410   .     A
C976   C437    1.410   1_556 S
C977   C980    1.411   .     A
C978   N1001   1.158   .     T
C979   N1002   1.158   .     T
C980   C982    1.390   .     A
C980   H996    1.080   .     S
C981   C983    1.388   .     A
C981   H997    1.081   .     S
C982   H987    1.084   .     S
C983   H991    1.084   .     S
C983   C435    1.396   1_556 S
C984   C565    1.330   1_565 S
C984   H638    1.086   1_565 S
C986   O1014   1.309   .     A
H988   C625    1.086   1_565 S
H989   O1005   0.991   .     S
H990   O1008   0.991   .     S
H993   C1027   1.083   .     S
H995   C366    1.084   1_556 S
N999   Zn1020  2.052   .     S
N999   N1000   1.284   .     D
N999   S1017   1.731   .     S
N1000  Zn1019  2.052   .     S
N1000  S1018   1.733   .     S
O1003  Zn1019  1.961   .     S
O1003  C1021   1.293   .     S
O1004  S1017   1.502   .     D
O1005  S1017   1.681   .     S
O1006  S1018   1.501   .     D
O1007  S1018   1.496   .     D
O1008  S1018   1.680   .     S
O1009  Zn1020  1.961   .     S
O1010  Zn1020  1.970   .     S
O1011  Zn1019  1.970   .     S
O1012  Zn1019  1.933   .     S
O1012  C1046   1.308   .     S
O1013  Zn1020  1.933   .     S
O1014  Zn1020  1.884   .     S
O1015  Zn1019  1.884   .     S
O1016  S1017   1.497   .     D
C1021  O1070   1.297   .     A
C1021  C1044   1.399   .     S
C1022  C1024   1.472   .     S
C1022  O1075   1.312   .     A
C1022  O953    1.312   1_655 S
C1023  C1029   1.398   .     A
C1023  C1027   1.400   .     A
C1023  C1046   1.457   .     S
C1024  C1030   1.417   .     A
C1024  C908    1.401   1_655 S
C1025  H1054   1.084   .     S
C1025  C1034   1.402   .     A
C1025  C1027   1.392   .     A
C1026  C1035   1.397   .     A
C1026  C908    1.388   1_655 S
C1026  H395    1.084   1_655 S
C1028  H1052   1.084   .     S
C1029  C1031   1.411   .     A
C1029  C1039   1.452   .     S
C1030  C1033   1.421   .     A
C1030  C1038   1.453   .     S
C1031  C1034   1.420   .     A
C1031  C1036   1.418   .     A
C1032  C1045   1.399   .     S
C1032  O1071   1.297   .     A
C1032  O949    1.293   1_655 S
C1033  C1035   1.422   .     A
C1033  C1037   1.424   .     A
C1034  C502    1.395   1_556 S
C1036  C1041   1.410   .     A
C1036  C497    1.410   1_556 S
C1037  C1040   1.411   .     A
C1038  N1061   1.158   .     T
C1039  N1062   1.158   .     T
C1040  C1042   1.390   .     A
C1040  H1056   1.080   .     S
C1041  C1043   1.388   .     A
C1041  H1057   1.081   .     S
C1042  H1047   1.084   .     S
C1043  H1051   1.084   .     S
C1043  C495    1.396   1_556 S
C1044  C625    1.330   1_565 S
C1044  H698    1.086   1_565 S
C1045  C744    1.330   1_655 S
C1046  O1074   1.309   .     A
H1048  C685    1.086   1_565 S
H1049  O1065   0.991   .     S
H1050  O1068   0.991   .     S
H1053  C907    1.083   1_655 S
H1055  C426    1.084   1_556 S
N1059  Zn1080  2.052   .     S
N1059  N1060   1.284   .     D
N1059  S1077   1.731   .     S
N1060  Zn1079  2.052   .     S
N1060  S1078   1.733   .     S
O1063  Zn1079  1.961   .     S
O1063  C901    1.293   1_655 S
O1064  S1077   1.502   .     D
O1065  S1077   1.681   .     S
O1066  S1078   1.501   .     D
O1067  S1078   1.496   .     D
O1068  S1078   1.680   .     S
O1069  Zn1080  1.961   .     S
O1070  Zn1080  1.970   .     S
O1071  Zn1079  1.970   .     S
O1072  Zn1079  1.933   .     S
O1072  C926    1.308   1_655 S
O1073  Zn1080  1.933   .     S
O1074  Zn1080  1.884   .     S
O1075  Zn1079  1.884   .     S
O1076  S1077   1.497   .     D
