data_str_m2_o1_o10_pcu_sym.72
_audit_creation_date              2020-01-03
_audit_creation_method            'Materials Studio'
_symmetry_space_group_name_H-M    'P1'
_symmetry_Int_Tables_number       1
_symmetry_cell_setting            triclinic
loop_
_symmetry_equiv_pos_as_xyz
  x,y,z
_cell_length_a                    26.2929
_cell_length_b                    32.6637
_cell_length_c                    28.6463
_cell_angle_alpha                 89.4707
_cell_angle_beta                  98.4437
_cell_angle_gamma                 89.6141
loop_
_atom_site_label
_atom_site_type_symbol
_atom_site_fract_x
_atom_site_fract_y
_atom_site_fract_z
_atom_site_U_iso_or_equiv
_atom_site_adp_type
_atom_site_occupancy
C1     C     0.16559   0.08743   0.16687   0.00000  Uiso   1.00
C2     C     0.16786   0.02033   0.21011   0.00000  Uiso   1.00
C3     C     0.16299   0.29067   0.16559   0.00000  Uiso   1.00
C4     C     0.16345   0.04287   0.16744   0.00000  Uiso   1.00
C5     C     0.13094   0.14425   0.02044   0.00000  Uiso   1.00
C6     C     0.20382   0.18725   0.31324   0.00000  Uiso   1.00
C7     C     0.13115   0.14507   0.30364   0.00000  Uiso   1.00
C8     C     0.20310   0.18739   0.02964   0.00000  Uiso   1.00
C9     C     0.18852   0.29569   0.05626   0.00000  Uiso   1.00
C10    C     0.17113   0.28693   0.00457   0.00000  Uiso   1.00
C11    C     0.22035   0.03875   0.27657   0.00000  Uiso   1.00
C12    C     0.16519   0.24596   0.16622   0.00000  Uiso   1.00
C13    C     0.22283   0.05990   0.32393   0.00000  Uiso   1.00
C14    C     0.07497   0.08797   0.01681   0.00000  Uiso   1.00
C15    C     0.02573   0.09803   0.31585   0.00000  Uiso   1.00
C16    C     0.01939   0.06946   0.27349   0.00000  Uiso   1.00
C17    C     0.28987   0.20407   0.31410   0.00000  Uiso   1.00
C18    C     0.31301   0.24359   0.00253   0.00000  Uiso   1.00
C19    C     0.03679   0.23810   0.02093   0.00000  Uiso   1.00
C20    C     0.06789   0.16661   0.15446   0.00000  Uiso   1.00
C21    C     0.26545   0.16642   0.17882   0.00000  Uiso   1.00
C22    C     0.01251   0.16674   0.14777   0.00000  Uiso   1.00
C23    C     0.32084   0.16581   0.18529   0.00000  Uiso   1.00
C24    C     0.15651   0.02244   0.12437   0.00000  Uiso   1.00
C25    C     0.16705   0.31116   0.20858   0.00000  Uiso   1.00
C26    C     0.15677   0.31325   0.12301   0.00000  Uiso   1.00
Cu27   Cu    0.16667   0.16667   0.21355   0.00000  Uiso   1.00
Cu28   Cu    0.16667   0.16666   0.11978   0.00000  Uiso   1.00
H29    H     0.32559   0.16782   0.11183   0.00000  Uiso   1.00
H30    H     0.20534   0.28296   0.31997   0.00000  Uiso   1.00
H31    H     0.14794   0.25862   0.00065   0.00000  Uiso   1.00
H32    H     0.24573   0.05527   0.25523   0.00000  Uiso   1.00
H33    H     0.23493   0.00686   0.28302   0.00000  Uiso   1.00
H34    H     0.19046   0.05014   0.00874   0.00000  Uiso   1.00
H35    H     0.25930   0.05162   0.01348   0.00000  Uiso   1.00
H36    H     0.22097   0.09358   0.31873   0.00000  Uiso   1.00
H37    H     0.06505   0.06531   0.04312   0.00000  Uiso   1.00
H38    H     0.10479   0.07246   0.33259   0.00000  Uiso   1.00
H39    H     0.32526   0.09577   0.00136   0.00000  Uiso   1.00
H40    H     0.00794   0.16445   0.22106   0.00000  Uiso   1.00
H41    H     0.02627   0.13009   0.30287   0.00000  Uiso   1.00
H42    H     0.05522   0.06776   0.25732   0.00000  Uiso   1.00
H43    H     0.32202   0.08154   0.24605   0.00000  Uiso   1.00
H44    H     0.00933   0.03822   0.28453   0.00000  Uiso   1.00
H45    H     0.31192   0.19515   0.28564   0.00000  Uiso   1.00
H46    H     0.29527   0.17858   0.00731   0.00000  Uiso   1.00
H47    H     0.30812   0.26847   0.30878   0.00000  Uiso   1.00
H48    H     0.29271   0.25286   0.03213   0.00000  Uiso   1.00
H49    H     0.04246   0.21405   0.04885   0.00000  Uiso   1.00
H50    H     0.05251   0.26732   0.03610   0.00000  Uiso   1.00
H51    H     0.15052   0.03935   0.09128   0.00000  Uiso   1.00
H52    H     0.05811   0.22928   0.32510   0.00000  Uiso   1.00
H53    H     0.16969   0.29420   0.24133   0.00000  Uiso   1.00
H54    H     0.10361   0.12844   0.27978   0.00000  Uiso   1.00
H55    H     0.23138   0.20452   0.05247   0.00000  Uiso   1.00
H56    H     0.21709   0.27219   0.07135   0.00000  Uiso   1.00
H57    H     0.20794   0.32594   0.05861   0.00000  Uiso   1.00
H58    H     0.14713   0.31274   0.32130   0.00000  Uiso   1.00
N59    N     0.16668   0.16668   0.28403   0.00000  Uiso   1.00
N60    N     0.16665   0.16666   0.04931   0.00000  Uiso   1.00
O61    O     0.16666   0.10655   0.20625   0.00000  Uiso   1.00
O62    O     0.16925   0.03948   0.25316   0.00000  Uiso   1.00
O63    O     0.09391   0.12338   0.04144   0.00000  Uiso   1.00
O64    O     0.23828   0.21125   0.29310   0.00000  Uiso   1.00
O65    O     0.16667   0.22678   0.12709   0.00000  Uiso   1.00
O66    O     0.16666   0.10654   0.12706   0.00000  Uiso   1.00
O67    O     0.16667   0.22679   0.20628   0.00000  Uiso   1.00
O68    O     0.09161   0.16667   0.19712   0.00000  Uiso   1.00
O69    O     0.24172   0.16666   0.13621   0.00000  Uiso   1.00
O70    O     0.09161   0.16666   0.11793   0.00000  Uiso   1.00
O71    O     0.24172   0.16667   0.21540   0.00000  Uiso   1.00
O72    O     0.14525   0.29424   0.08002   0.00000  Uiso   1.00
C73    C     0.49892   0.08743   0.16687   0.00000  Uiso   1.00
C74    C     0.50119   0.02033   0.21011   0.00000  Uiso   1.00
C75    C     0.49632   0.29067   0.16559   0.00000  Uiso   1.00
C76    C     0.49678   0.04287   0.16744   0.00000  Uiso   1.00
C77    C     0.46427   0.14425   0.02044   0.00000  Uiso   1.00
C78    C     0.53715   0.18725   0.31324   0.00000  Uiso   1.00
C79    C     0.46448   0.14507   0.30364   0.00000  Uiso   1.00
C80    C     0.53643   0.18739   0.02964   0.00000  Uiso   1.00
C81    C     0.52185   0.29569   0.05626   0.00000  Uiso   1.00
C82    C     0.50447   0.28693   0.00457   0.00000  Uiso   1.00
C83    C     0.55368   0.03875   0.27657   0.00000  Uiso   1.00
C84    C     0.49852   0.24596   0.16622   0.00000  Uiso   1.00
C85    C     0.55616   0.05990   0.32393   0.00000  Uiso   1.00
C86    C     0.40830   0.08797   0.01681   0.00000  Uiso   1.00
C87    C     0.35906   0.09803   0.31585   0.00000  Uiso   1.00
C88    C     0.35272   0.06946   0.27349   0.00000  Uiso   1.00
C89    C     0.62321   0.20407   0.31410   0.00000  Uiso   1.00
C90    C     0.64634   0.24359   0.00253   0.00000  Uiso   1.00
C91    C     0.37012   0.23810   0.02093   0.00000  Uiso   1.00
C92    C     0.40122   0.16661   0.15446   0.00000  Uiso   1.00
C93    C     0.59878   0.16642   0.17882   0.00000  Uiso   1.00
C94    C     0.34584   0.16674   0.14777   0.00000  Uiso   1.00
C95    C     0.65417   0.16581   0.18529   0.00000  Uiso   1.00
C96    C     0.48984   0.02244   0.12437   0.00000  Uiso   1.00
C97    C     0.50038   0.31116   0.20858   0.00000  Uiso   1.00
C98    C     0.49010   0.31325   0.12301   0.00000  Uiso   1.00
Cu99   Cu    0.50000   0.16667   0.21355   0.00000  Uiso   1.00
Cu100  Cu    0.50000   0.16666   0.11978   0.00000  Uiso   1.00
H101   H     0.65893   0.16782   0.11183   0.00000  Uiso   1.00
H102   H     0.53867   0.28296   0.31997   0.00000  Uiso   1.00
H103   H     0.48127   0.25862   0.00065   0.00000  Uiso   1.00
H104   H     0.57906   0.05527   0.25523   0.00000  Uiso   1.00
H105   H     0.56827   0.00686   0.28302   0.00000  Uiso   1.00
H106   H     0.52379   0.05014   0.00874   0.00000  Uiso   1.00
H107   H     0.59263   0.05162   0.01348   0.00000  Uiso   1.00
H108   H     0.55430   0.09358   0.31873   0.00000  Uiso   1.00
H109   H     0.39838   0.06531   0.04312   0.00000  Uiso   1.00
H110   H     0.43812   0.07246   0.33259   0.00000  Uiso   1.00
H111   H     0.65859   0.09577   0.00136   0.00000  Uiso   1.00
H112   H     0.34127   0.16445   0.22106   0.00000  Uiso   1.00
H113   H     0.35960   0.13009   0.30287   0.00000  Uiso   1.00
H114   H     0.38856   0.06776   0.25732   0.00000  Uiso   1.00
H115   H     0.65536   0.08154   0.24605   0.00000  Uiso   1.00
H116   H     0.34267   0.03822   0.28453   0.00000  Uiso   1.00
H117   H     0.64525   0.19515   0.28564   0.00000  Uiso   1.00
H118   H     0.62860   0.17858   0.00731   0.00000  Uiso   1.00
H119   H     0.64145   0.26847   0.30878   0.00000  Uiso   1.00
H120   H     0.62604   0.25286   0.03213   0.00000  Uiso   1.00
H121   H     0.37579   0.21405   0.04885   0.00000  Uiso   1.00
H122   H     0.38585   0.26732   0.03610   0.00000  Uiso   1.00
H123   H     0.48385   0.03935   0.09128   0.00000  Uiso   1.00
H124   H     0.39145   0.22928   0.32510   0.00000  Uiso   1.00
H125   H     0.50302   0.29420   0.24133   0.00000  Uiso   1.00
H126   H     0.43694   0.12844   0.27978   0.00000  Uiso   1.00
H127   H     0.56472   0.20452   0.05247   0.00000  Uiso   1.00
H128   H     0.55042   0.27219   0.07135   0.00000  Uiso   1.00
H129   H     0.54128   0.32594   0.05861   0.00000  Uiso   1.00
H130   H     0.48046   0.31274   0.32130   0.00000  Uiso   1.00
N131   N     0.50001   0.16668   0.28403   0.00000  Uiso   1.00
N132   N     0.49999   0.16666   0.04931   0.00000  Uiso   1.00
O133   O     0.50000   0.10655   0.20625   0.00000  Uiso   1.00
O134   O     0.50259   0.03948   0.25316   0.00000  Uiso   1.00
O135   O     0.42724   0.12338   0.04144   0.00000  Uiso   1.00
O136   O     0.57161   0.21125   0.29310   0.00000  Uiso   1.00
O137   O     0.50000   0.22678   0.12709   0.00000  Uiso   1.00
O138   O     0.50000   0.10654   0.12706   0.00000  Uiso   1.00
O139   O     0.50000   0.22679   0.20628   0.00000  Uiso   1.00
O140   O     0.42495   0.16667   0.19712   0.00000  Uiso   1.00
O141   O     0.57505   0.16666   0.13621   0.00000  Uiso   1.00
O142   O     0.42494   0.16666   0.11793   0.00000  Uiso   1.00
O143   O     0.57506   0.16667   0.21540   0.00000  Uiso   1.00
O144   O     0.47858   0.29424   0.08002   0.00000  Uiso   1.00
C145   C     0.83226   0.08743   0.16687   0.00000  Uiso   1.00
C146   C     0.83453   0.02033   0.21011   0.00000  Uiso   1.00
C147   C     0.82965   0.29067   0.16559   0.00000  Uiso   1.00
C148   C     0.83011   0.04287   0.16744   0.00000  Uiso   1.00
C149   C     0.79760   0.14425   0.02044   0.00000  Uiso   1.00
C150   C     0.87049   0.18725   0.31324   0.00000  Uiso   1.00
C151   C     0.79781   0.14507   0.30364   0.00000  Uiso   1.00
C152   C     0.86976   0.18739   0.02964   0.00000  Uiso   1.00
C153   C     0.85518   0.29569   0.05626   0.00000  Uiso   1.00
C154   C     0.83780   0.28693   0.00457   0.00000  Uiso   1.00
C155   C     0.88701   0.03875   0.27657   0.00000  Uiso   1.00
C156   C     0.83185   0.24596   0.16622   0.00000  Uiso   1.00
C157   C     0.88950   0.05990   0.32393   0.00000  Uiso   1.00
C158   C     0.74163   0.08797   0.01681   0.00000  Uiso   1.00
C159   C     0.69240   0.09803   0.31585   0.00000  Uiso   1.00
C160   C     0.68606   0.06946   0.27349   0.00000  Uiso   1.00
C161   C     0.95654   0.20407   0.31410   0.00000  Uiso   1.00
C162   C     0.97967   0.24359   0.00253   0.00000  Uiso   1.00
C163   C     0.70346   0.23810   0.02093   0.00000  Uiso   1.00
C164   C     0.73456   0.16661   0.15446   0.00000  Uiso   1.00
C165   C     0.93212   0.16642   0.17882   0.00000  Uiso   1.00
C166   C     0.67917   0.16674   0.14777   0.00000  Uiso   1.00
C167   C     0.98750   0.16581   0.18529   0.00000  Uiso   1.00
C168   C     0.82318   0.02244   0.12437   0.00000  Uiso   1.00
C169   C     0.83372   0.31116   0.20858   0.00000  Uiso   1.00
C170   C     0.82343   0.31325   0.12301   0.00000  Uiso   1.00
Cu171  Cu    0.83333   0.16667   0.21355   0.00000  Uiso   1.00
Cu172  Cu    0.83333   0.16666   0.11978   0.00000  Uiso   1.00
H173   H     0.99226   0.16782   0.11183   0.00000  Uiso   1.00
H174   H     0.87200   0.28296   0.31997   0.00000  Uiso   1.00
H175   H     0.81460   0.25862   0.00065   0.00000  Uiso   1.00
H176   H     0.91239   0.05527   0.25523   0.00000  Uiso   1.00
H177   H     0.90160   0.00686   0.28302   0.00000  Uiso   1.00
H178   H     0.85712   0.05014   0.00874   0.00000  Uiso   1.00
H179   H     0.92596   0.05162   0.01348   0.00000  Uiso   1.00
H180   H     0.88763   0.09358   0.31873   0.00000  Uiso   1.00
H181   H     0.73171   0.06531   0.04312   0.00000  Uiso   1.00
H182   H     0.77145   0.07246   0.33259   0.00000  Uiso   1.00
H183   H     0.99192   0.09577   0.00136   0.00000  Uiso   1.00
H184   H     0.67460   0.16445   0.22106   0.00000  Uiso   1.00
H185   H     0.69294   0.13009   0.30287   0.00000  Uiso   1.00
H186   H     0.72189   0.06776   0.25732   0.00000  Uiso   1.00
H187   H     0.98869   0.08154   0.24605   0.00000  Uiso   1.00
H188   H     0.67600   0.03822   0.28453   0.00000  Uiso   1.00
H189   H     0.97859   0.19515   0.28564   0.00000  Uiso   1.00
H190   H     0.96193   0.17858   0.00731   0.00000  Uiso   1.00
H191   H     0.97479   0.26847   0.30878   0.00000  Uiso   1.00
H192   H     0.95938   0.25286   0.03213   0.00000  Uiso   1.00
H193   H     0.70913   0.21405   0.04885   0.00000  Uiso   1.00
H194   H     0.71918   0.26732   0.03610   0.00000  Uiso   1.00
H195   H     0.81718   0.03935   0.09128   0.00000  Uiso   1.00
H196   H     0.72478   0.22928   0.32510   0.00000  Uiso   1.00
H197   H     0.83635   0.29420   0.24133   0.00000  Uiso   1.00
H198   H     0.77028   0.12844   0.27978   0.00000  Uiso   1.00
H199   H     0.89805   0.20452   0.05247   0.00000  Uiso   1.00
H200   H     0.88375   0.27219   0.07135   0.00000  Uiso   1.00
H201   H     0.87461   0.32594   0.05861   0.00000  Uiso   1.00
H202   H     0.81380   0.31274   0.32130   0.00000  Uiso   1.00
N203   N     0.83335   0.16668   0.28403   0.00000  Uiso   1.00
N204   N     0.83332   0.16666   0.04931   0.00000  Uiso   1.00
O205   O     0.83333   0.10655   0.20625   0.00000  Uiso   1.00
O206   O     0.83592   0.03948   0.25316   0.00000  Uiso   1.00
O207   O     0.76058   0.12338   0.04144   0.00000  Uiso   1.00
O208   O     0.90494   0.21125   0.29310   0.00000  Uiso   1.00
O209   O     0.83334   0.22678   0.12709   0.00000  Uiso   1.00
O210   O     0.83333   0.10654   0.12706   0.00000  Uiso   1.00
O211   O     0.83334   0.22679   0.20628   0.00000  Uiso   1.00
O212   O     0.75828   0.16667   0.19712   0.00000  Uiso   1.00
O213   O     0.90839   0.16666   0.13621   0.00000  Uiso   1.00
O214   O     0.75828   0.16666   0.11793   0.00000  Uiso   1.00
O215   O     0.90839   0.16667   0.21540   0.00000  Uiso   1.00
O216   O     0.81191   0.29424   0.08002   0.00000  Uiso   1.00
C217   C     0.16559   0.42076   0.16687   0.00000  Uiso   1.00
C218   C     0.16786   0.35366   0.21011   0.00000  Uiso   1.00
C219   C     0.16299   0.62400   0.16559   0.00000  Uiso   1.00
C220   C     0.16345   0.37620   0.16744   0.00000  Uiso   1.00
C221   C     0.13094   0.47758   0.02044   0.00000  Uiso   1.00
C222   C     0.20382   0.52059   0.31324   0.00000  Uiso   1.00
C223   C     0.13115   0.47840   0.30364   0.00000  Uiso   1.00
C224   C     0.20310   0.52072   0.02964   0.00000  Uiso   1.00
C225   C     0.18852   0.62903   0.05626   0.00000  Uiso   1.00
C226   C     0.17113   0.62026   0.00457   0.00000  Uiso   1.00
C227   C     0.22035   0.37209   0.27657   0.00000  Uiso   1.00
C228   C     0.16519   0.57930   0.16622   0.00000  Uiso   1.00
C229   C     0.22283   0.39323   0.32393   0.00000  Uiso   1.00
C230   C     0.07497   0.42130   0.01681   0.00000  Uiso   1.00
C231   C     0.02573   0.43136   0.31585   0.00000  Uiso   1.00
C232   C     0.01939   0.40280   0.27349   0.00000  Uiso   1.00
C233   C     0.28987   0.53740   0.31410   0.00000  Uiso   1.00
C234   C     0.31301   0.57692   0.00253   0.00000  Uiso   1.00
C235   C     0.03679   0.57143   0.02093   0.00000  Uiso   1.00
C236   C     0.06789   0.49994   0.15446   0.00000  Uiso   1.00
C237   C     0.26545   0.49975   0.17882   0.00000  Uiso   1.00
C238   C     0.01251   0.50007   0.14777   0.00000  Uiso   1.00
C239   C     0.32084   0.49915   0.18529   0.00000  Uiso   1.00
C240   C     0.15651   0.35577   0.12437   0.00000  Uiso   1.00
C241   C     0.16705   0.64450   0.20858   0.00000  Uiso   1.00
C242   C     0.15677   0.64659   0.12301   0.00000  Uiso   1.00
Cu243  Cu    0.16667   0.50001   0.21355   0.00000  Uiso   1.00
Cu244  Cu    0.16667   0.49999   0.11978   0.00000  Uiso   1.00
H245   H     0.32559   0.50115   0.11183   0.00000  Uiso   1.00
H246   H     0.20534   0.61629   0.31997   0.00000  Uiso   1.00
H247   H     0.14794   0.59195   0.00065   0.00000  Uiso   1.00
H248   H     0.24573   0.38861   0.25523   0.00000  Uiso   1.00
H249   H     0.23493   0.34020   0.28302   0.00000  Uiso   1.00
H250   H     0.19046   0.38347   0.00874   0.00000  Uiso   1.00
H251   H     0.25930   0.38495   0.01348   0.00000  Uiso   1.00
H252   H     0.22097   0.42692   0.31873   0.00000  Uiso   1.00
H253   H     0.06505   0.39865   0.04312   0.00000  Uiso   1.00
H254   H     0.10479   0.40580   0.33259   0.00000  Uiso   1.00
H255   H     0.32526   0.42910   0.00136   0.00000  Uiso   1.00
H256   H     0.00794   0.49778   0.22106   0.00000  Uiso   1.00
H257   H     0.02627   0.46342   0.30287   0.00000  Uiso   1.00
H258   H     0.05522   0.40109   0.25732   0.00000  Uiso   1.00
H259   H     0.32202   0.41488   0.24605   0.00000  Uiso   1.00
H260   H     0.00933   0.37155   0.28453   0.00000  Uiso   1.00
H261   H     0.31192   0.52848   0.28564   0.00000  Uiso   1.00
H262   H     0.29527   0.51191   0.00731   0.00000  Uiso   1.00
H263   H     0.30812   0.60180   0.30878   0.00000  Uiso   1.00
H264   H     0.29271   0.58619   0.03213   0.00000  Uiso   1.00
H265   H     0.04246   0.54738   0.04885   0.00000  Uiso   1.00
H266   H     0.05251   0.60065   0.03610   0.00000  Uiso   1.00
H267   H     0.15052   0.37268   0.09128   0.00000  Uiso   1.00
H268   H     0.05811   0.56262   0.32510   0.00000  Uiso   1.00
H269   H     0.16969   0.62754   0.24133   0.00000  Uiso   1.00
H270   H     0.10361   0.46178   0.27978   0.00000  Uiso   1.00
H271   H     0.23138   0.53785   0.05247   0.00000  Uiso   1.00
H272   H     0.21709   0.60553   0.07135   0.00000  Uiso   1.00
H273   H     0.20794   0.65927   0.05861   0.00000  Uiso   1.00
H274   H     0.14713   0.64608   0.32130   0.00000  Uiso   1.00
N275   N     0.16668   0.50001   0.28403   0.00000  Uiso   1.00
N276   N     0.16665   0.49999   0.04931   0.00000  Uiso   1.00
O277   O     0.16666   0.43989   0.20625   0.00000  Uiso   1.00
O278   O     0.16925   0.37281   0.25316   0.00000  Uiso   1.00
O279   O     0.09391   0.45672   0.04144   0.00000  Uiso   1.00
O280   O     0.23828   0.54458   0.29310   0.00000  Uiso   1.00
O281   O     0.16667   0.56011   0.12709   0.00000  Uiso   1.00
O282   O     0.16666   0.43988   0.12706   0.00000  Uiso   1.00
O283   O     0.16667   0.56012   0.20628   0.00000  Uiso   1.00
O284   O     0.09161   0.50000   0.19712   0.00000  Uiso   1.00
O285   O     0.24172   0.50000   0.13621   0.00000  Uiso   1.00
O286   O     0.09161   0.49999   0.11793   0.00000  Uiso   1.00
O287   O     0.24172   0.50001   0.21540   0.00000  Uiso   1.00
O288   O     0.14525   0.62758   0.08002   0.00000  Uiso   1.00
C289   C     0.49892   0.42076   0.16687   0.00000  Uiso   1.00
C290   C     0.50119   0.35366   0.21011   0.00000  Uiso   1.00
C291   C     0.49632   0.62400   0.16559   0.00000  Uiso   1.00
C292   C     0.49678   0.37620   0.16744   0.00000  Uiso   1.00
C293   C     0.46427   0.47758   0.02044   0.00000  Uiso   1.00
C294   C     0.53715   0.52059   0.31324   0.00000  Uiso   1.00
C295   C     0.46448   0.47840   0.30364   0.00000  Uiso   1.00
C296   C     0.53643   0.52072   0.02964   0.00000  Uiso   1.00
C297   C     0.52185   0.62903   0.05626   0.00000  Uiso   1.00
C298   C     0.50447   0.62026   0.00457   0.00000  Uiso   1.00
C299   C     0.55368   0.37209   0.27657   0.00000  Uiso   1.00
C300   C     0.49852   0.57930   0.16622   0.00000  Uiso   1.00
C301   C     0.55616   0.39323   0.32393   0.00000  Uiso   1.00
C302   C     0.40830   0.42130   0.01681   0.00000  Uiso   1.00
C303   C     0.35906   0.43136   0.31585   0.00000  Uiso   1.00
C304   C     0.35272   0.40280   0.27349   0.00000  Uiso   1.00
C305   C     0.62321   0.53740   0.31410   0.00000  Uiso   1.00
C306   C     0.64634   0.57692   0.00253   0.00000  Uiso   1.00
C307   C     0.37012   0.57143   0.02093   0.00000  Uiso   1.00
C308   C     0.40122   0.49994   0.15446   0.00000  Uiso   1.00
C309   C     0.59878   0.49975   0.17882   0.00000  Uiso   1.00
C310   C     0.34584   0.50007   0.14777   0.00000  Uiso   1.00
C311   C     0.65417   0.49915   0.18529   0.00000  Uiso   1.00
C312   C     0.48984   0.35577   0.12437   0.00000  Uiso   1.00
C313   C     0.50038   0.64450   0.20858   0.00000  Uiso   1.00
C314   C     0.49010   0.64659   0.12301   0.00000  Uiso   1.00
Cu315  Cu    0.50000   0.50001   0.21355   0.00000  Uiso   1.00
Cu316  Cu    0.50000   0.49999   0.11978   0.00000  Uiso   1.00
H317   H     0.65893   0.50115   0.11183   0.00000  Uiso   1.00
H318   H     0.53867   0.61629   0.31997   0.00000  Uiso   1.00
H319   H     0.48127   0.59195   0.00065   0.00000  Uiso   1.00
H320   H     0.57906   0.38861   0.25523   0.00000  Uiso   1.00
H321   H     0.56827   0.34020   0.28302   0.00000  Uiso   1.00
H322   H     0.52379   0.38347   0.00874   0.00000  Uiso   1.00
H323   H     0.59263   0.38495   0.01348   0.00000  Uiso   1.00
H324   H     0.55430   0.42692   0.31873   0.00000  Uiso   1.00
H325   H     0.39838   0.39865   0.04312   0.00000  Uiso   1.00
H326   H     0.43812   0.40580   0.33259   0.00000  Uiso   1.00
H327   H     0.65859   0.42910   0.00136   0.00000  Uiso   1.00
H328   H     0.34127   0.49778   0.22106   0.00000  Uiso   1.00
H329   H     0.35960   0.46342   0.30287   0.00000  Uiso   1.00
H330   H     0.38856   0.40109   0.25732   0.00000  Uiso   1.00
H331   H     0.65536   0.41488   0.24605   0.00000  Uiso   1.00
H332   H     0.34267   0.37155   0.28453   0.00000  Uiso   1.00
H333   H     0.64525   0.52848   0.28564   0.00000  Uiso   1.00
H334   H     0.62860   0.51191   0.00731   0.00000  Uiso   1.00
H335   H     0.64145   0.60180   0.30878   0.00000  Uiso   1.00
H336   H     0.62604   0.58619   0.03213   0.00000  Uiso   1.00
H337   H     0.37579   0.54738   0.04885   0.00000  Uiso   1.00
H338   H     0.38585   0.60065   0.03610   0.00000  Uiso   1.00
H339   H     0.48385   0.37268   0.09128   0.00000  Uiso   1.00
H340   H     0.39145   0.56262   0.32510   0.00000  Uiso   1.00
H341   H     0.50302   0.62754   0.24133   0.00000  Uiso   1.00
H342   H     0.43694   0.46178   0.27978   0.00000  Uiso   1.00
H343   H     0.56472   0.53785   0.05247   0.00000  Uiso   1.00
H344   H     0.55042   0.60553   0.07135   0.00000  Uiso   1.00
H345   H     0.54128   0.65927   0.05861   0.00000  Uiso   1.00
H346   H     0.48046   0.64608   0.32130   0.00000  Uiso   1.00
N347   N     0.50001   0.50001   0.28403   0.00000  Uiso   1.00
N348   N     0.49999   0.49999   0.04931   0.00000  Uiso   1.00
O349   O     0.50000   0.43989   0.20625   0.00000  Uiso   1.00
O350   O     0.50259   0.37281   0.25316   0.00000  Uiso   1.00
O351   O     0.42724   0.45672   0.04144   0.00000  Uiso   1.00
O352   O     0.57161   0.54458   0.29310   0.00000  Uiso   1.00
O353   O     0.50000   0.56011   0.12709   0.00000  Uiso   1.00
O354   O     0.50000   0.43988   0.12706   0.00000  Uiso   1.00
O355   O     0.50000   0.56012   0.20628   0.00000  Uiso   1.00
O356   O     0.42495   0.50000   0.19712   0.00000  Uiso   1.00
O357   O     0.57505   0.50000   0.13621   0.00000  Uiso   1.00
O358   O     0.42494   0.49999   0.11793   0.00000  Uiso   1.00
O359   O     0.57506   0.50001   0.21540   0.00000  Uiso   1.00
O360   O     0.47858   0.62758   0.08002   0.00000  Uiso   1.00
C361   C     0.83226   0.42076   0.16687   0.00000  Uiso   1.00
C362   C     0.83453   0.35366   0.21011   0.00000  Uiso   1.00
C363   C     0.82965   0.62400   0.16559   0.00000  Uiso   1.00
C364   C     0.83011   0.37620   0.16744   0.00000  Uiso   1.00
C365   C     0.79760   0.47758   0.02044   0.00000  Uiso   1.00
C366   C     0.87049   0.52059   0.31324   0.00000  Uiso   1.00
C367   C     0.79781   0.47840   0.30364   0.00000  Uiso   1.00
C368   C     0.86976   0.52072   0.02964   0.00000  Uiso   1.00
C369   C     0.85518   0.62903   0.05626   0.00000  Uiso   1.00
C370   C     0.83780   0.62026   0.00457   0.00000  Uiso   1.00
C371   C     0.88701   0.37209   0.27657   0.00000  Uiso   1.00
C372   C     0.83185   0.57930   0.16622   0.00000  Uiso   1.00
C373   C     0.88950   0.39323   0.32393   0.00000  Uiso   1.00
C374   C     0.74163   0.42130   0.01681   0.00000  Uiso   1.00
C375   C     0.69240   0.43136   0.31585   0.00000  Uiso   1.00
C376   C     0.68606   0.40280   0.27349   0.00000  Uiso   1.00
C377   C     0.95654   0.53740   0.31410   0.00000  Uiso   1.00
C378   C     0.97967   0.57692   0.00253   0.00000  Uiso   1.00
C379   C     0.70346   0.57143   0.02093   0.00000  Uiso   1.00
C380   C     0.73456   0.49994   0.15446   0.00000  Uiso   1.00
C381   C     0.93212   0.49975   0.17882   0.00000  Uiso   1.00
C382   C     0.67917   0.50007   0.14777   0.00000  Uiso   1.00
C383   C     0.98750   0.49915   0.18529   0.00000  Uiso   1.00
C384   C     0.82318   0.35577   0.12437   0.00000  Uiso   1.00
C385   C     0.83372   0.64450   0.20858   0.00000  Uiso   1.00
C386   C     0.82343   0.64659   0.12301   0.00000  Uiso   1.00
Cu387  Cu    0.83333   0.50001   0.21355   0.00000  Uiso   1.00
Cu388  Cu    0.83333   0.49999   0.11978   0.00000  Uiso   1.00
H389   H     0.99226   0.50115   0.11183   0.00000  Uiso   1.00
H390   H     0.87200   0.61629   0.31997   0.00000  Uiso   1.00
H391   H     0.81460   0.59195   0.00065   0.00000  Uiso   1.00
H392   H     0.91239   0.38861   0.25523   0.00000  Uiso   1.00
H393   H     0.90160   0.34020   0.28302   0.00000  Uiso   1.00
H394   H     0.85712   0.38347   0.00874   0.00000  Uiso   1.00
H395   H     0.92596   0.38495   0.01348   0.00000  Uiso   1.00
H396   H     0.88763   0.42692   0.31873   0.00000  Uiso   1.00
H397   H     0.73171   0.39865   0.04312   0.00000  Uiso   1.00
H398   H     0.77145   0.40580   0.33259   0.00000  Uiso   1.00
H399   H     0.99192   0.42910   0.00136   0.00000  Uiso   1.00
H400   H     0.67460   0.49778   0.22106   0.00000  Uiso   1.00
H401   H     0.69294   0.46342   0.30287   0.00000  Uiso   1.00
H402   H     0.72189   0.40109   0.25732   0.00000  Uiso   1.00
H403   H     0.98869   0.41488   0.24605   0.00000  Uiso   1.00
H404   H     0.67600   0.37155   0.28453   0.00000  Uiso   1.00
H405   H     0.97859   0.52848   0.28564   0.00000  Uiso   1.00
H406   H     0.96193   0.51191   0.00731   0.00000  Uiso   1.00
H407   H     0.97479   0.60180   0.30878   0.00000  Uiso   1.00
H408   H     0.95938   0.58619   0.03213   0.00000  Uiso   1.00
H409   H     0.70913   0.54738   0.04885   0.00000  Uiso   1.00
H410   H     0.71918   0.60065   0.03610   0.00000  Uiso   1.00
H411   H     0.81718   0.37268   0.09128   0.00000  Uiso   1.00
H412   H     0.72478   0.56262   0.32510   0.00000  Uiso   1.00
H413   H     0.83635   0.62754   0.24133   0.00000  Uiso   1.00
H414   H     0.77028   0.46178   0.27978   0.00000  Uiso   1.00
H415   H     0.89805   0.53785   0.05247   0.00000  Uiso   1.00
H416   H     0.88375   0.60553   0.07135   0.00000  Uiso   1.00
H417   H     0.87461   0.65927   0.05861   0.00000  Uiso   1.00
H418   H     0.81380   0.64608   0.32130   0.00000  Uiso   1.00
N419   N     0.83335   0.50001   0.28403   0.00000  Uiso   1.00
N420   N     0.83332   0.49999   0.04931   0.00000  Uiso   1.00
O421   O     0.83333   0.43989   0.20625   0.00000  Uiso   1.00
O422   O     0.83592   0.37281   0.25316   0.00000  Uiso   1.00
O423   O     0.76058   0.45672   0.04144   0.00000  Uiso   1.00
O424   O     0.90494   0.54458   0.29310   0.00000  Uiso   1.00
O425   O     0.83334   0.56011   0.12709   0.00000  Uiso   1.00
O426   O     0.83333   0.43988   0.12706   0.00000  Uiso   1.00
O427   O     0.83334   0.56012   0.20628   0.00000  Uiso   1.00
O428   O     0.75828   0.50000   0.19712   0.00000  Uiso   1.00
O429   O     0.90839   0.50000   0.13621   0.00000  Uiso   1.00
O430   O     0.75828   0.49999   0.11793   0.00000  Uiso   1.00
O431   O     0.90839   0.50001   0.21540   0.00000  Uiso   1.00
O432   O     0.81191   0.62758   0.08002   0.00000  Uiso   1.00
C433   C     0.16559   0.75410   0.16687   0.00000  Uiso   1.00
C434   C     0.16786   0.68700   0.21011   0.00000  Uiso   1.00
C435   C     0.16299   0.95733   0.16559   0.00000  Uiso   1.00
C436   C     0.16345   0.70953   0.16744   0.00000  Uiso   1.00
C437   C     0.13094   0.81092   0.02044   0.00000  Uiso   1.00
C438   C     0.20382   0.85392   0.31324   0.00000  Uiso   1.00
C439   C     0.13115   0.81174   0.30364   0.00000  Uiso   1.00
C440   C     0.20310   0.85405   0.02964   0.00000  Uiso   1.00
C441   C     0.18852   0.96236   0.05626   0.00000  Uiso   1.00
C442   C     0.17113   0.95359   0.00457   0.00000  Uiso   1.00
C443   C     0.22035   0.70542   0.27657   0.00000  Uiso   1.00
C444   C     0.16519   0.91263   0.16622   0.00000  Uiso   1.00
C445   C     0.22283   0.72656   0.32393   0.00000  Uiso   1.00
C446   C     0.07497   0.75463   0.01681   0.00000  Uiso   1.00
C447   C     0.02573   0.76470   0.31585   0.00000  Uiso   1.00
C448   C     0.01939   0.73613   0.27349   0.00000  Uiso   1.00
C449   C     0.28987   0.87073   0.31410   0.00000  Uiso   1.00
C450   C     0.31301   0.91025   0.00253   0.00000  Uiso   1.00
C451   C     0.03679   0.90476   0.02093   0.00000  Uiso   1.00
C452   C     0.06789   0.83327   0.15446   0.00000  Uiso   1.00
C453   C     0.26545   0.83309   0.17882   0.00000  Uiso   1.00
C454   C     0.01251   0.83340   0.14777   0.00000  Uiso   1.00
C455   C     0.32084   0.83248   0.18529   0.00000  Uiso   1.00
C456   C     0.15651   0.68911   0.12437   0.00000  Uiso   1.00
C457   C     0.16705   0.97783   0.20858   0.00000  Uiso   1.00
C458   C     0.15677   0.97992   0.12301   0.00000  Uiso   1.00
Cu459  Cu    0.16667   0.83334   0.21355   0.00000  Uiso   1.00
Cu460  Cu    0.16667   0.83333   0.11978   0.00000  Uiso   1.00
H461   H     0.32559   0.83449   0.11183   0.00000  Uiso   1.00
H462   H     0.20534   0.94962   0.31997   0.00000  Uiso   1.00
H463   H     0.14794   0.92529   0.00065   0.00000  Uiso   1.00
H464   H     0.24573   0.72194   0.25523   0.00000  Uiso   1.00
H465   H     0.23493   0.67353   0.28302   0.00000  Uiso   1.00
H466   H     0.19046   0.71681   0.00874   0.00000  Uiso   1.00
H467   H     0.25930   0.71829   0.01348   0.00000  Uiso   1.00
H468   H     0.22097   0.76025   0.31873   0.00000  Uiso   1.00
H469   H     0.06505   0.73198   0.04312   0.00000  Uiso   1.00
H470   H     0.10479   0.73913   0.33259   0.00000  Uiso   1.00
H471   H     0.32526   0.76243   0.00136   0.00000  Uiso   1.00
H472   H     0.00794   0.83111   0.22106   0.00000  Uiso   1.00
H473   H     0.02627   0.79675   0.30287   0.00000  Uiso   1.00
H474   H     0.05522   0.73443   0.25732   0.00000  Uiso   1.00
H475   H     0.32202   0.74821   0.24605   0.00000  Uiso   1.00
H476   H     0.00933   0.70489   0.28453   0.00000  Uiso   1.00
H477   H     0.31192   0.86182   0.28564   0.00000  Uiso   1.00
H478   H     0.29527   0.84525   0.00731   0.00000  Uiso   1.00
H479   H     0.30812   0.93513   0.30878   0.00000  Uiso   1.00
H480   H     0.29271   0.91953   0.03213   0.00000  Uiso   1.00
H481   H     0.04246   0.88071   0.04885   0.00000  Uiso   1.00
H482   H     0.05251   0.93399   0.03610   0.00000  Uiso   1.00
H483   H     0.15052   0.70601   0.09128   0.00000  Uiso   1.00
H484   H     0.05811   0.89595   0.32510   0.00000  Uiso   1.00
H485   H     0.16969   0.96087   0.24133   0.00000  Uiso   1.00
H486   H     0.10361   0.79511   0.27978   0.00000  Uiso   1.00
H487   H     0.23138   0.87119   0.05247   0.00000  Uiso   1.00
H488   H     0.21709   0.93886   0.07135   0.00000  Uiso   1.00
H489   H     0.20794   0.99260   0.05861   0.00000  Uiso   1.00
H490   H     0.14713   0.97941   0.32130   0.00000  Uiso   1.00
N491   N     0.16668   0.83334   0.28403   0.00000  Uiso   1.00
N492   N     0.16665   0.83332   0.04931   0.00000  Uiso   1.00
O493   O     0.16666   0.77322   0.20625   0.00000  Uiso   1.00
O494   O     0.16925   0.70614   0.25316   0.00000  Uiso   1.00
O495   O     0.09391   0.79005   0.04144   0.00000  Uiso   1.00
O496   O     0.23828   0.87791   0.29310   0.00000  Uiso   1.00
O497   O     0.16667   0.89345   0.12709   0.00000  Uiso   1.00
O498   O     0.16666   0.77321   0.12706   0.00000  Uiso   1.00
O499   O     0.16667   0.89346   0.20628   0.00000  Uiso   1.00
O500   O     0.09161   0.83334   0.19712   0.00000  Uiso   1.00
O501   O     0.24172   0.83333   0.13621   0.00000  Uiso   1.00
O502   O     0.09161   0.83333   0.11793   0.00000  Uiso   1.00
O503   O     0.24172   0.83334   0.21540   0.00000  Uiso   1.00
O504   O     0.14525   0.96091   0.08002   0.00000  Uiso   1.00
C505   C     0.49892   0.75410   0.16687   0.00000  Uiso   1.00
C506   C     0.50119   0.68700   0.21011   0.00000  Uiso   1.00
C507   C     0.49632   0.95733   0.16559   0.00000  Uiso   1.00
C508   C     0.49678   0.70953   0.16744   0.00000  Uiso   1.00
C509   C     0.46427   0.81092   0.02044   0.00000  Uiso   1.00
C510   C     0.53715   0.85392   0.31324   0.00000  Uiso   1.00
C511   C     0.46448   0.81174   0.30364   0.00000  Uiso   1.00
C512   C     0.53643   0.85405   0.02964   0.00000  Uiso   1.00
C513   C     0.52185   0.96236   0.05626   0.00000  Uiso   1.00
C514   C     0.50447   0.95359   0.00457   0.00000  Uiso   1.00
C515   C     0.55368   0.70542   0.27657   0.00000  Uiso   1.00
C516   C     0.49852   0.91263   0.16622   0.00000  Uiso   1.00
C517   C     0.55616   0.72656   0.32393   0.00000  Uiso   1.00
C518   C     0.40830   0.75463   0.01681   0.00000  Uiso   1.00
C519   C     0.35906   0.76470   0.31585   0.00000  Uiso   1.00
C520   C     0.35272   0.73613   0.27349   0.00000  Uiso   1.00
C521   C     0.62321   0.87073   0.31410   0.00000  Uiso   1.00
C522   C     0.64634   0.91025   0.00253   0.00000  Uiso   1.00
C523   C     0.37012   0.90476   0.02093   0.00000  Uiso   1.00
C524   C     0.40122   0.83327   0.15446   0.00000  Uiso   1.00
C525   C     0.59878   0.83309   0.17882   0.00000  Uiso   1.00
C526   C     0.34584   0.83340   0.14777   0.00000  Uiso   1.00
C527   C     0.65417   0.83248   0.18529   0.00000  Uiso   1.00
C528   C     0.48984   0.68911   0.12437   0.00000  Uiso   1.00
C529   C     0.50038   0.97783   0.20858   0.00000  Uiso   1.00
C530   C     0.49010   0.97992   0.12301   0.00000  Uiso   1.00
Cu531  Cu    0.50000   0.83334   0.21355   0.00000  Uiso   1.00
Cu532  Cu    0.50000   0.83333   0.11978   0.00000  Uiso   1.00
H533   H     0.65893   0.83449   0.11183   0.00000  Uiso   1.00
H534   H     0.53867   0.94962   0.31997   0.00000  Uiso   1.00
H535   H     0.48127   0.92529   0.00065   0.00000  Uiso   1.00
H536   H     0.57906   0.72194   0.25523   0.00000  Uiso   1.00
H537   H     0.56827   0.67353   0.28302   0.00000  Uiso   1.00
H538   H     0.52379   0.71681   0.00874   0.00000  Uiso   1.00
H539   H     0.59263   0.71829   0.01348   0.00000  Uiso   1.00
H540   H     0.55430   0.76025   0.31873   0.00000  Uiso   1.00
H541   H     0.39838   0.73198   0.04312   0.00000  Uiso   1.00
H542   H     0.43812   0.73913   0.33259   0.00000  Uiso   1.00
H543   H     0.65859   0.76243   0.00136   0.00000  Uiso   1.00
H544   H     0.34127   0.83111   0.22106   0.00000  Uiso   1.00
H545   H     0.35960   0.79675   0.30287   0.00000  Uiso   1.00
H546   H     0.38856   0.73443   0.25732   0.00000  Uiso   1.00
H547   H     0.65536   0.74821   0.24605   0.00000  Uiso   1.00
H548   H     0.34267   0.70489   0.28453   0.00000  Uiso   1.00
H549   H     0.64525   0.86182   0.28564   0.00000  Uiso   1.00
H550   H     0.62860   0.84525   0.00731   0.00000  Uiso   1.00
H551   H     0.64145   0.93513   0.30878   0.00000  Uiso   1.00
H552   H     0.62604   0.91953   0.03213   0.00000  Uiso   1.00
H553   H     0.37579   0.88071   0.04885   0.00000  Uiso   1.00
H554   H     0.38585   0.93399   0.03610   0.00000  Uiso   1.00
H555   H     0.48385   0.70601   0.09128   0.00000  Uiso   1.00
H556   H     0.39145   0.89595   0.32510   0.00000  Uiso   1.00
H557   H     0.50302   0.96087   0.24133   0.00000  Uiso   1.00
H558   H     0.43694   0.79511   0.27978   0.00000  Uiso   1.00
H559   H     0.56472   0.87119   0.05247   0.00000  Uiso   1.00
H560   H     0.55042   0.93886   0.07135   0.00000  Uiso   1.00
H561   H     0.54128   0.99260   0.05861   0.00000  Uiso   1.00
H562   H     0.48046   0.97941   0.32130   0.00000  Uiso   1.00
N563   N     0.50001   0.83334   0.28403   0.00000  Uiso   1.00
N564   N     0.49999   0.83332   0.04931   0.00000  Uiso   1.00
O565   O     0.50000   0.77322   0.20625   0.00000  Uiso   1.00
O566   O     0.50259   0.70614   0.25316   0.00000  Uiso   1.00
O567   O     0.42724   0.79005   0.04144   0.00000  Uiso   1.00
O568   O     0.57161   0.87791   0.29310   0.00000  Uiso   1.00
O569   O     0.50000   0.89345   0.12709   0.00000  Uiso   1.00
O570   O     0.50000   0.77321   0.12706   0.00000  Uiso   1.00
O571   O     0.50000   0.89346   0.20628   0.00000  Uiso   1.00
O572   O     0.42495   0.83334   0.19712   0.00000  Uiso   1.00
O573   O     0.57505   0.83333   0.13621   0.00000  Uiso   1.00
O574   O     0.42494   0.83333   0.11793   0.00000  Uiso   1.00
O575   O     0.57506   0.83334   0.21540   0.00000  Uiso   1.00
O576   O     0.47858   0.96091   0.08002   0.00000  Uiso   1.00
C577   C     0.83226   0.75410   0.16687   0.00000  Uiso   1.00
C578   C     0.83453   0.68700   0.21011   0.00000  Uiso   1.00
C579   C     0.82965   0.95733   0.16559   0.00000  Uiso   1.00
C580   C     0.83011   0.70953   0.16744   0.00000  Uiso   1.00
C581   C     0.79760   0.81092   0.02044   0.00000  Uiso   1.00
C582   C     0.87049   0.85392   0.31324   0.00000  Uiso   1.00
C583   C     0.79781   0.81174   0.30364   0.00000  Uiso   1.00
C584   C     0.86976   0.85405   0.02964   0.00000  Uiso   1.00
C585   C     0.85518   0.96236   0.05626   0.00000  Uiso   1.00
C586   C     0.83780   0.95359   0.00457   0.00000  Uiso   1.00
C587   C     0.88701   0.70542   0.27657   0.00000  Uiso   1.00
C588   C     0.83185   0.91263   0.16622   0.00000  Uiso   1.00
C589   C     0.88950   0.72656   0.32393   0.00000  Uiso   1.00
C590   C     0.74163   0.75463   0.01681   0.00000  Uiso   1.00
C591   C     0.69240   0.76470   0.31585   0.00000  Uiso   1.00
C592   C     0.68606   0.73613   0.27349   0.00000  Uiso   1.00
C593   C     0.95654   0.87073   0.31410   0.00000  Uiso   1.00
C594   C     0.97967   0.91025   0.00253   0.00000  Uiso   1.00
C595   C     0.70346   0.90476   0.02093   0.00000  Uiso   1.00
C596   C     0.73456   0.83327   0.15446   0.00000  Uiso   1.00
C597   C     0.93212   0.83309   0.17882   0.00000  Uiso   1.00
C598   C     0.67917   0.83340   0.14777   0.00000  Uiso   1.00
C599   C     0.98750   0.83248   0.18529   0.00000  Uiso   1.00
C600   C     0.82318   0.68911   0.12437   0.00000  Uiso   1.00
C601   C     0.83372   0.97783   0.20858   0.00000  Uiso   1.00
C602   C     0.82343   0.97992   0.12301   0.00000  Uiso   1.00
Cu603  Cu    0.83333   0.83334   0.21355   0.00000  Uiso   1.00
Cu604  Cu    0.83333   0.83333   0.11978   0.00000  Uiso   1.00
H605   H     0.99226   0.83449   0.11183   0.00000  Uiso   1.00
H606   H     0.87200   0.94962   0.31997   0.00000  Uiso   1.00
H607   H     0.81460   0.92529   0.00065   0.00000  Uiso   1.00
H608   H     0.91239   0.72194   0.25523   0.00000  Uiso   1.00
H609   H     0.90160   0.67353   0.28302   0.00000  Uiso   1.00
H610   H     0.85712   0.71681   0.00874   0.00000  Uiso   1.00
H611   H     0.92596   0.71829   0.01348   0.00000  Uiso   1.00
H612   H     0.88763   0.76025   0.31873   0.00000  Uiso   1.00
H613   H     0.73171   0.73198   0.04312   0.00000  Uiso   1.00
H614   H     0.77145   0.73913   0.33259   0.00000  Uiso   1.00
H615   H     0.99192   0.76243   0.00136   0.00000  Uiso   1.00
H616   H     0.67460   0.83111   0.22106   0.00000  Uiso   1.00
H617   H     0.69294   0.79675   0.30287   0.00000  Uiso   1.00
H618   H     0.72189   0.73443   0.25732   0.00000  Uiso   1.00
H619   H     0.98869   0.74821   0.24605   0.00000  Uiso   1.00
H620   H     0.67600   0.70489   0.28453   0.00000  Uiso   1.00
H621   H     0.97859   0.86182   0.28564   0.00000  Uiso   1.00
H622   H     0.96193   0.84525   0.00731   0.00000  Uiso   1.00
H623   H     0.97479   0.93513   0.30878   0.00000  Uiso   1.00
H624   H     0.95938   0.91953   0.03213   0.00000  Uiso   1.00
H625   H     0.70913   0.88071   0.04885   0.00000  Uiso   1.00
H626   H     0.71918   0.93399   0.03610   0.00000  Uiso   1.00
H627   H     0.81718   0.70601   0.09128   0.00000  Uiso   1.00
H628   H     0.72478   0.89595   0.32510   0.00000  Uiso   1.00
H629   H     0.83635   0.96087   0.24133   0.00000  Uiso   1.00
H630   H     0.77028   0.79511   0.27978   0.00000  Uiso   1.00
H631   H     0.89805   0.87119   0.05247   0.00000  Uiso   1.00
H632   H     0.88375   0.93886   0.07135   0.00000  Uiso   1.00
H633   H     0.87461   0.99260   0.05861   0.00000  Uiso   1.00
H634   H     0.81380   0.97941   0.32130   0.00000  Uiso   1.00
N635   N     0.83335   0.83334   0.28403   0.00000  Uiso   1.00
N636   N     0.83332   0.83332   0.04931   0.00000  Uiso   1.00
O637   O     0.83333   0.77322   0.20625   0.00000  Uiso   1.00
O638   O     0.83592   0.70614   0.25316   0.00000  Uiso   1.00
O639   O     0.76058   0.79005   0.04144   0.00000  Uiso   1.00
O640   O     0.90494   0.87791   0.29310   0.00000  Uiso   1.00
O641   O     0.83334   0.89345   0.12709   0.00000  Uiso   1.00
O642   O     0.83333   0.77321   0.12706   0.00000  Uiso   1.00
O643   O     0.83334   0.89346   0.20628   0.00000  Uiso   1.00
O644   O     0.75828   0.83334   0.19712   0.00000  Uiso   1.00
O645   O     0.90839   0.83333   0.13621   0.00000  Uiso   1.00
O646   O     0.75828   0.83333   0.11793   0.00000  Uiso   1.00
O647   O     0.90839   0.83334   0.21540   0.00000  Uiso   1.00
O648   O     0.81191   0.96091   0.08002   0.00000  Uiso   1.00
C649   C     0.16559   0.08743   0.50021   0.00000  Uiso   1.00
C650   C     0.16786   0.02033   0.54344   0.00000  Uiso   1.00
C651   C     0.16299   0.29067   0.49892   0.00000  Uiso   1.00
C652   C     0.16345   0.04287   0.50077   0.00000  Uiso   1.00
C653   C     0.13094   0.14425   0.35377   0.00000  Uiso   1.00
C654   C     0.20382   0.18725   0.64657   0.00000  Uiso   1.00
C655   C     0.13115   0.14507   0.63697   0.00000  Uiso   1.00
C656   C     0.20310   0.18739   0.36298   0.00000  Uiso   1.00
C657   C     0.18852   0.29569   0.38960   0.00000  Uiso   1.00
C658   C     0.17113   0.28693   0.33791   0.00000  Uiso   1.00
C659   C     0.22035   0.03875   0.60990   0.00000  Uiso   1.00
C660   C     0.16519   0.24596   0.49955   0.00000  Uiso   1.00
C661   C     0.22283   0.05990   0.65727   0.00000  Uiso   1.00
C662   C     0.07497   0.08797   0.35014   0.00000  Uiso   1.00
C663   C     0.02573   0.09803   0.64918   0.00000  Uiso   1.00
C664   C     0.01939   0.06946   0.60683   0.00000  Uiso   1.00
C665   C     0.28987   0.20407   0.64743   0.00000  Uiso   1.00
C666   C     0.31301   0.24359   0.33586   0.00000  Uiso   1.00
C667   C     0.03679   0.23810   0.35426   0.00000  Uiso   1.00
C668   C     0.06789   0.16661   0.48780   0.00000  Uiso   1.00
C669   C     0.26545   0.16642   0.51216   0.00000  Uiso   1.00
C670   C     0.01251   0.16674   0.48110   0.00000  Uiso   1.00
C671   C     0.32084   0.16581   0.51862   0.00000  Uiso   1.00
C672   C     0.15651   0.02244   0.45770   0.00000  Uiso   1.00
C673   C     0.16705   0.31116   0.54191   0.00000  Uiso   1.00
C674   C     0.15677   0.31325   0.45635   0.00000  Uiso   1.00
Cu675  Cu    0.16667   0.16667   0.54689   0.00000  Uiso   1.00
Cu676  Cu    0.16667   0.16666   0.45311   0.00000  Uiso   1.00
H677   H     0.32559   0.16782   0.44517   0.00000  Uiso   1.00
H678   H     0.20534   0.28296   0.65330   0.00000  Uiso   1.00
H679   H     0.14794   0.25862   0.33398   0.00000  Uiso   1.00
H680   H     0.24573   0.05527   0.58856   0.00000  Uiso   1.00
H681   H     0.23493   0.00686   0.61636   0.00000  Uiso   1.00
H682   H     0.19046   0.05014   0.34207   0.00000  Uiso   1.00
H683   H     0.25930   0.05162   0.34681   0.00000  Uiso   1.00
H684   H     0.22097   0.09358   0.65207   0.00000  Uiso   1.00
H685   H     0.06505   0.06531   0.37646   0.00000  Uiso   1.00
H686   H     0.10479   0.07246   0.66592   0.00000  Uiso   1.00
H687   H     0.32526   0.09577   0.33469   0.00000  Uiso   1.00
H688   H     0.00794   0.16445   0.55439   0.00000  Uiso   1.00
H689   H     0.02627   0.13009   0.63621   0.00000  Uiso   1.00
H690   H     0.05522   0.06776   0.59065   0.00000  Uiso   1.00
H691   H     0.32202   0.08154   0.57939   0.00000  Uiso   1.00
H692   H     0.00933   0.03822   0.61786   0.00000  Uiso   1.00
H693   H     0.31192   0.19515   0.61898   0.00000  Uiso   1.00
H694   H     0.29527   0.17858   0.34065   0.00000  Uiso   1.00
H695   H     0.30812   0.26847   0.64211   0.00000  Uiso   1.00
H696   H     0.29271   0.25286   0.36547   0.00000  Uiso   1.00
H697   H     0.04246   0.21405   0.38218   0.00000  Uiso   1.00
H698   H     0.05251   0.26732   0.36944   0.00000  Uiso   1.00
H699   H     0.15052   0.03935   0.42461   0.00000  Uiso   1.00
H700   H     0.05811   0.22928   0.65844   0.00000  Uiso   1.00
H701   H     0.16969   0.29420   0.57466   0.00000  Uiso   1.00
H702   H     0.10361   0.12844   0.61311   0.00000  Uiso   1.00
H703   H     0.23138   0.20452   0.38580   0.00000  Uiso   1.00
H704   H     0.21709   0.27219   0.40468   0.00000  Uiso   1.00
H705   H     0.20794   0.32594   0.39194   0.00000  Uiso   1.00
H706   H     0.14713   0.31274   0.65464   0.00000  Uiso   1.00
N707   N     0.16668   0.16668   0.61736   0.00000  Uiso   1.00
N708   N     0.16665   0.16666   0.38264   0.00000  Uiso   1.00
O709   O     0.16666   0.10655   0.53958   0.00000  Uiso   1.00
O710   O     0.16925   0.03948   0.58649   0.00000  Uiso   1.00
O711   O     0.09391   0.12338   0.37477   0.00000  Uiso   1.00
O712   O     0.23828   0.21125   0.62643   0.00000  Uiso   1.00
O713   O     0.16667   0.22678   0.46042   0.00000  Uiso   1.00
O714   O     0.16666   0.10654   0.46039   0.00000  Uiso   1.00
O715   O     0.16667   0.22679   0.53961   0.00000  Uiso   1.00
O716   O     0.09161   0.16667   0.53046   0.00000  Uiso   1.00
O717   O     0.24172   0.16666   0.46954   0.00000  Uiso   1.00
O718   O     0.09161   0.16666   0.45127   0.00000  Uiso   1.00
O719   O     0.24172   0.16667   0.54873   0.00000  Uiso   1.00
O720   O     0.14525   0.29424   0.41336   0.00000  Uiso   1.00
C721   C     0.49892   0.08743   0.50021   0.00000  Uiso   1.00
C722   C     0.50119   0.02033   0.54344   0.00000  Uiso   1.00
C723   C     0.49632   0.29067   0.49892   0.00000  Uiso   1.00
C724   C     0.49678   0.04287   0.50077   0.00000  Uiso   1.00
C725   C     0.46427   0.14425   0.35377   0.00000  Uiso   1.00
C726   C     0.53715   0.18725   0.64657   0.00000  Uiso   1.00
C727   C     0.46448   0.14507   0.63697   0.00000  Uiso   1.00
C728   C     0.53643   0.18739   0.36298   0.00000  Uiso   1.00
C729   C     0.52185   0.29569   0.38960   0.00000  Uiso   1.00
C730   C     0.50447   0.28693   0.33791   0.00000  Uiso   1.00
C731   C     0.55368   0.03875   0.60990   0.00000  Uiso   1.00
C732   C     0.49852   0.24596   0.49955   0.00000  Uiso   1.00
C733   C     0.55616   0.05990   0.65727   0.00000  Uiso   1.00
C734   C     0.40830   0.08797   0.35014   0.00000  Uiso   1.00
C735   C     0.35906   0.09803   0.64918   0.00000  Uiso   1.00
C736   C     0.35272   0.06946   0.60683   0.00000  Uiso   1.00
C737   C     0.62321   0.20407   0.64743   0.00000  Uiso   1.00
C738   C     0.64634   0.24359   0.33586   0.00000  Uiso   1.00
C739   C     0.37012   0.23810   0.35426   0.00000  Uiso   1.00
C740   C     0.40122   0.16661   0.48780   0.00000  Uiso   1.00
C741   C     0.59878   0.16642   0.51216   0.00000  Uiso   1.00
C742   C     0.34584   0.16674   0.48110   0.00000  Uiso   1.00
C743   C     0.65417   0.16581   0.51862   0.00000  Uiso   1.00
C744   C     0.48984   0.02244   0.45770   0.00000  Uiso   1.00
C745   C     0.50038   0.31116   0.54191   0.00000  Uiso   1.00
C746   C     0.49010   0.31325   0.45635   0.00000  Uiso   1.00
Cu747  Cu    0.50000   0.16667   0.54689   0.00000  Uiso   1.00
Cu748  Cu    0.50000   0.16666   0.45311   0.00000  Uiso   1.00
H749   H     0.65893   0.16782   0.44517   0.00000  Uiso   1.00
H750   H     0.53867   0.28296   0.65330   0.00000  Uiso   1.00
H751   H     0.48127   0.25862   0.33398   0.00000  Uiso   1.00
H752   H     0.57906   0.05527   0.58856   0.00000  Uiso   1.00
H753   H     0.56827   0.00686   0.61636   0.00000  Uiso   1.00
H754   H     0.52379   0.05014   0.34207   0.00000  Uiso   1.00
H755   H     0.59263   0.05162   0.34681   0.00000  Uiso   1.00
H756   H     0.55430   0.09358   0.65207   0.00000  Uiso   1.00
H757   H     0.39838   0.06531   0.37646   0.00000  Uiso   1.00
H758   H     0.43812   0.07246   0.66592   0.00000  Uiso   1.00
H759   H     0.65859   0.09577   0.33469   0.00000  Uiso   1.00
H760   H     0.34127   0.16445   0.55439   0.00000  Uiso   1.00
H761   H     0.35960   0.13009   0.63621   0.00000  Uiso   1.00
H762   H     0.38856   0.06776   0.59065   0.00000  Uiso   1.00
H763   H     0.65536   0.08154   0.57939   0.00000  Uiso   1.00
H764   H     0.34267   0.03822   0.61786   0.00000  Uiso   1.00
H765   H     0.64525   0.19515   0.61898   0.00000  Uiso   1.00
H766   H     0.62860   0.17858   0.34065   0.00000  Uiso   1.00
H767   H     0.64145   0.26847   0.64211   0.00000  Uiso   1.00
H768   H     0.62604   0.25286   0.36547   0.00000  Uiso   1.00
H769   H     0.37579   0.21405   0.38218   0.00000  Uiso   1.00
H770   H     0.38585   0.26732   0.36944   0.00000  Uiso   1.00
H771   H     0.48385   0.03935   0.42461   0.00000  Uiso   1.00
H772   H     0.39145   0.22928   0.65844   0.00000  Uiso   1.00
H773   H     0.50302   0.29420   0.57466   0.00000  Uiso   1.00
H774   H     0.43694   0.12844   0.61311   0.00000  Uiso   1.00
H775   H     0.56472   0.20452   0.38580   0.00000  Uiso   1.00
H776   H     0.55042   0.27219   0.40468   0.00000  Uiso   1.00
H777   H     0.54128   0.32594   0.39194   0.00000  Uiso   1.00
H778   H     0.48046   0.31274   0.65464   0.00000  Uiso   1.00
N779   N     0.50001   0.16668   0.61736   0.00000  Uiso   1.00
N780   N     0.49999   0.16666   0.38264   0.00000  Uiso   1.00
O781   O     0.50000   0.10655   0.53958   0.00000  Uiso   1.00
O782   O     0.50259   0.03948   0.58649   0.00000  Uiso   1.00
O783   O     0.42724   0.12338   0.37477   0.00000  Uiso   1.00
O784   O     0.57161   0.21125   0.62643   0.00000  Uiso   1.00
O785   O     0.50000   0.22678   0.46042   0.00000  Uiso   1.00
O786   O     0.50000   0.10654   0.46039   0.00000  Uiso   1.00
O787   O     0.50000   0.22679   0.53961   0.00000  Uiso   1.00
O788   O     0.42495   0.16667   0.53046   0.00000  Uiso   1.00
O789   O     0.57505   0.16666   0.46954   0.00000  Uiso   1.00
O790   O     0.42494   0.16666   0.45127   0.00000  Uiso   1.00
O791   O     0.57506   0.16667   0.54873   0.00000  Uiso   1.00
O792   O     0.47858   0.29424   0.41336   0.00000  Uiso   1.00
C793   C     0.83226   0.08743   0.50021   0.00000  Uiso   1.00
C794   C     0.83453   0.02033   0.54344   0.00000  Uiso   1.00
C795   C     0.82965   0.29067   0.49892   0.00000  Uiso   1.00
C796   C     0.83011   0.04287   0.50077   0.00000  Uiso   1.00
C797   C     0.79760   0.14425   0.35377   0.00000  Uiso   1.00
C798   C     0.87049   0.18725   0.64657   0.00000  Uiso   1.00
C799   C     0.79781   0.14507   0.63697   0.00000  Uiso   1.00
C800   C     0.86976   0.18739   0.36298   0.00000  Uiso   1.00
C801   C     0.85518   0.29569   0.38960   0.00000  Uiso   1.00
C802   C     0.83780   0.28693   0.33791   0.00000  Uiso   1.00
C803   C     0.88701   0.03875   0.60990   0.00000  Uiso   1.00
C804   C     0.83185   0.24596   0.49955   0.00000  Uiso   1.00
C805   C     0.88950   0.05990   0.65727   0.00000  Uiso   1.00
C806   C     0.74163   0.08797   0.35014   0.00000  Uiso   1.00
C807   C     0.69240   0.09803   0.64918   0.00000  Uiso   1.00
C808   C     0.68606   0.06946   0.60683   0.00000  Uiso   1.00
C809   C     0.95654   0.20407   0.64743   0.00000  Uiso   1.00
C810   C     0.97967   0.24359   0.33586   0.00000  Uiso   1.00
C811   C     0.70346   0.23810   0.35426   0.00000  Uiso   1.00
C812   C     0.73456   0.16661   0.48780   0.00000  Uiso   1.00
C813   C     0.93212   0.16642   0.51216   0.00000  Uiso   1.00
C814   C     0.67917   0.16674   0.48110   0.00000  Uiso   1.00
C815   C     0.98750   0.16581   0.51862   0.00000  Uiso   1.00
C816   C     0.82318   0.02244   0.45770   0.00000  Uiso   1.00
C817   C     0.83372   0.31116   0.54191   0.00000  Uiso   1.00
C818   C     0.82343   0.31325   0.45635   0.00000  Uiso   1.00
Cu819  Cu    0.83333   0.16667   0.54689   0.00000  Uiso   1.00
Cu820  Cu    0.83333   0.16666   0.45311   0.00000  Uiso   1.00
H821   H     0.99226   0.16782   0.44517   0.00000  Uiso   1.00
H822   H     0.87200   0.28296   0.65330   0.00000  Uiso   1.00
H823   H     0.81460   0.25862   0.33398   0.00000  Uiso   1.00
H824   H     0.91239   0.05527   0.58856   0.00000  Uiso   1.00
H825   H     0.90160   0.00686   0.61636   0.00000  Uiso   1.00
H826   H     0.85712   0.05014   0.34207   0.00000  Uiso   1.00
H827   H     0.92596   0.05162   0.34681   0.00000  Uiso   1.00
H828   H     0.88763   0.09358   0.65207   0.00000  Uiso   1.00
H829   H     0.73171   0.06531   0.37646   0.00000  Uiso   1.00
H830   H     0.77145   0.07246   0.66592   0.00000  Uiso   1.00
H831   H     0.99192   0.09577   0.33469   0.00000  Uiso   1.00
H832   H     0.67460   0.16445   0.55439   0.00000  Uiso   1.00
H833   H     0.69294   0.13009   0.63621   0.00000  Uiso   1.00
H834   H     0.72189   0.06776   0.59065   0.00000  Uiso   1.00
H835   H     0.98869   0.08154   0.57939   0.00000  Uiso   1.00
H836   H     0.67600   0.03822   0.61786   0.00000  Uiso   1.00
H837   H     0.97859   0.19515   0.61898   0.00000  Uiso   1.00
H838   H     0.96193   0.17858   0.34065   0.00000  Uiso   1.00
H839   H     0.97479   0.26847   0.64211   0.00000  Uiso   1.00
H840   H     0.95938   0.25286   0.36547   0.00000  Uiso   1.00
H841   H     0.70913   0.21405   0.38218   0.00000  Uiso   1.00
H842   H     0.71918   0.26732   0.36944   0.00000  Uiso   1.00
H843   H     0.81718   0.03935   0.42461   0.00000  Uiso   1.00
H844   H     0.72478   0.22928   0.65844   0.00000  Uiso   1.00
H845   H     0.83635   0.29420   0.57466   0.00000  Uiso   1.00
H846   H     0.77028   0.12844   0.61311   0.00000  Uiso   1.00
H847   H     0.89805   0.20452   0.38580   0.00000  Uiso   1.00
H848   H     0.88375   0.27219   0.40468   0.00000  Uiso   1.00
H849   H     0.87461   0.32594   0.39194   0.00000  Uiso   1.00
H850   H     0.81380   0.31274   0.65464   0.00000  Uiso   1.00
N851   N     0.83335   0.16668   0.61736   0.00000  Uiso   1.00
N852   N     0.83332   0.16666   0.38264   0.00000  Uiso   1.00
O853   O     0.83333   0.10655   0.53958   0.00000  Uiso   1.00
O854   O     0.83592   0.03948   0.58649   0.00000  Uiso   1.00
O855   O     0.76058   0.12338   0.37477   0.00000  Uiso   1.00
O856   O     0.90494   0.21125   0.62643   0.00000  Uiso   1.00
O857   O     0.83334   0.22678   0.46042   0.00000  Uiso   1.00
O858   O     0.83333   0.10654   0.46039   0.00000  Uiso   1.00
O859   O     0.83334   0.22679   0.53961   0.00000  Uiso   1.00
O860   O     0.75828   0.16667   0.53046   0.00000  Uiso   1.00
O861   O     0.90839   0.16666   0.46954   0.00000  Uiso   1.00
O862   O     0.75828   0.16666   0.45127   0.00000  Uiso   1.00
O863   O     0.90839   0.16667   0.54873   0.00000  Uiso   1.00
O864   O     0.81191   0.29424   0.41336   0.00000  Uiso   1.00
C865   C     0.16559   0.42076   0.50021   0.00000  Uiso   1.00
C866   C     0.16786   0.35366   0.54344   0.00000  Uiso   1.00
C867   C     0.16299   0.62400   0.49892   0.00000  Uiso   1.00
C868   C     0.16345   0.37620   0.50077   0.00000  Uiso   1.00
C869   C     0.13094   0.47758   0.35377   0.00000  Uiso   1.00
C870   C     0.20382   0.52059   0.64657   0.00000  Uiso   1.00
C871   C     0.13115   0.47840   0.63697   0.00000  Uiso   1.00
C872   C     0.20310   0.52072   0.36298   0.00000  Uiso   1.00
C873   C     0.18852   0.62903   0.38960   0.00000  Uiso   1.00
C874   C     0.17113   0.62026   0.33791   0.00000  Uiso   1.00
C875   C     0.22035   0.37209   0.60990   0.00000  Uiso   1.00
C876   C     0.16519   0.57930   0.49955   0.00000  Uiso   1.00
C877   C     0.22283   0.39323   0.65727   0.00000  Uiso   1.00
C878   C     0.07497   0.42130   0.35014   0.00000  Uiso   1.00
C879   C     0.02573   0.43136   0.64918   0.00000  Uiso   1.00
C880   C     0.01939   0.40280   0.60683   0.00000  Uiso   1.00
C881   C     0.28987   0.53740   0.64743   0.00000  Uiso   1.00
C882   C     0.31301   0.57692   0.33586   0.00000  Uiso   1.00
C883   C     0.03679   0.57143   0.35426   0.00000  Uiso   1.00
C884   C     0.06789   0.49994   0.48780   0.00000  Uiso   1.00
C885   C     0.26545   0.49975   0.51216   0.00000  Uiso   1.00
C886   C     0.01251   0.50007   0.48110   0.00000  Uiso   1.00
C887   C     0.32084   0.49915   0.51862   0.00000  Uiso   1.00
C888   C     0.15651   0.35577   0.45770   0.00000  Uiso   1.00
C889   C     0.16705   0.64450   0.54191   0.00000  Uiso   1.00
C890   C     0.15677   0.64659   0.45635   0.00000  Uiso   1.00
Cu891  Cu    0.16667   0.50001   0.54689   0.00000  Uiso   1.00
Cu892  Cu    0.16667   0.49999   0.45311   0.00000  Uiso   1.00
H893   H     0.32559   0.50115   0.44517   0.00000  Uiso   1.00
H894   H     0.20534   0.61629   0.65330   0.00000  Uiso   1.00
H895   H     0.14794   0.59195   0.33398   0.00000  Uiso   1.00
H896   H     0.24573   0.38861   0.58856   0.00000  Uiso   1.00
H897   H     0.23493   0.34020   0.61636   0.00000  Uiso   1.00
H898   H     0.19046   0.38347   0.34207   0.00000  Uiso   1.00
H899   H     0.25930   0.38495   0.34681   0.00000  Uiso   1.00
H900   H     0.22097   0.42692   0.65207   0.00000  Uiso   1.00
H901   H     0.06505   0.39865   0.37646   0.00000  Uiso   1.00
H902   H     0.10479   0.40580   0.66592   0.00000  Uiso   1.00
H903   H     0.32526   0.42910   0.33469   0.00000  Uiso   1.00
H904   H     0.00794   0.49778   0.55439   0.00000  Uiso   1.00
H905   H     0.02627   0.46342   0.63621   0.00000  Uiso   1.00
H906   H     0.05522   0.40109   0.59065   0.00000  Uiso   1.00
H907   H     0.32202   0.41488   0.57939   0.00000  Uiso   1.00
H908   H     0.00933   0.37155   0.61786   0.00000  Uiso   1.00
H909   H     0.31192   0.52848   0.61898   0.00000  Uiso   1.00
H910   H     0.29527   0.51191   0.34065   0.00000  Uiso   1.00
H911   H     0.30812   0.60180   0.64211   0.00000  Uiso   1.00
H912   H     0.29271   0.58619   0.36547   0.00000  Uiso   1.00
H913   H     0.04246   0.54738   0.38218   0.00000  Uiso   1.00
H914   H     0.05251   0.60065   0.36944   0.00000  Uiso   1.00
H915   H     0.15052   0.37268   0.42461   0.00000  Uiso   1.00
H916   H     0.05811   0.56262   0.65844   0.00000  Uiso   1.00
H917   H     0.16969   0.62754   0.57466   0.00000  Uiso   1.00
H918   H     0.10361   0.46178   0.61311   0.00000  Uiso   1.00
H919   H     0.23138   0.53785   0.38580   0.00000  Uiso   1.00
H920   H     0.21709   0.60553   0.40468   0.00000  Uiso   1.00
H921   H     0.20794   0.65927   0.39194   0.00000  Uiso   1.00
H922   H     0.14713   0.64608   0.65464   0.00000  Uiso   1.00
N923   N     0.16668   0.50001   0.61736   0.00000  Uiso   1.00
N924   N     0.16665   0.49999   0.38264   0.00000  Uiso   1.00
O925   O     0.16666   0.43989   0.53958   0.00000  Uiso   1.00
O926   O     0.16925   0.37281   0.58649   0.00000  Uiso   1.00
O927   O     0.09391   0.45672   0.37477   0.00000  Uiso   1.00
O928   O     0.23828   0.54458   0.62643   0.00000  Uiso   1.00
O929   O     0.16667   0.56011   0.46042   0.00000  Uiso   1.00
O930   O     0.16666   0.43988   0.46039   0.00000  Uiso   1.00
O931   O     0.16667   0.56012   0.53961   0.00000  Uiso   1.00
O932   O     0.09161   0.50000   0.53046   0.00000  Uiso   1.00
O933   O     0.24172   0.50000   0.46954   0.00000  Uiso   1.00
O934   O     0.09161   0.49999   0.45127   0.00000  Uiso   1.00
O935   O     0.24172   0.50001   0.54873   0.00000  Uiso   1.00
O936   O     0.14525   0.62758   0.41336   0.00000  Uiso   1.00
C937   C     0.49892   0.42076   0.50021   0.00000  Uiso   1.00
C938   C     0.50119   0.35366   0.54344   0.00000  Uiso   1.00
C939   C     0.49632   0.62400   0.49892   0.00000  Uiso   1.00
C940   C     0.49678   0.37620   0.50077   0.00000  Uiso   1.00
C941   C     0.46427   0.47758   0.35377   0.00000  Uiso   1.00
C942   C     0.53715   0.52059   0.64657   0.00000  Uiso   1.00
C943   C     0.46448   0.47840   0.63697   0.00000  Uiso   1.00
C944   C     0.53643   0.52072   0.36298   0.00000  Uiso   1.00
C945   C     0.52185   0.62903   0.38960   0.00000  Uiso   1.00
C946   C     0.50447   0.62026   0.33791   0.00000  Uiso   1.00
C947   C     0.55368   0.37209   0.60990   0.00000  Uiso   1.00
C948   C     0.49852   0.57930   0.49955   0.00000  Uiso   1.00
C949   C     0.55616   0.39323   0.65727   0.00000  Uiso   1.00
C950   C     0.40830   0.42130   0.35014   0.00000  Uiso   1.00
C951   C     0.35906   0.43136   0.64918   0.00000  Uiso   1.00
C952   C     0.35272   0.40280   0.60683   0.00000  Uiso   1.00
C953   C     0.62321   0.53740   0.64743   0.00000  Uiso   1.00
C954   C     0.64634   0.57692   0.33586   0.00000  Uiso   1.00
C955   C     0.37012   0.57143   0.35426   0.00000  Uiso   1.00
C956   C     0.40122   0.49994   0.48780   0.00000  Uiso   1.00
C957   C     0.59878   0.49975   0.51216   0.00000  Uiso   1.00
C958   C     0.34584   0.50007   0.48110   0.00000  Uiso   1.00
C959   C     0.65417   0.49915   0.51862   0.00000  Uiso   1.00
C960   C     0.48984   0.35577   0.45770   0.00000  Uiso   1.00
C961   C     0.50038   0.64450   0.54191   0.00000  Uiso   1.00
C962   C     0.49010   0.64659   0.45635   0.00000  Uiso   1.00
Cu963  Cu    0.50000   0.50001   0.54689   0.00000  Uiso   1.00
Cu964  Cu    0.50000   0.49999   0.45311   0.00000  Uiso   1.00
H965   H     0.65893   0.50115   0.44517   0.00000  Uiso   1.00
H966   H     0.53867   0.61629   0.65330   0.00000  Uiso   1.00
H967   H     0.48127   0.59195   0.33398   0.00000  Uiso   1.00
H968   H     0.57906   0.38861   0.58856   0.00000  Uiso   1.00
H969   H     0.56827   0.34020   0.61636   0.00000  Uiso   1.00
H970   H     0.52379   0.38347   0.34207   0.00000  Uiso   1.00
H971   H     0.59263   0.38495   0.34681   0.00000  Uiso   1.00
H972   H     0.55430   0.42692   0.65207   0.00000  Uiso   1.00
H973   H     0.39838   0.39865   0.37646   0.00000  Uiso   1.00
H974   H     0.43812   0.40580   0.66592   0.00000  Uiso   1.00
H975   H     0.65859   0.42910   0.33469   0.00000  Uiso   1.00
H976   H     0.34127   0.49778   0.55439   0.00000  Uiso   1.00
H977   H     0.35960   0.46342   0.63621   0.00000  Uiso   1.00
H978   H     0.38856   0.40109   0.59065   0.00000  Uiso   1.00
H979   H     0.65536   0.41488   0.57939   0.00000  Uiso   1.00
H980   H     0.34267   0.37155   0.61786   0.00000  Uiso   1.00
H981   H     0.64525   0.52848   0.61898   0.00000  Uiso   1.00
H982   H     0.62860   0.51191   0.34065   0.00000  Uiso   1.00
H983   H     0.64145   0.60180   0.64211   0.00000  Uiso   1.00
H984   H     0.62604   0.58619   0.36547   0.00000  Uiso   1.00
H985   H     0.37579   0.54738   0.38218   0.00000  Uiso   1.00
H986   H     0.38585   0.60065   0.36944   0.00000  Uiso   1.00
H987   H     0.48385   0.37268   0.42461   0.00000  Uiso   1.00
H988   H     0.39145   0.56262   0.65844   0.00000  Uiso   1.00
H989   H     0.50302   0.62754   0.57466   0.00000  Uiso   1.00
H990   H     0.43694   0.46178   0.61311   0.00000  Uiso   1.00
H991   H     0.56472   0.53785   0.38580   0.00000  Uiso   1.00
H992   H     0.55042   0.60553   0.40468   0.00000  Uiso   1.00
H993   H     0.54128   0.65927   0.39194   0.00000  Uiso   1.00
H994   H     0.48046   0.64608   0.65464   0.00000  Uiso   1.00
N995   N     0.50001   0.50001   0.61736   0.00000  Uiso   1.00
N996   N     0.49999   0.49999   0.38264   0.00000  Uiso   1.00
O997   O     0.50000   0.43989   0.53958   0.00000  Uiso   1.00
O998   O     0.50259   0.37281   0.58649   0.00000  Uiso   1.00
O999   O     0.42724   0.45672   0.37477   0.00000  Uiso   1.00
O1000  O     0.57161   0.54458   0.62643   0.00000  Uiso   1.00
O1001  O     0.50000   0.56011   0.46042   0.00000  Uiso   1.00
O1002  O     0.50000   0.43988   0.46039   0.00000  Uiso   1.00
O1003  O     0.50000   0.56012   0.53961   0.00000  Uiso   1.00
O1004  O     0.42495   0.50000   0.53046   0.00000  Uiso   1.00
O1005  O     0.57505   0.50000   0.46954   0.00000  Uiso   1.00
O1006  O     0.42494   0.49999   0.45127   0.00000  Uiso   1.00
O1007  O     0.57506   0.50001   0.54873   0.00000  Uiso   1.00
O1008  O     0.47858   0.62758   0.41336   0.00000  Uiso   1.00
C1009  C     0.83226   0.42076   0.50021   0.00000  Uiso   1.00
C1010  C     0.83453   0.35366   0.54344   0.00000  Uiso   1.00
C1011  C     0.82965   0.62400   0.49892   0.00000  Uiso   1.00
C1012  C     0.83011   0.37620   0.50077   0.00000  Uiso   1.00
C1013  C     0.79760   0.47758   0.35377   0.00000  Uiso   1.00
C1014  C     0.87049   0.52059   0.64657   0.00000  Uiso   1.00
C1015  C     0.79781   0.47840   0.63697   0.00000  Uiso   1.00
C1016  C     0.86976   0.52072   0.36298   0.00000  Uiso   1.00
C1017  C     0.85518   0.62903   0.38960   0.00000  Uiso   1.00
C1018  C     0.83780   0.62026   0.33791   0.00000  Uiso   1.00
C1019  C     0.88701   0.37209   0.60990   0.00000  Uiso   1.00
C1020  C     0.83185   0.57930   0.49955   0.00000  Uiso   1.00
C1021  C     0.88950   0.39323   0.65727   0.00000  Uiso   1.00
C1022  C     0.74163   0.42130   0.35014   0.00000  Uiso   1.00
C1023  C     0.69240   0.43136   0.64918   0.00000  Uiso   1.00
C1024  C     0.68606   0.40280   0.60683   0.00000  Uiso   1.00
C1025  C     0.95654   0.53740   0.64743   0.00000  Uiso   1.00
C1026  C     0.97967   0.57692   0.33586   0.00000  Uiso   1.00
C1027  C     0.70346   0.57143   0.35426   0.00000  Uiso   1.00
C1028  C     0.73456   0.49994   0.48780   0.00000  Uiso   1.00
C1029  C     0.93212   0.49975   0.51216   0.00000  Uiso   1.00
C1030  C     0.67917   0.50007   0.48110   0.00000  Uiso   1.00
C1031  C     0.98750   0.49915   0.51862   0.00000  Uiso   1.00
C1032  C     0.82318   0.35577   0.45770   0.00000  Uiso   1.00
C1033  C     0.83372   0.64450   0.54191   0.00000  Uiso   1.00
C1034  C     0.82343   0.64659   0.45635   0.00000  Uiso   1.00
Cu1035 Cu    0.83333   0.50001   0.54689   0.00000  Uiso   1.00
Cu1036 Cu    0.83333   0.49999   0.45311   0.00000  Uiso   1.00
H1037  H     0.99226   0.50115   0.44517   0.00000  Uiso   1.00
H1038  H     0.87200   0.61629   0.65330   0.00000  Uiso   1.00
H1039  H     0.81460   0.59195   0.33398   0.00000  Uiso   1.00
H1040  H     0.91239   0.38861   0.58856   0.00000  Uiso   1.00
H1041  H     0.90160   0.34020   0.61636   0.00000  Uiso   1.00
H1042  H     0.85712   0.38347   0.34207   0.00000  Uiso   1.00
H1043  H     0.92596   0.38495   0.34681   0.00000  Uiso   1.00
H1044  H     0.88763   0.42692   0.65207   0.00000  Uiso   1.00
H1045  H     0.73171   0.39865   0.37646   0.00000  Uiso   1.00
H1046  H     0.77145   0.40580   0.66592   0.00000  Uiso   1.00
H1047  H     0.99192   0.42910   0.33469   0.00000  Uiso   1.00
H1048  H     0.67460   0.49778   0.55439   0.00000  Uiso   1.00
H1049  H     0.69294   0.46342   0.63621   0.00000  Uiso   1.00
H1050  H     0.72189   0.40109   0.59065   0.00000  Uiso   1.00
H1051  H     0.98869   0.41488   0.57939   0.00000  Uiso   1.00
H1052  H     0.67600   0.37155   0.61786   0.00000  Uiso   1.00
H1053  H     0.97859   0.52848   0.61898   0.00000  Uiso   1.00
H1054  H     0.96193   0.51191   0.34065   0.00000  Uiso   1.00
H1055  H     0.97479   0.60180   0.64211   0.00000  Uiso   1.00
H1056  H     0.95938   0.58619   0.36547   0.00000  Uiso   1.00
H1057  H     0.70913   0.54738   0.38218   0.00000  Uiso   1.00
H1058  H     0.71918   0.60065   0.36944   0.00000  Uiso   1.00
H1059  H     0.81718   0.37268   0.42461   0.00000  Uiso   1.00
H1060  H     0.72478   0.56262   0.65844   0.00000  Uiso   1.00
H1061  H     0.83635   0.62754   0.57466   0.00000  Uiso   1.00
H1062  H     0.77028   0.46178   0.61311   0.00000  Uiso   1.00
H1063  H     0.89805   0.53785   0.38580   0.00000  Uiso   1.00
H1064  H     0.88375   0.60553   0.40468   0.00000  Uiso   1.00
H1065  H     0.87461   0.65927   0.39194   0.00000  Uiso   1.00
H1066  H     0.81380   0.64608   0.65464   0.00000  Uiso   1.00
N1067  N     0.83335   0.50001   0.61736   0.00000  Uiso   1.00
N1068  N     0.83332   0.49999   0.38264   0.00000  Uiso   1.00
O1069  O     0.83333   0.43989   0.53958   0.00000  Uiso   1.00
O1070  O     0.83592   0.37281   0.58649   0.00000  Uiso   1.00
O1071  O     0.76058   0.45672   0.37477   0.00000  Uiso   1.00
O1072  O     0.90494   0.54458   0.62643   0.00000  Uiso   1.00
O1073  O     0.83334   0.56011   0.46042   0.00000  Uiso   1.00
O1074  O     0.83333   0.43988   0.46039   0.00000  Uiso   1.00
O1075  O     0.83334   0.56012   0.53961   0.00000  Uiso   1.00
O1076  O     0.75828   0.50000   0.53046   0.00000  Uiso   1.00
O1077  O     0.90839   0.50000   0.46954   0.00000  Uiso   1.00
O1078  O     0.75828   0.49999   0.45127   0.00000  Uiso   1.00
O1079  O     0.90839   0.50001   0.54873   0.00000  Uiso   1.00
O1080  O     0.81191   0.62758   0.41336   0.00000  Uiso   1.00
C1081  C     0.16559   0.75410   0.50021   0.00000  Uiso   1.00
C1082  C     0.16786   0.68700   0.54344   0.00000  Uiso   1.00
C1083  C     0.16299   0.95733   0.49892   0.00000  Uiso   1.00
C1084  C     0.16345   0.70953   0.50077   0.00000  Uiso   1.00
C1085  C     0.13094   0.81092   0.35377   0.00000  Uiso   1.00
C1086  C     0.20382   0.85392   0.64657   0.00000  Uiso   1.00
C1087  C     0.13115   0.81174   0.63697   0.00000  Uiso   1.00
C1088  C     0.20310   0.85405   0.36298   0.00000  Uiso   1.00
C1089  C     0.18852   0.96236   0.38960   0.00000  Uiso   1.00
C1090  C     0.17113   0.95359   0.33791   0.00000  Uiso   1.00
C1091  C     0.22035   0.70542   0.60990   0.00000  Uiso   1.00
C1092  C     0.16519   0.91263   0.49955   0.00000  Uiso   1.00
C1093  C     0.22283   0.72656   0.65727   0.00000  Uiso   1.00
C1094  C     0.07497   0.75463   0.35014   0.00000  Uiso   1.00
C1095  C     0.02573   0.76470   0.64918   0.00000  Uiso   1.00
C1096  C     0.01939   0.73613   0.60683   0.00000  Uiso   1.00
C1097  C     0.28987   0.87073   0.64743   0.00000  Uiso   1.00
C1098  C     0.31301   0.91025   0.33586   0.00000  Uiso   1.00
C1099  C     0.03679   0.90476   0.35426   0.00000  Uiso   1.00
C1100  C     0.06789   0.83327   0.48780   0.00000  Uiso   1.00
C1101  C     0.26545   0.83309   0.51216   0.00000  Uiso   1.00
C1102  C     0.01251   0.83340   0.48110   0.00000  Uiso   1.00
C1103  C     0.32084   0.83248   0.51862   0.00000  Uiso   1.00
C1104  C     0.15651   0.68911   0.45770   0.00000  Uiso   1.00
C1105  C     0.16705   0.97783   0.54191   0.00000  Uiso   1.00
C1106  C     0.15677   0.97992   0.45635   0.00000  Uiso   1.00
Cu1107 Cu    0.16667   0.83334   0.54689   0.00000  Uiso   1.00
Cu1108 Cu    0.16667   0.83333   0.45311   0.00000  Uiso   1.00
H1109  H     0.32559   0.83449   0.44517   0.00000  Uiso   1.00
H1110  H     0.20534   0.94962   0.65330   0.00000  Uiso   1.00
H1111  H     0.14794   0.92529   0.33398   0.00000  Uiso   1.00
H1112  H     0.24573   0.72194   0.58856   0.00000  Uiso   1.00
H1113  H     0.23493   0.67353   0.61636   0.00000  Uiso   1.00
H1114  H     0.19046   0.71681   0.34207   0.00000  Uiso   1.00
H1115  H     0.25930   0.71829   0.34681   0.00000  Uiso   1.00
H1116  H     0.22097   0.76025   0.65207   0.00000  Uiso   1.00
H1117  H     0.06505   0.73198   0.37646   0.00000  Uiso   1.00
H1118  H     0.10479   0.73913   0.66592   0.00000  Uiso   1.00
H1119  H     0.32526   0.76243   0.33469   0.00000  Uiso   1.00
H1120  H     0.00794   0.83111   0.55439   0.00000  Uiso   1.00
H1121  H     0.02627   0.79675   0.63621   0.00000  Uiso   1.00
H1122  H     0.05522   0.73443   0.59065   0.00000  Uiso   1.00
H1123  H     0.32202   0.74821   0.57939   0.00000  Uiso   1.00
H1124  H     0.00933   0.70489   0.61786   0.00000  Uiso   1.00
H1125  H     0.31192   0.86182   0.61898   0.00000  Uiso   1.00
H1126  H     0.29527   0.84525   0.34065   0.00000  Uiso   1.00
H1127  H     0.30812   0.93513   0.64211   0.00000  Uiso   1.00
H1128  H     0.29271   0.91953   0.36547   0.00000  Uiso   1.00
H1129  H     0.04246   0.88071   0.38218   0.00000  Uiso   1.00
H1130  H     0.05251   0.93399   0.36944   0.00000  Uiso   1.00
H1131  H     0.15052   0.70601   0.42461   0.00000  Uiso   1.00
H1132  H     0.05811   0.89595   0.65844   0.00000  Uiso   1.00
H1133  H     0.16969   0.96087   0.57466   0.00000  Uiso   1.00
H1134  H     0.10361   0.79511   0.61311   0.00000  Uiso   1.00
H1135  H     0.23138   0.87119   0.38580   0.00000  Uiso   1.00
H1136  H     0.21709   0.93886   0.40468   0.00000  Uiso   1.00
H1137  H     0.20794   0.99260   0.39194   0.00000  Uiso   1.00
H1138  H     0.14713   0.97941   0.65464   0.00000  Uiso   1.00
N1139  N     0.16668   0.83334   0.61736   0.00000  Uiso   1.00
N1140  N     0.16665   0.83332   0.38264   0.00000  Uiso   1.00
O1141  O     0.16666   0.77322   0.53958   0.00000  Uiso   1.00
O1142  O     0.16925   0.70614   0.58649   0.00000  Uiso   1.00
O1143  O     0.09391   0.79005   0.37477   0.00000  Uiso   1.00
O1144  O     0.23828   0.87791   0.62643   0.00000  Uiso   1.00
O1145  O     0.16667   0.89345   0.46042   0.00000  Uiso   1.00
O1146  O     0.16666   0.77321   0.46039   0.00000  Uiso   1.00
O1147  O     0.16667   0.89346   0.53961   0.00000  Uiso   1.00
O1148  O     0.09161   0.83334   0.53046   0.00000  Uiso   1.00
O1149  O     0.24172   0.83333   0.46954   0.00000  Uiso   1.00
O1150  O     0.09161   0.83333   0.45127   0.00000  Uiso   1.00
O1151  O     0.24172   0.83334   0.54873   0.00000  Uiso   1.00
O1152  O     0.14525   0.96091   0.41336   0.00000  Uiso   1.00
C1153  C     0.49892   0.75410   0.50021   0.00000  Uiso   1.00
C1154  C     0.50119   0.68700   0.54344   0.00000  Uiso   1.00
C1155  C     0.49632   0.95733   0.49892   0.00000  Uiso   1.00
C1156  C     0.49678   0.70953   0.50077   0.00000  Uiso   1.00
C1157  C     0.46427   0.81092   0.35377   0.00000  Uiso   1.00
C1158  C     0.53715   0.85392   0.64657   0.00000  Uiso   1.00
C1159  C     0.46448   0.81174   0.63697   0.00000  Uiso   1.00
C1160  C     0.53643   0.85405   0.36298   0.00000  Uiso   1.00
C1161  C     0.52185   0.96236   0.38960   0.00000  Uiso   1.00
C1162  C     0.50447   0.95359   0.33791   0.00000  Uiso   1.00
C1163  C     0.55368   0.70542   0.60990   0.00000  Uiso   1.00
C1164  C     0.49852   0.91263   0.49955   0.00000  Uiso   1.00
C1165  C     0.55616   0.72656   0.65727   0.00000  Uiso   1.00
C1166  C     0.40830   0.75463   0.35014   0.00000  Uiso   1.00
C1167  C     0.35906   0.76470   0.64918   0.00000  Uiso   1.00
C1168  C     0.35272   0.73613   0.60683   0.00000  Uiso   1.00
C1169  C     0.62321   0.87073   0.64743   0.00000  Uiso   1.00
C1170  C     0.64634   0.91025   0.33586   0.00000  Uiso   1.00
C1171  C     0.37012   0.90476   0.35426   0.00000  Uiso   1.00
C1172  C     0.40122   0.83327   0.48780   0.00000  Uiso   1.00
C1173  C     0.59878   0.83309   0.51216   0.00000  Uiso   1.00
C1174  C     0.34584   0.83340   0.48110   0.00000  Uiso   1.00
C1175  C     0.65417   0.83248   0.51862   0.00000  Uiso   1.00
C1176  C     0.48984   0.68911   0.45770   0.00000  Uiso   1.00
C1177  C     0.50038   0.97783   0.54191   0.00000  Uiso   1.00
C1178  C     0.49010   0.97992   0.45635   0.00000  Uiso   1.00
Cu1179 Cu    0.50000   0.83334   0.54689   0.00000  Uiso   1.00
Cu1180 Cu    0.50000   0.83333   0.45311   0.00000  Uiso   1.00
H1181  H     0.65893   0.83449   0.44517   0.00000  Uiso   1.00
H1182  H     0.53867   0.94962   0.65330   0.00000  Uiso   1.00
H1183  H     0.48127   0.92529   0.33398   0.00000  Uiso   1.00
H1184  H     0.57906   0.72194   0.58856   0.00000  Uiso   1.00
H1185  H     0.56827   0.67353   0.61636   0.00000  Uiso   1.00
H1186  H     0.52379   0.71681   0.34207   0.00000  Uiso   1.00
H1187  H     0.59263   0.71829   0.34681   0.00000  Uiso   1.00
H1188  H     0.55430   0.76025   0.65207   0.00000  Uiso   1.00
H1189  H     0.39838   0.73198   0.37646   0.00000  Uiso   1.00
H1190  H     0.43812   0.73913   0.66592   0.00000  Uiso   1.00
H1191  H     0.65859   0.76243   0.33469   0.00000  Uiso   1.00
H1192  H     0.34127   0.83111   0.55439   0.00000  Uiso   1.00
H1193  H     0.35960   0.79675   0.63621   0.00000  Uiso   1.00
H1194  H     0.38856   0.73443   0.59065   0.00000  Uiso   1.00
H1195  H     0.65536   0.74821   0.57939   0.00000  Uiso   1.00
H1196  H     0.34267   0.70489   0.61786   0.00000  Uiso   1.00
H1197  H     0.64525   0.86182   0.61898   0.00000  Uiso   1.00
H1198  H     0.62860   0.84525   0.34065   0.00000  Uiso   1.00
H1199  H     0.64145   0.93513   0.64211   0.00000  Uiso   1.00
H1200  H     0.62604   0.91953   0.36547   0.00000  Uiso   1.00
H1201  H     0.37579   0.88071   0.38218   0.00000  Uiso   1.00
H1202  H     0.38585   0.93399   0.36944   0.00000  Uiso   1.00
H1203  H     0.48385   0.70601   0.42461   0.00000  Uiso   1.00
H1204  H     0.39145   0.89595   0.65844   0.00000  Uiso   1.00
H1205  H     0.50302   0.96087   0.57466   0.00000  Uiso   1.00
H1206  H     0.43694   0.79511   0.61311   0.00000  Uiso   1.00
H1207  H     0.56472   0.87119   0.38580   0.00000  Uiso   1.00
H1208  H     0.55042   0.93886   0.40468   0.00000  Uiso   1.00
H1209  H     0.54128   0.99260   0.39194   0.00000  Uiso   1.00
H1210  H     0.48046   0.97941   0.65464   0.00000  Uiso   1.00
N1211  N     0.50001   0.83334   0.61736   0.00000  Uiso   1.00
N1212  N     0.49999   0.83332   0.38264   0.00000  Uiso   1.00
O1213  O     0.50000   0.77322   0.53958   0.00000  Uiso   1.00
O1214  O     0.50259   0.70614   0.58649   0.00000  Uiso   1.00
O1215  O     0.42724   0.79005   0.37477   0.00000  Uiso   1.00
O1216  O     0.57161   0.87791   0.62643   0.00000  Uiso   1.00
O1217  O     0.50000   0.89345   0.46042   0.00000  Uiso   1.00
O1218  O     0.50000   0.77321   0.46039   0.00000  Uiso   1.00
O1219  O     0.50000   0.89346   0.53961   0.00000  Uiso   1.00
O1220  O     0.42495   0.83334   0.53046   0.00000  Uiso   1.00
O1221  O     0.57505   0.83333   0.46954   0.00000  Uiso   1.00
O1222  O     0.42494   0.83333   0.45127   0.00000  Uiso   1.00
O1223  O     0.57506   0.83334   0.54873   0.00000  Uiso   1.00
O1224  O     0.47858   0.96091   0.41336   0.00000  Uiso   1.00
C1225  C     0.83226   0.75410   0.50021   0.00000  Uiso   1.00
C1226  C     0.83453   0.68700   0.54344   0.00000  Uiso   1.00
C1227  C     0.82965   0.95733   0.49892   0.00000  Uiso   1.00
C1228  C     0.83011   0.70953   0.50077   0.00000  Uiso   1.00
C1229  C     0.79760   0.81092   0.35377   0.00000  Uiso   1.00
C1230  C     0.87049   0.85392   0.64657   0.00000  Uiso   1.00
C1231  C     0.79781   0.81174   0.63697   0.00000  Uiso   1.00
C1232  C     0.86976   0.85405   0.36298   0.00000  Uiso   1.00
C1233  C     0.85518   0.96236   0.38960   0.00000  Uiso   1.00
C1234  C     0.83780   0.95359   0.33791   0.00000  Uiso   1.00
C1235  C     0.88701   0.70542   0.60990   0.00000  Uiso   1.00
C1236  C     0.83185   0.91263   0.49955   0.00000  Uiso   1.00
C1237  C     0.88950   0.72656   0.65727   0.00000  Uiso   1.00
C1238  C     0.74163   0.75463   0.35014   0.00000  Uiso   1.00
C1239  C     0.69240   0.76470   0.64918   0.00000  Uiso   1.00
C1240  C     0.68606   0.73613   0.60683   0.00000  Uiso   1.00
C1241  C     0.95654   0.87073   0.64743   0.00000  Uiso   1.00
C1242  C     0.97967   0.91025   0.33586   0.00000  Uiso   1.00
C1243  C     0.70346   0.90476   0.35426   0.00000  Uiso   1.00
C1244  C     0.73456   0.83327   0.48780   0.00000  Uiso   1.00
C1245  C     0.93212   0.83309   0.51216   0.00000  Uiso   1.00
C1246  C     0.67917   0.83340   0.48110   0.00000  Uiso   1.00
C1247  C     0.98750   0.83248   0.51862   0.00000  Uiso   1.00
C1248  C     0.82318   0.68911   0.45770   0.00000  Uiso   1.00
C1249  C     0.83372   0.97783   0.54191   0.00000  Uiso   1.00
C1250  C     0.82343   0.97992   0.45635   0.00000  Uiso   1.00
Cu1251 Cu    0.83333   0.83334   0.54689   0.00000  Uiso   1.00
Cu1252 Cu    0.83333   0.83333   0.45311   0.00000  Uiso   1.00
H1253  H     0.99226   0.83449   0.44517   0.00000  Uiso   1.00
H1254  H     0.87200   0.94962   0.65330   0.00000  Uiso   1.00
H1255  H     0.81460   0.92529   0.33398   0.00000  Uiso   1.00
H1256  H     0.91239   0.72194   0.58856   0.00000  Uiso   1.00
H1257  H     0.90160   0.67353   0.61636   0.00000  Uiso   1.00
H1258  H     0.85712   0.71681   0.34207   0.00000  Uiso   1.00
H1259  H     0.92596   0.71829   0.34681   0.00000  Uiso   1.00
H1260  H     0.88763   0.76025   0.65207   0.00000  Uiso   1.00
H1261  H     0.73171   0.73198   0.37646   0.00000  Uiso   1.00
H1262  H     0.77145   0.73913   0.66592   0.00000  Uiso   1.00
H1263  H     0.99192   0.76243   0.33469   0.00000  Uiso   1.00
H1264  H     0.67460   0.83111   0.55439   0.00000  Uiso   1.00
H1265  H     0.69294   0.79675   0.63621   0.00000  Uiso   1.00
H1266  H     0.72189   0.73443   0.59065   0.00000  Uiso   1.00
H1267  H     0.98869   0.74821   0.57939   0.00000  Uiso   1.00
H1268  H     0.67600   0.70489   0.61786   0.00000  Uiso   1.00
H1269  H     0.97859   0.86182   0.61898   0.00000  Uiso   1.00
H1270  H     0.96193   0.84525   0.34065   0.00000  Uiso   1.00
H1271  H     0.97479   0.93513   0.64211   0.00000  Uiso   1.00
H1272  H     0.95938   0.91953   0.36547   0.00000  Uiso   1.00
H1273  H     0.70913   0.88071   0.38218   0.00000  Uiso   1.00
H1274  H     0.71918   0.93399   0.36944   0.00000  Uiso   1.00
H1275  H     0.81718   0.70601   0.42461   0.00000  Uiso   1.00
H1276  H     0.72478   0.89595   0.65844   0.00000  Uiso   1.00
H1277  H     0.83635   0.96087   0.57466   0.00000  Uiso   1.00
H1278  H     0.77028   0.79511   0.61311   0.00000  Uiso   1.00
H1279  H     0.89805   0.87119   0.38580   0.00000  Uiso   1.00
H1280  H     0.88375   0.93886   0.40468   0.00000  Uiso   1.00
H1281  H     0.87461   0.99260   0.39194   0.00000  Uiso   1.00
H1282  H     0.81380   0.97941   0.65464   0.00000  Uiso   1.00
N1283  N     0.83335   0.83334   0.61736   0.00000  Uiso   1.00
N1284  N     0.83332   0.83332   0.38264   0.00000  Uiso   1.00
O1285  O     0.83333   0.77322   0.53958   0.00000  Uiso   1.00
O1286  O     0.83592   0.70614   0.58649   0.00000  Uiso   1.00
O1287  O     0.76058   0.79005   0.37477   0.00000  Uiso   1.00
O1288  O     0.90494   0.87791   0.62643   0.00000  Uiso   1.00
O1289  O     0.83334   0.89345   0.46042   0.00000  Uiso   1.00
O1290  O     0.83333   0.77321   0.46039   0.00000  Uiso   1.00
O1291  O     0.83334   0.89346   0.53961   0.00000  Uiso   1.00
O1292  O     0.75828   0.83334   0.53046   0.00000  Uiso   1.00
O1293  O     0.90839   0.83333   0.46954   0.00000  Uiso   1.00
O1294  O     0.75828   0.83333   0.45127   0.00000  Uiso   1.00
O1295  O     0.90839   0.83334   0.54873   0.00000  Uiso   1.00
O1296  O     0.81191   0.96091   0.41336   0.00000  Uiso   1.00
C1297  C     0.16559   0.08743   0.83354   0.00000  Uiso   1.00
C1298  C     0.16786   0.02033   0.87678   0.00000  Uiso   1.00
C1299  C     0.16299   0.29067   0.83226   0.00000  Uiso   1.00
C1300  C     0.16345   0.04287   0.83410   0.00000  Uiso   1.00
C1301  C     0.13094   0.14425   0.68711   0.00000  Uiso   1.00
C1302  C     0.20382   0.18725   0.97991   0.00000  Uiso   1.00
C1303  C     0.13115   0.14507   0.97031   0.00000  Uiso   1.00
C1304  C     0.20310   0.18739   0.69631   0.00000  Uiso   1.00
C1305  C     0.18852   0.29569   0.72293   0.00000  Uiso   1.00
C1306  C     0.17113   0.28693   0.67124   0.00000  Uiso   1.00
C1307  C     0.22035   0.03875   0.94323   0.00000  Uiso   1.00
C1308  C     0.16519   0.24596   0.83288   0.00000  Uiso   1.00
C1309  C     0.22283   0.05990   0.99060   0.00000  Uiso   1.00
C1310  C     0.07497   0.08797   0.68348   0.00000  Uiso   1.00
C1311  C     0.02573   0.09803   0.98252   0.00000  Uiso   1.00
C1312  C     0.01939   0.06946   0.94016   0.00000  Uiso   1.00
C1313  C     0.28987   0.20407   0.98077   0.00000  Uiso   1.00
C1314  C     0.31301   0.24359   0.66919   0.00000  Uiso   1.00
C1315  C     0.03679   0.23810   0.68759   0.00000  Uiso   1.00
C1316  C     0.06789   0.16661   0.82113   0.00000  Uiso   1.00
C1317  C     0.26545   0.16642   0.84549   0.00000  Uiso   1.00
C1318  C     0.01251   0.16674   0.81444   0.00000  Uiso   1.00
C1319  C     0.32084   0.16581   0.85196   0.00000  Uiso   1.00
C1320  C     0.15651   0.02244   0.79103   0.00000  Uiso   1.00
C1321  C     0.16705   0.31116   0.87525   0.00000  Uiso   1.00
C1322  C     0.15677   0.31325   0.78968   0.00000  Uiso   1.00
Cu1323 Cu    0.16667   0.16667   0.88022   0.00000  Uiso   1.00
Cu1324 Cu    0.16667   0.16666   0.78645   0.00000  Uiso   1.00
H1325  H     0.32559   0.16782   0.77850   0.00000  Uiso   1.00
H1326  H     0.20534   0.28296   0.98663   0.00000  Uiso   1.00
H1327  H     0.14794   0.25862   0.66731   0.00000  Uiso   1.00
H1328  H     0.24573   0.05527   0.92189   0.00000  Uiso   1.00
H1329  H     0.23493   0.00686   0.94969   0.00000  Uiso   1.00
H1330  H     0.19046   0.05014   0.67540   0.00000  Uiso   1.00
H1331  H     0.25930   0.05162   0.68015   0.00000  Uiso   1.00
H1332  H     0.22097   0.09358   0.98540   0.00000  Uiso   1.00
H1333  H     0.06505   0.06531   0.70979   0.00000  Uiso   1.00
H1334  H     0.10479   0.07246   0.99925   0.00000  Uiso   1.00
H1335  H     0.32526   0.09577   0.66803   0.00000  Uiso   1.00
H1336  H     0.00794   0.16445   0.88772   0.00000  Uiso   1.00
H1337  H     0.02627   0.13009   0.96954   0.00000  Uiso   1.00
H1338  H     0.05522   0.06776   0.92398   0.00000  Uiso   1.00
H1339  H     0.32202   0.08154   0.91272   0.00000  Uiso   1.00
H1340  H     0.00933   0.03822   0.95120   0.00000  Uiso   1.00
H1341  H     0.31192   0.19515   0.95231   0.00000  Uiso   1.00
H1342  H     0.29527   0.17858   0.67398   0.00000  Uiso   1.00
H1343  H     0.30812   0.26847   0.97545   0.00000  Uiso   1.00
H1344  H     0.29271   0.25286   0.69880   0.00000  Uiso   1.00
H1345  H     0.04246   0.21405   0.71552   0.00000  Uiso   1.00
H1346  H     0.05251   0.26732   0.70277   0.00000  Uiso   1.00
H1347  H     0.15052   0.03935   0.75795   0.00000  Uiso   1.00
H1348  H     0.05811   0.22928   0.99177   0.00000  Uiso   1.00
H1349  H     0.16969   0.29420   0.90800   0.00000  Uiso   1.00
H1350  H     0.10361   0.12844   0.94644   0.00000  Uiso   1.00
H1351  H     0.23138   0.20452   0.71913   0.00000  Uiso   1.00
H1352  H     0.21709   0.27219   0.73802   0.00000  Uiso   1.00
H1353  H     0.20794   0.32594   0.72528   0.00000  Uiso   1.00
H1354  H     0.14713   0.31274   0.98797   0.00000  Uiso   1.00
N1355  N     0.16668   0.16668   0.95069   0.00000  Uiso   1.00
N1356  N     0.16665   0.16666   0.71597   0.00000  Uiso   1.00
O1357  O     0.16666   0.10655   0.87291   0.00000  Uiso   1.00
O1358  O     0.16925   0.03948   0.91983   0.00000  Uiso   1.00
O1359  O     0.09391   0.12338   0.70810   0.00000  Uiso   1.00
O1360  O     0.23828   0.21125   0.95976   0.00000  Uiso   1.00
O1361  O     0.16667   0.22678   0.79375   0.00000  Uiso   1.00
O1362  O     0.16666   0.10654   0.79372   0.00000  Uiso   1.00
O1363  O     0.16667   0.22679   0.87294   0.00000  Uiso   1.00
O1364  O     0.09161   0.16667   0.86379   0.00000  Uiso   1.00
O1365  O     0.24172   0.16666   0.80288   0.00000  Uiso   1.00
O1366  O     0.09161   0.16666   0.78460   0.00000  Uiso   1.00
O1367  O     0.24172   0.16667   0.88207   0.00000  Uiso   1.00
O1368  O     0.14525   0.29424   0.74669   0.00000  Uiso   1.00
C1369  C     0.49892   0.08743   0.83354   0.00000  Uiso   1.00
C1370  C     0.50119   0.02033   0.87678   0.00000  Uiso   1.00
C1371  C     0.49632   0.29067   0.83226   0.00000  Uiso   1.00
C1372  C     0.49678   0.04287   0.83410   0.00000  Uiso   1.00
C1373  C     0.46427   0.14425   0.68711   0.00000  Uiso   1.00
C1374  C     0.53715   0.18725   0.97991   0.00000  Uiso   1.00
C1375  C     0.46448   0.14507   0.97031   0.00000  Uiso   1.00
C1376  C     0.53643   0.18739   0.69631   0.00000  Uiso   1.00
C1377  C     0.52185   0.29569   0.72293   0.00000  Uiso   1.00
C1378  C     0.50447   0.28693   0.67124   0.00000  Uiso   1.00
C1379  C     0.55368   0.03875   0.94323   0.00000  Uiso   1.00
C1380  C     0.49852   0.24596   0.83288   0.00000  Uiso   1.00
C1381  C     0.55616   0.05990   0.99060   0.00000  Uiso   1.00
C1382  C     0.40830   0.08797   0.68348   0.00000  Uiso   1.00
C1383  C     0.35906   0.09803   0.98252   0.00000  Uiso   1.00
C1384  C     0.35272   0.06946   0.94016   0.00000  Uiso   1.00
C1385  C     0.62321   0.20407   0.98077   0.00000  Uiso   1.00
C1386  C     0.64634   0.24359   0.66919   0.00000  Uiso   1.00
C1387  C     0.37012   0.23810   0.68759   0.00000  Uiso   1.00
C1388  C     0.40122   0.16661   0.82113   0.00000  Uiso   1.00
C1389  C     0.59878   0.16642   0.84549   0.00000  Uiso   1.00
C1390  C     0.34584   0.16674   0.81444   0.00000  Uiso   1.00
C1391  C     0.65417   0.16581   0.85196   0.00000  Uiso   1.00
C1392  C     0.48984   0.02244   0.79103   0.00000  Uiso   1.00
C1393  C     0.50038   0.31116   0.87525   0.00000  Uiso   1.00
C1394  C     0.49010   0.31325   0.78968   0.00000  Uiso   1.00
Cu1395 Cu    0.50000   0.16667   0.88022   0.00000  Uiso   1.00
Cu1396 Cu    0.50000   0.16666   0.78645   0.00000  Uiso   1.00
H1397  H     0.65893   0.16782   0.77850   0.00000  Uiso   1.00
H1398  H     0.53867   0.28296   0.98663   0.00000  Uiso   1.00
H1399  H     0.48127   0.25862   0.66731   0.00000  Uiso   1.00
H1400  H     0.57906   0.05527   0.92189   0.00000  Uiso   1.00
H1401  H     0.56827   0.00686   0.94969   0.00000  Uiso   1.00
H1402  H     0.52379   0.05014   0.67540   0.00000  Uiso   1.00
H1403  H     0.59263   0.05162   0.68015   0.00000  Uiso   1.00
H1404  H     0.55430   0.09358   0.98540   0.00000  Uiso   1.00
H1405  H     0.39838   0.06531   0.70979   0.00000  Uiso   1.00
H1406  H     0.43812   0.07246   0.99925   0.00000  Uiso   1.00
H1407  H     0.65859   0.09577   0.66803   0.00000  Uiso   1.00
H1408  H     0.34127   0.16445   0.88772   0.00000  Uiso   1.00
H1409  H     0.35960   0.13009   0.96954   0.00000  Uiso   1.00
H1410  H     0.38856   0.06776   0.92398   0.00000  Uiso   1.00
H1411  H     0.65536   0.08154   0.91272   0.00000  Uiso   1.00
H1412  H     0.34267   0.03822   0.95120   0.00000  Uiso   1.00
H1413  H     0.64525   0.19515   0.95231   0.00000  Uiso   1.00
H1414  H     0.62860   0.17858   0.67398   0.00000  Uiso   1.00
H1415  H     0.64145   0.26847   0.97545   0.00000  Uiso   1.00
H1416  H     0.62604   0.25286   0.69880   0.00000  Uiso   1.00
H1417  H     0.37579   0.21405   0.71552   0.00000  Uiso   1.00
H1418  H     0.38585   0.26732   0.70277   0.00000  Uiso   1.00
H1419  H     0.48385   0.03935   0.75795   0.00000  Uiso   1.00
H1420  H     0.39145   0.22928   0.99177   0.00000  Uiso   1.00
H1421  H     0.50302   0.29420   0.90800   0.00000  Uiso   1.00
H1422  H     0.43694   0.12844   0.94644   0.00000  Uiso   1.00
H1423  H     0.56472   0.20452   0.71913   0.00000  Uiso   1.00
H1424  H     0.55042   0.27219   0.73802   0.00000  Uiso   1.00
H1425  H     0.54128   0.32594   0.72528   0.00000  Uiso   1.00
H1426  H     0.48046   0.31274   0.98797   0.00000  Uiso   1.00
N1427  N     0.50001   0.16668   0.95069   0.00000  Uiso   1.00
N1428  N     0.49999   0.16666   0.71597   0.00000  Uiso   1.00
O1429  O     0.50000   0.10655   0.87291   0.00000  Uiso   1.00
O1430  O     0.50259   0.03948   0.91983   0.00000  Uiso   1.00
O1431  O     0.42724   0.12338   0.70810   0.00000  Uiso   1.00
O1432  O     0.57161   0.21125   0.95976   0.00000  Uiso   1.00
O1433  O     0.50000   0.22678   0.79375   0.00000  Uiso   1.00
O1434  O     0.50000   0.10654   0.79372   0.00000  Uiso   1.00
O1435  O     0.50000   0.22679   0.87294   0.00000  Uiso   1.00
O1436  O     0.42495   0.16667   0.86379   0.00000  Uiso   1.00
O1437  O     0.57505   0.16666   0.80288   0.00000  Uiso   1.00
O1438  O     0.42494   0.16666   0.78460   0.00000  Uiso   1.00
O1439  O     0.57506   0.16667   0.88207   0.00000  Uiso   1.00
O1440  O     0.47858   0.29424   0.74669   0.00000  Uiso   1.00
C1441  C     0.83226   0.08743   0.83354   0.00000  Uiso   1.00
C1442  C     0.83453   0.02033   0.87678   0.00000  Uiso   1.00
C1443  C     0.82965   0.29067   0.83226   0.00000  Uiso   1.00
C1444  C     0.83011   0.04287   0.83410   0.00000  Uiso   1.00
C1445  C     0.79760   0.14425   0.68711   0.00000  Uiso   1.00
C1446  C     0.87049   0.18725   0.97991   0.00000  Uiso   1.00
C1447  C     0.79781   0.14507   0.97031   0.00000  Uiso   1.00
C1448  C     0.86976   0.18739   0.69631   0.00000  Uiso   1.00
C1449  C     0.85518   0.29569   0.72293   0.00000  Uiso   1.00
C1450  C     0.83780   0.28693   0.67124   0.00000  Uiso   1.00
C1451  C     0.88701   0.03875   0.94323   0.00000  Uiso   1.00
C1452  C     0.83185   0.24596   0.83288   0.00000  Uiso   1.00
C1453  C     0.88950   0.05990   0.99060   0.00000  Uiso   1.00
C1454  C     0.74163   0.08797   0.68348   0.00000  Uiso   1.00
C1455  C     0.69240   0.09803   0.98252   0.00000  Uiso   1.00
C1456  C     0.68606   0.06946   0.94016   0.00000  Uiso   1.00
C1457  C     0.95654   0.20407   0.98077   0.00000  Uiso   1.00
C1458  C     0.97967   0.24359   0.66919   0.00000  Uiso   1.00
C1459  C     0.70346   0.23810   0.68759   0.00000  Uiso   1.00
C1460  C     0.73456   0.16661   0.82113   0.00000  Uiso   1.00
C1461  C     0.93212   0.16642   0.84549   0.00000  Uiso   1.00
C1462  C     0.67917   0.16674   0.81444   0.00000  Uiso   1.00
C1463  C     0.98750   0.16581   0.85196   0.00000  Uiso   1.00
C1464  C     0.82318   0.02244   0.79103   0.00000  Uiso   1.00
C1465  C     0.83372   0.31116   0.87525   0.00000  Uiso   1.00
C1466  C     0.82343   0.31325   0.78968   0.00000  Uiso   1.00
Cu1467 Cu    0.83333   0.16667   0.88022   0.00000  Uiso   1.00
Cu1468 Cu    0.83333   0.16666   0.78645   0.00000  Uiso   1.00
H1469  H     0.99226   0.16782   0.77850   0.00000  Uiso   1.00
H1470  H     0.87200   0.28296   0.98663   0.00000  Uiso   1.00
H1471  H     0.81460   0.25862   0.66731   0.00000  Uiso   1.00
H1472  H     0.91239   0.05527   0.92189   0.00000  Uiso   1.00
H1473  H     0.90160   0.00686   0.94969   0.00000  Uiso   1.00
H1474  H     0.85712   0.05014   0.67540   0.00000  Uiso   1.00
H1475  H     0.92596   0.05162   0.68015   0.00000  Uiso   1.00
H1476  H     0.88763   0.09358   0.98540   0.00000  Uiso   1.00
H1477  H     0.73171   0.06531   0.70979   0.00000  Uiso   1.00
H1478  H     0.77145   0.07246   0.99925   0.00000  Uiso   1.00
H1479  H     0.99192   0.09577   0.66803   0.00000  Uiso   1.00
H1480  H     0.67460   0.16445   0.88772   0.00000  Uiso   1.00
H1481  H     0.69294   0.13009   0.96954   0.00000  Uiso   1.00
H1482  H     0.72189   0.06776   0.92398   0.00000  Uiso   1.00
H1483  H     0.98869   0.08154   0.91272   0.00000  Uiso   1.00
H1484  H     0.67600   0.03822   0.95120   0.00000  Uiso   1.00
H1485  H     0.97859   0.19515   0.95231   0.00000  Uiso   1.00
H1486  H     0.96193   0.17858   0.67398   0.00000  Uiso   1.00
H1487  H     0.97479   0.26847   0.97545   0.00000  Uiso   1.00
H1488  H     0.95938   0.25286   0.69880   0.00000  Uiso   1.00
H1489  H     0.70913   0.21405   0.71552   0.00000  Uiso   1.00
H1490  H     0.71918   0.26732   0.70277   0.00000  Uiso   1.00
H1491  H     0.81718   0.03935   0.75795   0.00000  Uiso   1.00
H1492  H     0.72478   0.22928   0.99177   0.00000  Uiso   1.00
H1493  H     0.83635   0.29420   0.90800   0.00000  Uiso   1.00
H1494  H     0.77028   0.12844   0.94644   0.00000  Uiso   1.00
H1495  H     0.89805   0.20452   0.71913   0.00000  Uiso   1.00
H1496  H     0.88375   0.27219   0.73802   0.00000  Uiso   1.00
H1497  H     0.87461   0.32594   0.72528   0.00000  Uiso   1.00
H1498  H     0.81380   0.31274   0.98797   0.00000  Uiso   1.00
N1499  N     0.83335   0.16668   0.95069   0.00000  Uiso   1.00
N1500  N     0.83332   0.16666   0.71597   0.00000  Uiso   1.00
O1501  O     0.83333   0.10655   0.87291   0.00000  Uiso   1.00
O1502  O     0.83592   0.03948   0.91983   0.00000  Uiso   1.00
O1503  O     0.76058   0.12338   0.70810   0.00000  Uiso   1.00
O1504  O     0.90494   0.21125   0.95976   0.00000  Uiso   1.00
O1505  O     0.83334   0.22678   0.79375   0.00000  Uiso   1.00
O1506  O     0.83333   0.10654   0.79372   0.00000  Uiso   1.00
O1507  O     0.83334   0.22679   0.87294   0.00000  Uiso   1.00
O1508  O     0.75828   0.16667   0.86379   0.00000  Uiso   1.00
O1509  O     0.90839   0.16666   0.80288   0.00000  Uiso   1.00
O1510  O     0.75828   0.16666   0.78460   0.00000  Uiso   1.00
O1511  O     0.90839   0.16667   0.88207   0.00000  Uiso   1.00
O1512  O     0.81191   0.29424   0.74669   0.00000  Uiso   1.00
C1513  C     0.16559   0.42076   0.83354   0.00000  Uiso   1.00
C1514  C     0.16786   0.35366   0.87678   0.00000  Uiso   1.00
C1515  C     0.16299   0.62400   0.83226   0.00000  Uiso   1.00
C1516  C     0.16345   0.37620   0.83410   0.00000  Uiso   1.00
C1517  C     0.13094   0.47758   0.68711   0.00000  Uiso   1.00
C1518  C     0.20382   0.52059   0.97991   0.00000  Uiso   1.00
C1519  C     0.13115   0.47840   0.97031   0.00000  Uiso   1.00
C1520  C     0.20310   0.52072   0.69631   0.00000  Uiso   1.00
C1521  C     0.18852   0.62903   0.72293   0.00000  Uiso   1.00
C1522  C     0.17113   0.62026   0.67124   0.00000  Uiso   1.00
C1523  C     0.22035   0.37209   0.94323   0.00000  Uiso   1.00
C1524  C     0.16519   0.57930   0.83288   0.00000  Uiso   1.00
C1525  C     0.22283   0.39323   0.99060   0.00000  Uiso   1.00
C1526  C     0.07497   0.42130   0.68348   0.00000  Uiso   1.00
C1527  C     0.02573   0.43136   0.98252   0.00000  Uiso   1.00
C1528  C     0.01939   0.40280   0.94016   0.00000  Uiso   1.00
C1529  C     0.28987   0.53740   0.98077   0.00000  Uiso   1.00
C1530  C     0.31301   0.57692   0.66919   0.00000  Uiso   1.00
C1531  C     0.03679   0.57143   0.68759   0.00000  Uiso   1.00
C1532  C     0.06789   0.49994   0.82113   0.00000  Uiso   1.00
C1533  C     0.26545   0.49975   0.84549   0.00000  Uiso   1.00
C1534  C     0.01251   0.50007   0.81444   0.00000  Uiso   1.00
C1535  C     0.32084   0.49915   0.85196   0.00000  Uiso   1.00
C1536  C     0.15651   0.35577   0.79103   0.00000  Uiso   1.00
C1537  C     0.16705   0.64450   0.87525   0.00000  Uiso   1.00
C1538  C     0.15677   0.64659   0.78968   0.00000  Uiso   1.00
Cu1539 Cu    0.16667   0.50001   0.88022   0.00000  Uiso   1.00
Cu1540 Cu    0.16667   0.49999   0.78645   0.00000  Uiso   1.00
H1541  H     0.32559   0.50115   0.77850   0.00000  Uiso   1.00
H1542  H     0.20534   0.61629   0.98663   0.00000  Uiso   1.00
H1543  H     0.14794   0.59195   0.66731   0.00000  Uiso   1.00
H1544  H     0.24573   0.38861   0.92189   0.00000  Uiso   1.00
H1545  H     0.23493   0.34020   0.94969   0.00000  Uiso   1.00
H1546  H     0.19046   0.38347   0.67540   0.00000  Uiso   1.00
H1547  H     0.25930   0.38495   0.68015   0.00000  Uiso   1.00
H1548  H     0.22097   0.42692   0.98540   0.00000  Uiso   1.00
H1549  H     0.06505   0.39865   0.70979   0.00000  Uiso   1.00
H1550  H     0.10479   0.40580   0.99925   0.00000  Uiso   1.00
H1551  H     0.32526   0.42910   0.66803   0.00000  Uiso   1.00
H1552  H     0.00794   0.49778   0.88772   0.00000  Uiso   1.00
H1553  H     0.02627   0.46342   0.96954   0.00000  Uiso   1.00
H1554  H     0.05522   0.40109   0.92398   0.00000  Uiso   1.00
H1555  H     0.32202   0.41488   0.91272   0.00000  Uiso   1.00
H1556  H     0.00933   0.37155   0.95120   0.00000  Uiso   1.00
H1557  H     0.31192   0.52848   0.95231   0.00000  Uiso   1.00
H1558  H     0.29527   0.51191   0.67398   0.00000  Uiso   1.00
H1559  H     0.30812   0.60180   0.97545   0.00000  Uiso   1.00
H1560  H     0.29271   0.58619   0.69880   0.00000  Uiso   1.00
H1561  H     0.04246   0.54738   0.71552   0.00000  Uiso   1.00
H1562  H     0.05251   0.60065   0.70277   0.00000  Uiso   1.00
H1563  H     0.15052   0.37268   0.75795   0.00000  Uiso   1.00
H1564  H     0.05811   0.56262   0.99177   0.00000  Uiso   1.00
H1565  H     0.16969   0.62754   0.90800   0.00000  Uiso   1.00
H1566  H     0.10361   0.46178   0.94644   0.00000  Uiso   1.00
H1567  H     0.23138   0.53785   0.71913   0.00000  Uiso   1.00
H1568  H     0.21709   0.60553   0.73802   0.00000  Uiso   1.00
H1569  H     0.20794   0.65927   0.72528   0.00000  Uiso   1.00
H1570  H     0.14713   0.64608   0.98797   0.00000  Uiso   1.00
N1571  N     0.16668   0.50001   0.95069   0.00000  Uiso   1.00
N1572  N     0.16665   0.49999   0.71597   0.00000  Uiso   1.00
O1573  O     0.16666   0.43989   0.87291   0.00000  Uiso   1.00
O1574  O     0.16925   0.37281   0.91983   0.00000  Uiso   1.00
O1575  O     0.09391   0.45672   0.70810   0.00000  Uiso   1.00
O1576  O     0.23828   0.54458   0.95976   0.00000  Uiso   1.00
O1577  O     0.16667   0.56011   0.79375   0.00000  Uiso   1.00
O1578  O     0.16666   0.43988   0.79372   0.00000  Uiso   1.00
O1579  O     0.16667   0.56012   0.87294   0.00000  Uiso   1.00
O1580  O     0.09161   0.50000   0.86379   0.00000  Uiso   1.00
O1581  O     0.24172   0.50000   0.80288   0.00000  Uiso   1.00
O1582  O     0.09161   0.49999   0.78460   0.00000  Uiso   1.00
O1583  O     0.24172   0.50001   0.88207   0.00000  Uiso   1.00
O1584  O     0.14525   0.62758   0.74669   0.00000  Uiso   1.00
C1585  C     0.49892   0.42076   0.83354   0.00000  Uiso   1.00
C1586  C     0.50119   0.35366   0.87678   0.00000  Uiso   1.00
C1587  C     0.49632   0.62400   0.83226   0.00000  Uiso   1.00
C1588  C     0.49678   0.37620   0.83410   0.00000  Uiso   1.00
C1589  C     0.46427   0.47758   0.68711   0.00000  Uiso   1.00
C1590  C     0.53715   0.52059   0.97991   0.00000  Uiso   1.00
C1591  C     0.46448   0.47840   0.97031   0.00000  Uiso   1.00
C1592  C     0.53643   0.52072   0.69631   0.00000  Uiso   1.00
C1593  C     0.52185   0.62903   0.72293   0.00000  Uiso   1.00
C1594  C     0.50447   0.62026   0.67124   0.00000  Uiso   1.00
C1595  C     0.55368   0.37209   0.94323   0.00000  Uiso   1.00
C1596  C     0.49852   0.57930   0.83288   0.00000  Uiso   1.00
C1597  C     0.55616   0.39323   0.99060   0.00000  Uiso   1.00
C1598  C     0.40830   0.42130   0.68348   0.00000  Uiso   1.00
C1599  C     0.35906   0.43136   0.98252   0.00000  Uiso   1.00
C1600  C     0.35272   0.40280   0.94016   0.00000  Uiso   1.00
C1601  C     0.62321   0.53740   0.98077   0.00000  Uiso   1.00
C1602  C     0.64634   0.57692   0.66919   0.00000  Uiso   1.00
C1603  C     0.37012   0.57143   0.68759   0.00000  Uiso   1.00
C1604  C     0.40122   0.49994   0.82113   0.00000  Uiso   1.00
C1605  C     0.59878   0.49975   0.84549   0.00000  Uiso   1.00
C1606  C     0.34584   0.50007   0.81444   0.00000  Uiso   1.00
C1607  C     0.65417   0.49915   0.85196   0.00000  Uiso   1.00
C1608  C     0.48984   0.35577   0.79103   0.00000  Uiso   1.00
C1609  C     0.50038   0.64450   0.87525   0.00000  Uiso   1.00
C1610  C     0.49010   0.64659   0.78968   0.00000  Uiso   1.00
Cu1611 Cu    0.50000   0.50001   0.88022   0.00000  Uiso   1.00
Cu1612 Cu    0.50000   0.49999   0.78645   0.00000  Uiso   1.00
H1613  H     0.65893   0.50115   0.77850   0.00000  Uiso   1.00
H1614  H     0.53867   0.61629   0.98663   0.00000  Uiso   1.00
H1615  H     0.48127   0.59195   0.66731   0.00000  Uiso   1.00
H1616  H     0.57906   0.38861   0.92189   0.00000  Uiso   1.00
H1617  H     0.56827   0.34020   0.94969   0.00000  Uiso   1.00
H1618  H     0.52379   0.38347   0.67540   0.00000  Uiso   1.00
H1619  H     0.59263   0.38495   0.68015   0.00000  Uiso   1.00
H1620  H     0.55430   0.42692   0.98540   0.00000  Uiso   1.00
H1621  H     0.39838   0.39865   0.70979   0.00000  Uiso   1.00
H1622  H     0.43812   0.40580   0.99925   0.00000  Uiso   1.00
H1623  H     0.65859   0.42910   0.66803   0.00000  Uiso   1.00
H1624  H     0.34127   0.49778   0.88772   0.00000  Uiso   1.00
H1625  H     0.35960   0.46342   0.96954   0.00000  Uiso   1.00
H1626  H     0.38856   0.40109   0.92398   0.00000  Uiso   1.00
H1627  H     0.65536   0.41488   0.91272   0.00000  Uiso   1.00
H1628  H     0.34267   0.37155   0.95120   0.00000  Uiso   1.00
H1629  H     0.64525   0.52848   0.95231   0.00000  Uiso   1.00
H1630  H     0.62860   0.51191   0.67398   0.00000  Uiso   1.00
H1631  H     0.64145   0.60180   0.97545   0.00000  Uiso   1.00
H1632  H     0.62604   0.58619   0.69880   0.00000  Uiso   1.00
H1633  H     0.37579   0.54738   0.71552   0.00000  Uiso   1.00
H1634  H     0.38585   0.60065   0.70277   0.00000  Uiso   1.00
H1635  H     0.48385   0.37268   0.75795   0.00000  Uiso   1.00
H1636  H     0.39145   0.56262   0.99177   0.00000  Uiso   1.00
H1637  H     0.50302   0.62754   0.90800   0.00000  Uiso   1.00
H1638  H     0.43694   0.46178   0.94644   0.00000  Uiso   1.00
H1639  H     0.56472   0.53785   0.71913   0.00000  Uiso   1.00
H1640  H     0.55042   0.60553   0.73802   0.00000  Uiso   1.00
H1641  H     0.54128   0.65927   0.72528   0.00000  Uiso   1.00
H1642  H     0.48046   0.64608   0.98797   0.00000  Uiso   1.00
N1643  N     0.50001   0.50001   0.95069   0.00000  Uiso   1.00
N1644  N     0.49999   0.49999   0.71597   0.00000  Uiso   1.00
O1645  O     0.50000   0.43989   0.87291   0.00000  Uiso   1.00
O1646  O     0.50259   0.37281   0.91983   0.00000  Uiso   1.00
O1647  O     0.42724   0.45672   0.70810   0.00000  Uiso   1.00
O1648  O     0.57161   0.54458   0.95976   0.00000  Uiso   1.00
O1649  O     0.50000   0.56011   0.79375   0.00000  Uiso   1.00
O1650  O     0.50000   0.43988   0.79372   0.00000  Uiso   1.00
O1651  O     0.50000   0.56012   0.87294   0.00000  Uiso   1.00
O1652  O     0.42495   0.50000   0.86379   0.00000  Uiso   1.00
O1653  O     0.57505   0.50000   0.80288   0.00000  Uiso   1.00
O1654  O     0.42494   0.49999   0.78460   0.00000  Uiso   1.00
O1655  O     0.57506   0.50001   0.88207   0.00000  Uiso   1.00
O1656  O     0.47858   0.62758   0.74669   0.00000  Uiso   1.00
C1657  C     0.83226   0.42076   0.83354   0.00000  Uiso   1.00
C1658  C     0.83453   0.35366   0.87678   0.00000  Uiso   1.00
C1659  C     0.82965   0.62400   0.83226   0.00000  Uiso   1.00
C1660  C     0.83011   0.37620   0.83410   0.00000  Uiso   1.00
C1661  C     0.79760   0.47758   0.68711   0.00000  Uiso   1.00
C1662  C     0.87049   0.52059   0.97991   0.00000  Uiso   1.00
C1663  C     0.79781   0.47840   0.97031   0.00000  Uiso   1.00
C1664  C     0.86976   0.52072   0.69631   0.00000  Uiso   1.00
C1665  C     0.85518   0.62903   0.72293   0.00000  Uiso   1.00
C1666  C     0.83780   0.62026   0.67124   0.00000  Uiso   1.00
C1667  C     0.88701   0.37209   0.94323   0.00000  Uiso   1.00
C1668  C     0.83185   0.57930   0.83288   0.00000  Uiso   1.00
C1669  C     0.88950   0.39323   0.99060   0.00000  Uiso   1.00
C1670  C     0.74163   0.42130   0.68348   0.00000  Uiso   1.00
C1671  C     0.69240   0.43136   0.98252   0.00000  Uiso   1.00
C1672  C     0.68606   0.40280   0.94016   0.00000  Uiso   1.00
C1673  C     0.95654   0.53740   0.98077   0.00000  Uiso   1.00
C1674  C     0.97967   0.57692   0.66919   0.00000  Uiso   1.00
C1675  C     0.70346   0.57143   0.68759   0.00000  Uiso   1.00
C1676  C     0.73456   0.49994   0.82113   0.00000  Uiso   1.00
C1677  C     0.93212   0.49975   0.84549   0.00000  Uiso   1.00
C1678  C     0.67917   0.50007   0.81444   0.00000  Uiso   1.00
C1679  C     0.98750   0.49915   0.85196   0.00000  Uiso   1.00
C1680  C     0.82318   0.35577   0.79103   0.00000  Uiso   1.00
C1681  C     0.83372   0.64450   0.87525   0.00000  Uiso   1.00
C1682  C     0.82343   0.64659   0.78968   0.00000  Uiso   1.00
Cu1683 Cu    0.83333   0.50001   0.88022   0.00000  Uiso   1.00
Cu1684 Cu    0.83333   0.49999   0.78645   0.00000  Uiso   1.00
H1685  H     0.99226   0.50115   0.77850   0.00000  Uiso   1.00
H1686  H     0.87200   0.61629   0.98663   0.00000  Uiso   1.00
H1687  H     0.81460   0.59195   0.66731   0.00000  Uiso   1.00
H1688  H     0.91239   0.38861   0.92189   0.00000  Uiso   1.00
H1689  H     0.90160   0.34020   0.94969   0.00000  Uiso   1.00
H1690  H     0.85712   0.38347   0.67540   0.00000  Uiso   1.00
H1691  H     0.92596   0.38495   0.68015   0.00000  Uiso   1.00
H1692  H     0.88763   0.42692   0.98540   0.00000  Uiso   1.00
H1693  H     0.73171   0.39865   0.70979   0.00000  Uiso   1.00
H1694  H     0.77145   0.40580   0.99925   0.00000  Uiso   1.00
H1695  H     0.99192   0.42910   0.66803   0.00000  Uiso   1.00
H1696  H     0.67460   0.49778   0.88772   0.00000  Uiso   1.00
H1697  H     0.69294   0.46342   0.96954   0.00000  Uiso   1.00
H1698  H     0.72189   0.40109   0.92398   0.00000  Uiso   1.00
H1699  H     0.98869   0.41488   0.91272   0.00000  Uiso   1.00
H1700  H     0.67600   0.37155   0.95120   0.00000  Uiso   1.00
H1701  H     0.97859   0.52848   0.95231   0.00000  Uiso   1.00
H1702  H     0.96193   0.51191   0.67398   0.00000  Uiso   1.00
H1703  H     0.97479   0.60180   0.97545   0.00000  Uiso   1.00
H1704  H     0.95938   0.58619   0.69880   0.00000  Uiso   1.00
H1705  H     0.70913   0.54738   0.71552   0.00000  Uiso   1.00
H1706  H     0.71918   0.60065   0.70277   0.00000  Uiso   1.00
H1707  H     0.81718   0.37268   0.75795   0.00000  Uiso   1.00
H1708  H     0.72478   0.56262   0.99177   0.00000  Uiso   1.00
H1709  H     0.83635   0.62754   0.90800   0.00000  Uiso   1.00
H1710  H     0.77028   0.46178   0.94644   0.00000  Uiso   1.00
H1711  H     0.89805   0.53785   0.71913   0.00000  Uiso   1.00
H1712  H     0.88375   0.60553   0.73802   0.00000  Uiso   1.00
H1713  H     0.87461   0.65927   0.72528   0.00000  Uiso   1.00
H1714  H     0.81380   0.64608   0.98797   0.00000  Uiso   1.00
N1715  N     0.83335   0.50001   0.95069   0.00000  Uiso   1.00
N1716  N     0.83332   0.49999   0.71597   0.00000  Uiso   1.00
O1717  O     0.83333   0.43989   0.87291   0.00000  Uiso   1.00
O1718  O     0.83592   0.37281   0.91983   0.00000  Uiso   1.00
O1719  O     0.76058   0.45672   0.70810   0.00000  Uiso   1.00
O1720  O     0.90494   0.54458   0.95976   0.00000  Uiso   1.00
O1721  O     0.83334   0.56011   0.79375   0.00000  Uiso   1.00
O1722  O     0.83333   0.43988   0.79372   0.00000  Uiso   1.00
O1723  O     0.83334   0.56012   0.87294   0.00000  Uiso   1.00
O1724  O     0.75828   0.50000   0.86379   0.00000  Uiso   1.00
O1725  O     0.90839   0.50000   0.80288   0.00000  Uiso   1.00
O1726  O     0.75828   0.49999   0.78460   0.00000  Uiso   1.00
O1727  O     0.90839   0.50001   0.88207   0.00000  Uiso   1.00
O1728  O     0.81191   0.62758   0.74669   0.00000  Uiso   1.00
C1729  C     0.16559   0.75410   0.83354   0.00000  Uiso   1.00
C1730  C     0.16786   0.68700   0.87678   0.00000  Uiso   1.00
C1731  C     0.16299   0.95733   0.83226   0.00000  Uiso   1.00
C1732  C     0.16345   0.70953   0.83410   0.00000  Uiso   1.00
C1733  C     0.13094   0.81092   0.68711   0.00000  Uiso   1.00
C1734  C     0.20382   0.85392   0.97991   0.00000  Uiso   1.00
C1735  C     0.13115   0.81174   0.97031   0.00000  Uiso   1.00
C1736  C     0.20310   0.85405   0.69631   0.00000  Uiso   1.00
C1737  C     0.18852   0.96236   0.72293   0.00000  Uiso   1.00
C1738  C     0.17113   0.95359   0.67124   0.00000  Uiso   1.00
C1739  C     0.22035   0.70542   0.94323   0.00000  Uiso   1.00
C1740  C     0.16519   0.91263   0.83288   0.00000  Uiso   1.00
C1741  C     0.22283   0.72656   0.99060   0.00000  Uiso   1.00
C1742  C     0.07497   0.75463   0.68348   0.00000  Uiso   1.00
C1743  C     0.02573   0.76470   0.98252   0.00000  Uiso   1.00
C1744  C     0.01939   0.73613   0.94016   0.00000  Uiso   1.00
C1745  C     0.28987   0.87073   0.98077   0.00000  Uiso   1.00
C1746  C     0.31301   0.91025   0.66919   0.00000  Uiso   1.00
C1747  C     0.03679   0.90476   0.68759   0.00000  Uiso   1.00
C1748  C     0.06789   0.83327   0.82113   0.00000  Uiso   1.00
C1749  C     0.26545   0.83309   0.84549   0.00000  Uiso   1.00
C1750  C     0.01251   0.83340   0.81444   0.00000  Uiso   1.00
C1751  C     0.32084   0.83248   0.85196   0.00000  Uiso   1.00
C1752  C     0.15651   0.68911   0.79103   0.00000  Uiso   1.00
C1753  C     0.16705   0.97783   0.87525   0.00000  Uiso   1.00
C1754  C     0.15677   0.97992   0.78968   0.00000  Uiso   1.00
Cu1755 Cu    0.16667   0.83334   0.88022   0.00000  Uiso   1.00
Cu1756 Cu    0.16667   0.83333   0.78645   0.00000  Uiso   1.00
H1757  H     0.32559   0.83449   0.77850   0.00000  Uiso   1.00
H1758  H     0.20534   0.94962   0.98663   0.00000  Uiso   1.00
H1759  H     0.14794   0.92529   0.66731   0.00000  Uiso   1.00
H1760  H     0.24573   0.72194   0.92189   0.00000  Uiso   1.00
H1761  H     0.23493   0.67353   0.94969   0.00000  Uiso   1.00
H1762  H     0.19046   0.71681   0.67540   0.00000  Uiso   1.00
H1763  H     0.25930   0.71829   0.68015   0.00000  Uiso   1.00
H1764  H     0.22097   0.76025   0.98540   0.00000  Uiso   1.00
H1765  H     0.06505   0.73198   0.70979   0.00000  Uiso   1.00
H1766  H     0.10479   0.73913   0.99925   0.00000  Uiso   1.00
H1767  H     0.32526   0.76243   0.66803   0.00000  Uiso   1.00
H1768  H     0.00794   0.83111   0.88772   0.00000  Uiso   1.00
H1769  H     0.02627   0.79675   0.96954   0.00000  Uiso   1.00
H1770  H     0.05522   0.73443   0.92398   0.00000  Uiso   1.00
H1771  H     0.32202   0.74821   0.91272   0.00000  Uiso   1.00
H1772  H     0.00933   0.70489   0.95120   0.00000  Uiso   1.00
H1773  H     0.31192   0.86182   0.95231   0.00000  Uiso   1.00
H1774  H     0.29527   0.84525   0.67398   0.00000  Uiso   1.00
H1775  H     0.30812   0.93513   0.97545   0.00000  Uiso   1.00
H1776  H     0.29271   0.91953   0.69880   0.00000  Uiso   1.00
H1777  H     0.04246   0.88071   0.71552   0.00000  Uiso   1.00
H1778  H     0.05251   0.93399   0.70277   0.00000  Uiso   1.00
H1779  H     0.15052   0.70601   0.75795   0.00000  Uiso   1.00
H1780  H     0.05811   0.89595   0.99177   0.00000  Uiso   1.00
H1781  H     0.16969   0.96087   0.90800   0.00000  Uiso   1.00
H1782  H     0.10361   0.79511   0.94644   0.00000  Uiso   1.00
H1783  H     0.23138   0.87119   0.71913   0.00000  Uiso   1.00
H1784  H     0.21709   0.93886   0.73802   0.00000  Uiso   1.00
H1785  H     0.20794   0.99260   0.72528   0.00000  Uiso   1.00
H1786  H     0.14713   0.97941   0.98797   0.00000  Uiso   1.00
N1787  N     0.16668   0.83334   0.95069   0.00000  Uiso   1.00
N1788  N     0.16665   0.83332   0.71597   0.00000  Uiso   1.00
O1789  O     0.16666   0.77322   0.87291   0.00000  Uiso   1.00
O1790  O     0.16925   0.70614   0.91983   0.00000  Uiso   1.00
O1791  O     0.09391   0.79005   0.70810   0.00000  Uiso   1.00
O1792  O     0.23828   0.87791   0.95976   0.00000  Uiso   1.00
O1793  O     0.16667   0.89345   0.79375   0.00000  Uiso   1.00
O1794  O     0.16666   0.77321   0.79372   0.00000  Uiso   1.00
O1795  O     0.16667   0.89346   0.87294   0.00000  Uiso   1.00
O1796  O     0.09161   0.83334   0.86379   0.00000  Uiso   1.00
O1797  O     0.24172   0.83333   0.80288   0.00000  Uiso   1.00
O1798  O     0.09161   0.83333   0.78460   0.00000  Uiso   1.00
O1799  O     0.24172   0.83334   0.88207   0.00000  Uiso   1.00
O1800  O     0.14525   0.96091   0.74669   0.00000  Uiso   1.00
C1801  C     0.49892   0.75410   0.83354   0.00000  Uiso   1.00
C1802  C     0.50119   0.68700   0.87678   0.00000  Uiso   1.00
C1803  C     0.49632   0.95733   0.83226   0.00000  Uiso   1.00
C1804  C     0.49678   0.70953   0.83410   0.00000  Uiso   1.00
C1805  C     0.46427   0.81092   0.68711   0.00000  Uiso   1.00
C1806  C     0.53715   0.85392   0.97991   0.00000  Uiso   1.00
C1807  C     0.46448   0.81174   0.97031   0.00000  Uiso   1.00
C1808  C     0.53643   0.85405   0.69631   0.00000  Uiso   1.00
C1809  C     0.52185   0.96236   0.72293   0.00000  Uiso   1.00
C1810  C     0.50447   0.95359   0.67124   0.00000  Uiso   1.00
C1811  C     0.55368   0.70542   0.94323   0.00000  Uiso   1.00
C1812  C     0.49852   0.91263   0.83288   0.00000  Uiso   1.00
C1813  C     0.55616   0.72656   0.99060   0.00000  Uiso   1.00
C1814  C     0.40830   0.75463   0.68348   0.00000  Uiso   1.00
C1815  C     0.35906   0.76470   0.98252   0.00000  Uiso   1.00
C1816  C     0.35272   0.73613   0.94016   0.00000  Uiso   1.00
C1817  C     0.62321   0.87073   0.98077   0.00000  Uiso   1.00
C1818  C     0.64634   0.91025   0.66919   0.00000  Uiso   1.00
C1819  C     0.37012   0.90476   0.68759   0.00000  Uiso   1.00
C1820  C     0.40122   0.83327   0.82113   0.00000  Uiso   1.00
C1821  C     0.59878   0.83309   0.84549   0.00000  Uiso   1.00
C1822  C     0.34584   0.83340   0.81444   0.00000  Uiso   1.00
C1823  C     0.65417   0.83248   0.85196   0.00000  Uiso   1.00
C1824  C     0.48984   0.68911   0.79103   0.00000  Uiso   1.00
C1825  C     0.50038   0.97783   0.87525   0.00000  Uiso   1.00
C1826  C     0.49010   0.97992   0.78968   0.00000  Uiso   1.00
Cu1827 Cu    0.50000   0.83334   0.88022   0.00000  Uiso   1.00
Cu1828 Cu    0.50000   0.83333   0.78645   0.00000  Uiso   1.00
H1829  H     0.65893   0.83449   0.77850   0.00000  Uiso   1.00
H1830  H     0.53867   0.94962   0.98663   0.00000  Uiso   1.00
H1831  H     0.48127   0.92529   0.66731   0.00000  Uiso   1.00
H1832  H     0.57906   0.72194   0.92189   0.00000  Uiso   1.00
H1833  H     0.56827   0.67353   0.94969   0.00000  Uiso   1.00
H1834  H     0.52379   0.71681   0.67540   0.00000  Uiso   1.00
H1835  H     0.59263   0.71829   0.68015   0.00000  Uiso   1.00
H1836  H     0.55430   0.76025   0.98540   0.00000  Uiso   1.00
H1837  H     0.39838   0.73198   0.70979   0.00000  Uiso   1.00
H1838  H     0.43812   0.73913   0.99925   0.00000  Uiso   1.00
H1839  H     0.65859   0.76243   0.66803   0.00000  Uiso   1.00
H1840  H     0.34127   0.83111   0.88772   0.00000  Uiso   1.00
H1841  H     0.35960   0.79675   0.96954   0.00000  Uiso   1.00
H1842  H     0.38856   0.73443   0.92398   0.00000  Uiso   1.00
H1843  H     0.65536   0.74821   0.91272   0.00000  Uiso   1.00
H1844  H     0.34267   0.70489   0.95120   0.00000  Uiso   1.00
H1845  H     0.64525   0.86182   0.95231   0.00000  Uiso   1.00
H1846  H     0.62860   0.84525   0.67398   0.00000  Uiso   1.00
H1847  H     0.64145   0.93513   0.97545   0.00000  Uiso   1.00
H1848  H     0.62604   0.91953   0.69880   0.00000  Uiso   1.00
H1849  H     0.37579   0.88071   0.71552   0.00000  Uiso   1.00
H1850  H     0.38585   0.93399   0.70277   0.00000  Uiso   1.00
H1851  H     0.48385   0.70601   0.75795   0.00000  Uiso   1.00
H1852  H     0.39145   0.89595   0.99177   0.00000  Uiso   1.00
H1853  H     0.50302   0.96087   0.90800   0.00000  Uiso   1.00
H1854  H     0.43694   0.79511   0.94644   0.00000  Uiso   1.00
H1855  H     0.56472   0.87119   0.71913   0.00000  Uiso   1.00
H1856  H     0.55042   0.93886   0.73802   0.00000  Uiso   1.00
H1857  H     0.54128   0.99260   0.72528   0.00000  Uiso   1.00
H1858  H     0.48046   0.97941   0.98797   0.00000  Uiso   1.00
N1859  N     0.50001   0.83334   0.95069   0.00000  Uiso   1.00
N1860  N     0.49999   0.83332   0.71597   0.00000  Uiso   1.00
O1861  O     0.50000   0.77322   0.87291   0.00000  Uiso   1.00
O1862  O     0.50259   0.70614   0.91983   0.00000  Uiso   1.00
O1863  O     0.42724   0.79005   0.70810   0.00000  Uiso   1.00
O1864  O     0.57161   0.87791   0.95976   0.00000  Uiso   1.00
O1865  O     0.50000   0.89345   0.79375   0.00000  Uiso   1.00
O1866  O     0.50000   0.77321   0.79372   0.00000  Uiso   1.00
O1867  O     0.50000   0.89346   0.87294   0.00000  Uiso   1.00
O1868  O     0.42495   0.83334   0.86379   0.00000  Uiso   1.00
O1869  O     0.57505   0.83333   0.80288   0.00000  Uiso   1.00
O1870  O     0.42494   0.83333   0.78460   0.00000  Uiso   1.00
O1871  O     0.57506   0.83334   0.88207   0.00000  Uiso   1.00
O1872  O     0.47858   0.96091   0.74669   0.00000  Uiso   1.00
C1873  C     0.83226   0.75410   0.83354   0.00000  Uiso   1.00
C1874  C     0.83453   0.68700   0.87678   0.00000  Uiso   1.00
C1875  C     0.82965   0.95733   0.83226   0.00000  Uiso   1.00
C1876  C     0.83011   0.70953   0.83410   0.00000  Uiso   1.00
C1877  C     0.79760   0.81092   0.68711   0.00000  Uiso   1.00
C1878  C     0.87049   0.85392   0.97991   0.00000  Uiso   1.00
C1879  C     0.79781   0.81174   0.97031   0.00000  Uiso   1.00
C1880  C     0.86976   0.85405   0.69631   0.00000  Uiso   1.00
C1881  C     0.85518   0.96236   0.72293   0.00000  Uiso   1.00
C1882  C     0.83780   0.95359   0.67124   0.00000  Uiso   1.00
C1883  C     0.88701   0.70542   0.94323   0.00000  Uiso   1.00
C1884  C     0.83185   0.91263   0.83288   0.00000  Uiso   1.00
C1885  C     0.88950   0.72656   0.99060   0.00000  Uiso   1.00
C1886  C     0.74163   0.75463   0.68348   0.00000  Uiso   1.00
C1887  C     0.69240   0.76470   0.98252   0.00000  Uiso   1.00
C1888  C     0.68606   0.73613   0.94016   0.00000  Uiso   1.00
C1889  C     0.95654   0.87073   0.98077   0.00000  Uiso   1.00
C1890  C     0.97967   0.91025   0.66919   0.00000  Uiso   1.00
C1891  C     0.70346   0.90476   0.68759   0.00000  Uiso   1.00
C1892  C     0.73456   0.83327   0.82113   0.00000  Uiso   1.00
C1893  C     0.93212   0.83309   0.84549   0.00000  Uiso   1.00
C1894  C     0.67917   0.83340   0.81444   0.00000  Uiso   1.00
C1895  C     0.98750   0.83248   0.85196   0.00000  Uiso   1.00
C1896  C     0.82318   0.68911   0.79103   0.00000  Uiso   1.00
C1897  C     0.83372   0.97783   0.87525   0.00000  Uiso   1.00
C1898  C     0.82343   0.97992   0.78968   0.00000  Uiso   1.00
Cu1899 Cu    0.83333   0.83334   0.88022   0.00000  Uiso   1.00
Cu1900 Cu    0.83333   0.83333   0.78645   0.00000  Uiso   1.00
H1901  H     0.99226   0.83449   0.77850   0.00000  Uiso   1.00
H1902  H     0.87200   0.94962   0.98663   0.00000  Uiso   1.00
H1903  H     0.81460   0.92529   0.66731   0.00000  Uiso   1.00
H1904  H     0.91239   0.72194   0.92189   0.00000  Uiso   1.00
H1905  H     0.90160   0.67353   0.94969   0.00000  Uiso   1.00
H1906  H     0.85712   0.71681   0.67540   0.00000  Uiso   1.00
H1907  H     0.92596   0.71829   0.68015   0.00000  Uiso   1.00
H1908  H     0.88763   0.76025   0.98540   0.00000  Uiso   1.00
H1909  H     0.73171   0.73198   0.70979   0.00000  Uiso   1.00
H1910  H     0.77145   0.73913   0.99925   0.00000  Uiso   1.00
H1911  H     0.99192   0.76243   0.66803   0.00000  Uiso   1.00
H1912  H     0.67460   0.83111   0.88772   0.00000  Uiso   1.00
H1913  H     0.69294   0.79675   0.96954   0.00000  Uiso   1.00
H1914  H     0.72189   0.73443   0.92398   0.00000  Uiso   1.00
H1915  H     0.98869   0.74821   0.91272   0.00000  Uiso   1.00
H1916  H     0.67600   0.70489   0.95120   0.00000  Uiso   1.00
H1917  H     0.97859   0.86182   0.95231   0.00000  Uiso   1.00
H1918  H     0.96193   0.84525   0.67398   0.00000  Uiso   1.00
H1919  H     0.97479   0.93513   0.97545   0.00000  Uiso   1.00
H1920  H     0.95938   0.91953   0.69880   0.00000  Uiso   1.00
H1921  H     0.70913   0.88071   0.71552   0.00000  Uiso   1.00
H1922  H     0.71918   0.93399   0.70277   0.00000  Uiso   1.00
H1923  H     0.81718   0.70601   0.75795   0.00000  Uiso   1.00
H1924  H     0.72478   0.89595   0.99177   0.00000  Uiso   1.00
H1925  H     0.83635   0.96087   0.90800   0.00000  Uiso   1.00
H1926  H     0.77028   0.79511   0.94644   0.00000  Uiso   1.00
H1927  H     0.89805   0.87119   0.71913   0.00000  Uiso   1.00
H1928  H     0.88375   0.93886   0.73802   0.00000  Uiso   1.00
H1929  H     0.87461   0.99260   0.72528   0.00000  Uiso   1.00
H1930  H     0.81380   0.97941   0.98797   0.00000  Uiso   1.00
N1931  N     0.83335   0.83334   0.95069   0.00000  Uiso   1.00
N1932  N     0.83332   0.83332   0.71597   0.00000  Uiso   1.00
O1933  O     0.83333   0.77322   0.87291   0.00000  Uiso   1.00
O1934  O     0.83592   0.70614   0.91983   0.00000  Uiso   1.00
O1935  O     0.76058   0.79005   0.70810   0.00000  Uiso   1.00
O1936  O     0.90494   0.87791   0.95976   0.00000  Uiso   1.00
O1937  O     0.83334   0.89345   0.79375   0.00000  Uiso   1.00
O1938  O     0.83333   0.77321   0.79372   0.00000  Uiso   1.00
O1939  O     0.83334   0.89346   0.87294   0.00000  Uiso   1.00
O1940  O     0.75828   0.83334   0.86379   0.00000  Uiso   1.00
O1941  O     0.90839   0.83333   0.80288   0.00000  Uiso   1.00
O1942  O     0.75828   0.83333   0.78460   0.00000  Uiso   1.00
O1943  O     0.90839   0.83334   0.88207   0.00000  Uiso   1.00
O1944  O     0.81191   0.96091   0.74669   0.00000  Uiso   1.00
loop_
_geom_bond_atom_site_label_1
_geom_bond_atom_site_label_2
_geom_bond_distance
_geom_bond_site_symmetry_2
_ccdc_geom_bond_type
C1     O61     1.291   .     A
C1     C4      1.457   .     S
C1     O66     1.299   .     A
C2     C4      1.411   .     A
C2     O62     1.384   .     S
C2     C457    1.390   1_545 S
C3     C25     1.398   .     A
C3     C12     1.461   .     S
C3     C26     1.408   .     A
C4     C24     1.397   .     A
C5     O63     1.396   .     S
C5     N60     1.376   .     A
C5     C1303   1.437   1_554 S
C6     O64     1.387   .     S
C6     N59     1.373   .     A
C6     C656    1.428   .     S
C7     H54     1.074   .     S
C7     N59     1.357   .     A
C7     C653    1.437   .     S
C8     N60     1.362   .     A
C8     H55     1.079   .     S
C8     C1302   1.428   1_554 S
C9     C10     1.515   .     S
C9     O72     1.410   .     S
C9     H56     1.110   .     S
C9     H57     1.113   .     S
C10    H31     1.109   .     S
C10    H1326   1.107   1_554 S
C10    H1354   1.110   1_554 S
C11    H33     1.112   .     S
C11    O62     1.411   .     S
C11    C13     1.521   .     S
C11    H32     1.109   .     S
C12    O67     1.298   .     A
C12    O65     1.295   .     A
C13    H36     1.109   .     S
C13    H682    1.107   .     S
C13    H683    1.109   .     S
C14    H37     1.111   .     S
C14    O63     1.416   .     S
C14    C1311   1.537   1_554 S
C14    H1334   1.113   1_554 S
C15    C16     1.528   .     S
C15    H41     1.109   .     S
C15    C662    1.537   .     S
C15    H831    1.108   1_455 S
C16    H42     1.111   .     S
C16    H44     1.111   .     S
C16    H187    1.109   1_455 S
C17    O64     1.418   .     S
C17    H45     1.107   .     S
C17    C666    1.529   .     S
C17    H694    1.116   .     S
C18    H48     1.110   .     S
C18    C1313   1.529   1_554 S
C18    C91     1.526   .     S
C18    H1343   1.112   1_554 S
C19    H49     1.110   .     S
C19    H50     1.110   .     S
C19    C162    1.526   1_455 S
C19    H1348   1.111   1_554 S
C20    O70     1.295   .     A
C20    O68     1.288   .     A
C20    C22     1.441   .     S
C21    O71     1.296   .     A
C21    C23     1.441   .     S
C21    O69     1.287   .     A
C22    C167    1.340   1_455 S
C22    H173    1.087   1_455 S
C23    C94     1.340   .     S
C23    H112    1.085   .     S
C24    H51     1.083   .     S
C24    C458    1.390   1_545 S
C25    H53     1.078   .     S
C25    C218    1.390   .     S
C26    O72     1.379   .     S
C26    C240    1.390   .     S
Cu27   O68     1.960   .     S
Cu27   N59     2.019   .     S
Cu27   O67     1.973   .     S
Cu27   O71     1.966   .     S
Cu27   Cu28    2.686   .     S
Cu27   O61     1.977   .     S
Cu28   O66     1.973   .     S
Cu28   O69     1.960   .     S
Cu28   N60     2.019   .     S
Cu28   O65     1.977   .     S
Cu28   O70     1.966   .     S
H29    C94     1.087   .     S
H30    C658    1.107   .     S
H34    C1309   1.107   1_554 S
H35    C1309   1.109   1_554 S
H38    C662    1.113   .     S
H39    C1383   1.108   1_554 S
H40    C167    1.085   1_455 S
H43    C88     1.109   .     S
H46    C1313   1.116   1_554 S
H47    C666    1.112   .     S
H52    C667    1.111   .     S
H58    C658    1.110   .     S
C73    O133    1.291   .     A
C73    C76     1.457   .     S
C73    O138    1.299   .     A
C74    C76     1.411   .     A
C74    O134    1.384   .     S
C74    C529    1.390   1_545 S
C75    C97     1.398   .     A
C75    C84     1.461   .     S
C75    C98     1.408   .     A
C76    C96     1.397   .     A
C77    O135    1.396   .     S
C77    N132    1.376   .     A
C77    C1375   1.437   1_554 S
C78    O136    1.387   .     S
C78    N131    1.373   .     A
C78    C728    1.428   .     S
C79    H126    1.074   .     S
C79    N131    1.357   .     A
C79    C725    1.437   .     S
C80    N132    1.362   .     A
C80    H127    1.079   .     S
C80    C1374   1.428   1_554 S
C81    C82     1.515   .     S
C81    O144    1.410   .     S
C81    H128    1.110   .     S
C81    H129    1.113   .     S
C82    H103    1.109   .     S
C82    H1398   1.107   1_554 S
C82    H1426   1.110   1_554 S
C83    H105    1.112   .     S
C83    O134    1.411   .     S
C83    C85     1.521   .     S
C83    H104    1.109   .     S
C84    O139    1.298   .     A
C84    O137    1.295   .     A
C85    H108    1.109   .     S
C85    H754    1.107   .     S
C85    H755    1.109   .     S
C86    H109    1.111   .     S
C86    O135    1.416   .     S
C86    C1383   1.537   1_554 S
C86    H1406   1.113   1_554 S
C87    C88     1.528   .     S
C87    H113    1.109   .     S
C87    C734    1.537   .     S
C87    H687    1.108   .     S
C88    H114    1.111   .     S
C88    H116    1.111   .     S
C89    O136    1.418   .     S
C89    H117    1.107   .     S
C89    C738    1.529   .     S
C89    H766    1.116   .     S
C90    H120    1.110   .     S
C90    C1385   1.529   1_554 S
C90    C163    1.526   .     S
C90    H1415   1.112   1_554 S
C91    H121    1.110   .     S
C91    H122    1.110   .     S
C91    H1420   1.111   1_554 S
C92    O142    1.295   .     A
C92    O140    1.288   .     A
C92    C94     1.441   .     S
C93    O143    1.296   .     A
C93    C95     1.441   .     S
C93    O141    1.287   .     A
C95    C166    1.340   .     S
C95    H184    1.085   .     S
C96    H123    1.083   .     S
C96    C530    1.390   1_545 S
C97    H125    1.078   .     S
C97    C290    1.390   .     S
C98    O144    1.379   .     S
C98    C312    1.390   .     S
Cu99   O140    1.960   .     S
Cu99   N131    2.019   .     S
Cu99   O139    1.973   .     S
Cu99   O143    1.966   .     S
Cu99   Cu100   2.686   .     S
Cu99   O133    1.977   .     S
Cu100  O138    1.973   .     S
Cu100  O141    1.960   .     S
Cu100  N132    2.019   .     S
Cu100  O137    1.977   .     S
Cu100  O142    1.966   .     S
H101   C166    1.087   .     S
H102   C730    1.107   .     S
H106   C1381   1.107   1_554 S
H107   C1381   1.109   1_554 S
H110   C734    1.113   .     S
H111   C1455   1.108   1_554 S
H115   C160    1.109   .     S
H118   C1385   1.116   1_554 S
H119   C738    1.112   .     S
H124   C739    1.111   .     S
H130   C730    1.110   .     S
C145   O205    1.291   .     A
C145   C148    1.457   .     S
C145   O210    1.299   .     A
C146   C148    1.411   .     A
C146   O206    1.384   .     S
C146   C601    1.390   1_545 S
C147   C169    1.398   .     A
C147   C156    1.461   .     S
C147   C170    1.408   .     A
C148   C168    1.397   .     A
C149   O207    1.396   .     S
C149   N204    1.376   .     A
C149   C1447   1.437   1_554 S
C150   O208    1.387   .     S
C150   N203    1.373   .     A
C150   C800    1.428   .     S
C151   H198    1.074   .     S
C151   N203    1.357   .     A
C151   C797    1.437   .     S
C152   N204    1.362   .     A
C152   H199    1.079   .     S
C152   C1446   1.428   1_554 S
C153   C154    1.515   .     S
C153   O216    1.410   .     S
C153   H200    1.110   .     S
C153   H201    1.113   .     S
C154   H175    1.109   .     S
C154   H1470   1.107   1_554 S
C154   H1498   1.110   1_554 S
C155   H177    1.112   .     S
C155   O206    1.411   .     S
C155   C157    1.521   .     S
C155   H176    1.109   .     S
C156   O211    1.298   .     A
C156   O209    1.295   .     A
C157   H180    1.109   .     S
C157   H826    1.107   .     S
C157   H827    1.109   .     S
C158   H181    1.111   .     S
C158   O207    1.416   .     S
C158   C1455   1.537   1_554 S
C158   H1478   1.113   1_554 S
C159   C160    1.528   .     S
C159   H185    1.109   .     S
C159   C806    1.537   .     S
C159   H759    1.108   .     S
C160   H186    1.111   .     S
C160   H188    1.111   .     S
C161   O208    1.418   .     S
C161   H189    1.107   .     S
C161   C810    1.529   .     S
C161   H838    1.116   .     S
C162   H192    1.110   .     S
C162   C1457   1.529   1_554 S
C162   C19     1.526   1_655 S
C162   H1487   1.112   1_554 S
C163   H193    1.110   .     S
C163   H194    1.110   .     S
C163   H1492   1.111   1_554 S
C164   O214    1.295   .     A
C164   O212    1.288   .     A
C164   C166    1.441   .     S
C165   O215    1.296   .     A
C165   C167    1.441   .     S
C165   O213    1.287   .     A
C167   C22     1.340   1_655 S
C167   H40     1.085   1_655 S
C168   H195    1.083   .     S
C168   C602    1.390   1_545 S
C169   H197    1.078   .     S
C169   C362    1.390   .     S
C170   O216    1.379   .     S
C170   C384    1.390   .     S
Cu171  O212    1.960   .     S
Cu171  N203    2.019   .     S
Cu171  O211    1.973   .     S
Cu171  O215    1.966   .     S
Cu171  Cu172   2.686   .     S
Cu171  O205    1.977   .     S
Cu172  O210    1.973   .     S
Cu172  O213    1.960   .     S
Cu172  N204    2.019   .     S
Cu172  O209    1.977   .     S
Cu172  O214    1.966   .     S
H173   C22     1.087   1_655 S
H174   C802    1.107   .     S
H178   C1453   1.107   1_554 S
H179   C1453   1.109   1_554 S
H182   C806    1.113   .     S
H183   C1311   1.108   1_654 S
H187   C16     1.109   1_655 S
H190   C1457   1.116   1_554 S
H191   C810    1.112   .     S
H196   C811    1.111   .     S
H202   C802    1.110   .     S
C217   O277    1.291   .     A
C217   C220    1.457   .     S
C217   O282    1.299   .     A
C218   C220    1.411   .     A
C218   O278    1.384   .     S
C219   C241    1.398   .     A
C219   C228    1.461   .     S
C219   C242    1.408   .     A
C220   C240    1.397   .     A
C221   O279    1.396   .     S
C221   N276    1.376   .     A
C221   C1519   1.437   1_554 S
C222   O280    1.387   .     S
C222   N275    1.373   .     A
C222   C872    1.428   .     S
C223   H270    1.074   .     S
C223   N275    1.357   .     A
C223   C869    1.437   .     S
C224   N276    1.362   .     A
C224   H271    1.079   .     S
C224   C1518   1.428   1_554 S
C225   C226    1.515   .     S
C225   O288    1.410   .     S
C225   H272    1.110   .     S
C225   H273    1.113   .     S
C226   H247    1.109   .     S
C226   H1542   1.107   1_554 S
C226   H1570   1.110   1_554 S
C227   H249    1.112   .     S
C227   O278    1.411   .     S
C227   C229    1.521   .     S
C227   H248    1.109   .     S
C228   O283    1.298   .     A
C228   O281    1.295   .     A
C229   H252    1.109   .     S
C229   H898    1.107   .     S
C229   H899    1.109   .     S
C230   H253    1.111   .     S
C230   O279    1.416   .     S
C230   C1527   1.537   1_554 S
C230   H1550   1.113   1_554 S
C231   C232    1.528   .     S
C231   H257    1.109   .     S
C231   C878    1.537   .     S
C231   H1047   1.108   1_455 S
C232   H258    1.111   .     S
C232   H260    1.111   .     S
C232   H403    1.109   1_455 S
C233   O280    1.418   .     S
C233   H261    1.107   .     S
C233   C882    1.529   .     S
C233   H910    1.116   .     S
C234   H264    1.110   .     S
C234   C1529   1.529   1_554 S
C234   C307    1.526   .     S
C234   H1559   1.112   1_554 S
C235   H265    1.110   .     S
C235   H266    1.110   .     S
C235   C378    1.526   1_455 S
C235   H1564   1.111   1_554 S
C236   O286    1.295   .     A
C236   O284    1.288   .     A
C236   C238    1.441   .     S
C237   O287    1.296   .     A
C237   C239    1.441   .     S
C237   O285    1.287   .     A
C238   C383    1.340   1_455 S
C238   H389    1.087   1_455 S
C239   C310    1.340   .     S
C239   H328    1.085   .     S
C240   H267    1.083   .     S
C241   H269    1.078   .     S
C241   C434    1.390   .     S
C242   O288    1.379   .     S
C242   C456    1.390   .     S
Cu243  O284    1.960   .     S
Cu243  N275    2.019   .     S
Cu243  O283    1.973   .     S
Cu243  O287    1.966   .     S
Cu243  Cu244   2.686   .     S
Cu243  O277    1.977   .     S
Cu244  O282    1.973   .     S
Cu244  O285    1.960   .     S
Cu244  N276    2.019   .     S
Cu244  O281    1.977   .     S
Cu244  O286    1.966   .     S
H245   C310    1.087   .     S
H246   C874    1.107   .     S
H250   C1525   1.107   1_554 S
H251   C1525   1.109   1_554 S
H254   C878    1.113   .     S
H255   C1599   1.108   1_554 S
H256   C383    1.085   1_455 S
H259   C304    1.109   .     S
H262   C1529   1.116   1_554 S
H263   C882    1.112   .     S
H268   C883    1.111   .     S
H274   C874    1.110   .     S
C289   O349    1.291   .     A
C289   C292    1.457   .     S
C289   O354    1.299   .     A
C290   C292    1.411   .     A
C290   O350    1.384   .     S
C291   C313    1.398   .     A
C291   C300    1.461   .     S
C291   C314    1.408   .     A
C292   C312    1.397   .     A
C293   O351    1.396   .     S
C293   N348    1.376   .     A
C293   C1591   1.437   1_554 S
C294   O352    1.387   .     S
C294   N347    1.373   .     A
C294   C944    1.428   .     S
C295   H342    1.074   .     S
C295   N347    1.357   .     A
C295   C941    1.437   .     S
C296   N348    1.362   .     A
C296   H343    1.079   .     S
C296   C1590   1.428   1_554 S
C297   C298    1.515   .     S
C297   O360    1.410   .     S
C297   H344    1.110   .     S
C297   H345    1.113   .     S
C298   H319    1.109   .     S
C298   H1614   1.107   1_554 S
C298   H1642   1.110   1_554 S
C299   H321    1.112   .     S
C299   O350    1.411   .     S
C299   C301    1.521   .     S
C299   H320    1.109   .     S
C300   O355    1.298   .     A
C300   O353    1.295   .     A
C301   H324    1.109   .     S
C301   H970    1.107   .     S
C301   H971    1.109   .     S
C302   H325    1.111   .     S
C302   O351    1.416   .     S
C302   C1599   1.537   1_554 S
C302   H1622   1.113   1_554 S
C303   C304    1.528   .     S
C303   H329    1.109   .     S
C303   C950    1.537   .     S
C303   H903    1.108   .     S
C304   H330    1.111   .     S
C304   H332    1.111   .     S
C305   O352    1.418   .     S
C305   H333    1.107   .     S
C305   C954    1.529   .     S
C305   H982    1.116   .     S
C306   H336    1.110   .     S
C306   C1601   1.529   1_554 S
C306   C379    1.526   .     S
C306   H1631   1.112   1_554 S
C307   H337    1.110   .     S
C307   H338    1.110   .     S
C307   H1636   1.111   1_554 S
C308   O358    1.295   .     A
C308   O356    1.288   .     A
C308   C310    1.441   .     S
C309   O359    1.296   .     A
C309   C311    1.441   .     S
C309   O357    1.287   .     A
C311   C382    1.340   .     S
C311   H400    1.085   .     S
C312   H339    1.083   .     S
C313   H341    1.078   .     S
C313   C506    1.390   .     S
C314   O360    1.379   .     S
C314   C528    1.390   .     S
Cu315  O356    1.960   .     S
Cu315  N347    2.019   .     S
Cu315  O355    1.973   .     S
Cu315  O359    1.966   .     S
Cu315  Cu316   2.686   .     S
Cu315  O349    1.977   .     S
Cu316  O354    1.973   .     S
Cu316  O357    1.960   .     S
Cu316  N348    2.019   .     S
Cu316  O353    1.977   .     S
Cu316  O358    1.966   .     S
H317   C382    1.087   .     S
H318   C946    1.107   .     S
H322   C1597   1.107   1_554 S
H323   C1597   1.109   1_554 S
H326   C950    1.113   .     S
H327   C1671   1.108   1_554 S
H331   C376    1.109   .     S
H334   C1601   1.116   1_554 S
H335   C954    1.112   .     S
H340   C955    1.111   .     S
H346   C946    1.110   .     S
C361   O421    1.291   .     A
C361   C364    1.457   .     S
C361   O426    1.299   .     A
C362   C364    1.411   .     A
C362   O422    1.384   .     S
C363   C385    1.398   .     A
C363   C372    1.461   .     S
C363   C386    1.408   .     A
C364   C384    1.397   .     A
C365   O423    1.396   .     S
C365   N420    1.376   .     A
C365   C1663   1.437   1_554 S
C366   O424    1.387   .     S
C366   N419    1.373   .     A
C366   C1016   1.428   .     S
C367   H414    1.074   .     S
C367   N419    1.357   .     A
C367   C1013   1.437   .     S
C368   N420    1.362   .     A
C368   H415    1.079   .     S
C368   C1662   1.428   1_554 S
C369   C370    1.515   .     S
C369   O432    1.410   .     S
C369   H416    1.110   .     S
C369   H417    1.113   .     S
C370   H391    1.109   .     S
C370   H1686   1.107   1_554 S
C370   H1714   1.110   1_554 S
C371   H393    1.112   .     S
C371   O422    1.411   .     S
C371   C373    1.521   .     S
C371   H392    1.109   .     S
C372   O427    1.298   .     A
C372   O425    1.295   .     A
C373   H396    1.109   .     S
C373   H1042   1.107   .     S
C373   H1043   1.109   .     S
C374   H397    1.111   .     S
C374   O423    1.416   .     S
C374   C1671   1.537   1_554 S
C374   H1694   1.113   1_554 S
C375   C376    1.528   .     S
C375   H401    1.109   .     S
C375   C1022   1.537   .     S
C375   H975    1.108   .     S
C376   H402    1.111   .     S
C376   H404    1.111   .     S
C377   O424    1.418   .     S
C377   H405    1.107   .     S
C377   C1026   1.529   .     S
C377   H1054   1.116   .     S
C378   H408    1.110   .     S
C378   C1673   1.529   1_554 S
C378   C235    1.526   1_655 S
C378   H1703   1.112   1_554 S
C379   H409    1.110   .     S
C379   H410    1.110   .     S
C379   H1708   1.111   1_554 S
C380   O430    1.295   .     A
C380   O428    1.288   .     A
C380   C382    1.441   .     S
C381   O431    1.296   .     A
C381   C383    1.441   .     S
C381   O429    1.287   .     A
C383   C238    1.340   1_655 S
C383   H256    1.085   1_655 S
C384   H411    1.083   .     S
C385   H413    1.078   .     S
C385   C578    1.390   .     S
C386   O432    1.379   .     S
C386   C600    1.390   .     S
Cu387  O428    1.960   .     S
Cu387  N419    2.019   .     S
Cu387  O427    1.973   .     S
Cu387  O431    1.966   .     S
Cu387  Cu388   2.686   .     S
Cu387  O421    1.977   .     S
Cu388  O426    1.973   .     S
Cu388  O429    1.960   .     S
Cu388  N420    2.019   .     S
Cu388  O425    1.977   .     S
Cu388  O430    1.966   .     S
H389   C238    1.087   1_655 S
H390   C1018   1.107   .     S
H394   C1669   1.107   1_554 S
H395   C1669   1.109   1_554 S
H398   C1022   1.113   .     S
H399   C1527   1.108   1_654 S
H403   C232    1.109   1_655 S
H406   C1673   1.116   1_554 S
H407   C1026   1.112   .     S
H412   C1027   1.111   .     S
H418   C1018   1.110   .     S
C433   O493    1.291   .     A
C433   C436    1.457   .     S
C433   O498    1.299   .     A
C434   C436    1.411   .     A
C434   O494    1.384   .     S
C435   C457    1.398   .     A
C435   C444    1.461   .     S
C435   C458    1.408   .     A
C436   C456    1.397   .     A
C437   O495    1.396   .     S
C437   N492    1.376   .     A
C437   C1735   1.437   1_554 S
C438   O496    1.387   .     S
C438   N491    1.373   .     A
C438   C1088   1.428   .     S
C439   H486    1.074   .     S
C439   N491    1.357   .     A
C439   C1085   1.437   .     S
C440   N492    1.362   .     A
C440   H487    1.079   .     S
C440   C1734   1.428   1_554 S
C441   C442    1.515   .     S
C441   O504    1.410   .     S
C441   H488    1.110   .     S
C441   H489    1.113   .     S
C442   H463    1.109   .     S
C442   H1758   1.107   1_554 S
C442   H1786   1.110   1_554 S
C443   H465    1.112   .     S
C443   O494    1.411   .     S
C443   C445    1.521   .     S
C443   H464    1.109   .     S
C444   O499    1.298   .     A
C444   O497    1.295   .     A
C445   H468    1.109   .     S
C445   H1114   1.107   .     S
C445   H1115   1.109   .     S
C446   H469    1.111   .     S
C446   O495    1.416   .     S
C446   C1743   1.537   1_554 S
C446   H1766   1.113   1_554 S
C447   C448    1.528   .     S
C447   H473    1.109   .     S
C447   C1094   1.537   .     S
C447   H1263   1.108   1_455 S
C448   H474    1.111   .     S
C448   H476    1.111   .     S
C448   H619    1.109   1_455 S
C449   O496    1.418   .     S
C449   H477    1.107   .     S
C449   C1098   1.529   .     S
C449   H1126   1.116   .     S
C450   H480    1.110   .     S
C450   C1745   1.529   1_554 S
C450   C523    1.526   .     S
C450   H1775   1.112   1_554 S
C451   H481    1.110   .     S
C451   H482    1.110   .     S
C451   C594    1.526   1_455 S
C451   H1780   1.111   1_554 S
C452   O502    1.295   .     A
C452   O500    1.288   .     A
C452   C454    1.441   .     S
C453   O503    1.296   .     A
C453   C455    1.441   .     S
C453   O501    1.287   .     A
C454   C599    1.340   1_455 S
C454   H605    1.087   1_455 S
C455   C526    1.340   .     S
C455   H544    1.085   .     S
C456   H483    1.083   .     S
C457   H485    1.078   .     S
C457   C2      1.390   1_565 S
C458   O504    1.379   .     S
C458   C24     1.390   1_565 S
Cu459  O500    1.960   .     S
Cu459  N491    2.019   .     S
Cu459  O499    1.973   .     S
Cu459  O503    1.966   .     S
Cu459  Cu460   2.686   .     S
Cu459  O493    1.977   .     S
Cu460  O498    1.973   .     S
Cu460  O501    1.960   .     S
Cu460  N492    2.019   .     S
Cu460  O497    1.977   .     S
Cu460  O502    1.966   .     S
H461   C526    1.087   .     S
H462   C1090   1.107   .     S
H466   C1741   1.107   1_554 S
H467   C1741   1.109   1_554 S
H470   C1094   1.113   .     S
H471   C1815   1.108   1_554 S
H472   C599    1.085   1_455 S
H475   C520    1.109   .     S
H478   C1745   1.116   1_554 S
H479   C1098   1.112   .     S
H484   C1099   1.111   .     S
H490   C1090   1.110   .     S
C505   O565    1.291   .     A
C505   C508    1.457   .     S
C505   O570    1.299   .     A
C506   C508    1.411   .     A
C506   O566    1.384   .     S
C507   C529    1.398   .     A
C507   C516    1.461   .     S
C507   C530    1.408   .     A
C508   C528    1.397   .     A
C509   O567    1.396   .     S
C509   N564    1.376   .     A
C509   C1807   1.437   1_554 S
C510   O568    1.387   .     S
C510   N563    1.373   .     A
C510   C1160   1.428   .     S
C511   H558    1.074   .     S
C511   N563    1.357   .     A
C511   C1157   1.437   .     S
C512   N564    1.362   .     A
C512   H559    1.079   .     S
C512   C1806   1.428   1_554 S
C513   C514    1.515   .     S
C513   O576    1.410   .     S
C513   H560    1.110   .     S
C513   H561    1.113   .     S
C514   H535    1.109   .     S
C514   H1830   1.107   1_554 S
C514   H1858   1.110   1_554 S
C515   H537    1.112   .     S
C515   O566    1.411   .     S
C515   C517    1.521   .     S
C515   H536    1.109   .     S
C516   O571    1.298   .     A
C516   O569    1.295   .     A
C517   H540    1.109   .     S
C517   H1186   1.107   .     S
C517   H1187   1.109   .     S
C518   H541    1.111   .     S
C518   O567    1.416   .     S
C518   C1815   1.537   1_554 S
C518   H1838   1.113   1_554 S
C519   C520    1.528   .     S
C519   H545    1.109   .     S
C519   C1166   1.537   .     S
C519   H1119   1.108   .     S
C520   H546    1.111   .     S
C520   H548    1.111   .     S
C521   O568    1.418   .     S
C521   H549    1.107   .     S
C521   C1170   1.529   .     S
C521   H1198   1.116   .     S
C522   H552    1.110   .     S
C522   C1817   1.529   1_554 S
C522   C595    1.526   .     S
C522   H1847   1.112   1_554 S
C523   H553    1.110   .     S
C523   H554    1.110   .     S
C523   H1852   1.111   1_554 S
C524   O574    1.295   .     A
C524   O572    1.288   .     A
C524   C526    1.441   .     S
C525   O575    1.296   .     A
C525   C527    1.441   .     S
C525   O573    1.287   .     A
C527   C598    1.340   .     S
C527   H616    1.085   .     S
C528   H555    1.083   .     S
C529   H557    1.078   .     S
C529   C74     1.390   1_565 S
C530   O576    1.379   .     S
C530   C96     1.390   1_565 S
Cu531  O572    1.960   .     S
Cu531  N563    2.019   .     S
Cu531  O571    1.973   .     S
Cu531  O575    1.966   .     S
Cu531  Cu532   2.686   .     S
Cu531  O565    1.977   .     S
Cu532  O570    1.973   .     S
Cu532  O573    1.960   .     S
Cu532  N564    2.019   .     S
Cu532  O569    1.977   .     S
Cu532  O574    1.966   .     S
H533   C598    1.087   .     S
H534   C1162   1.107   .     S
H538   C1813   1.107   1_554 S
H539   C1813   1.109   1_554 S
H542   C1166   1.113   .     S
H543   C1887   1.108   1_554 S
H547   C592    1.109   .     S
H550   C1817   1.116   1_554 S
H551   C1170   1.112   .     S
H556   C1171   1.111   .     S
H562   C1162   1.110   .     S
C577   O637    1.291   .     A
C577   C580    1.457   .     S
C577   O642    1.299   .     A
C578   C580    1.411   .     A
C578   O638    1.384   .     S
C579   C601    1.398   .     A
C579   C588    1.461   .     S
C579   C602    1.408   .     A
C580   C600    1.397   .     A
C581   O639    1.396   .     S
C581   N636    1.376   .     A
C581   C1879   1.437   1_554 S
C582   O640    1.387   .     S
C582   N635    1.373   .     A
C582   C1232   1.428   .     S
C583   H630    1.074   .     S
C583   N635    1.357   .     A
C583   C1229   1.437   .     S
C584   N636    1.362   .     A
C584   H631    1.079   .     S
C584   C1878   1.428   1_554 S
C585   C586    1.515   .     S
C585   O648    1.410   .     S
C585   H632    1.110   .     S
C585   H633    1.113   .     S
C586   H607    1.109   .     S
C586   H1902   1.107   1_554 S
C586   H1930   1.110   1_554 S
C587   H609    1.112   .     S
C587   O638    1.411   .     S
C587   C589    1.521   .     S
C587   H608    1.109   .     S
C588   O643    1.298   .     A
C588   O641    1.295   .     A
C589   H612    1.109   .     S
C589   H1258   1.107   .     S
C589   H1259   1.109   .     S
C590   H613    1.111   .     S
C590   O639    1.416   .     S
C590   C1887   1.537   1_554 S
C590   H1910   1.113   1_554 S
C591   C592    1.528   .     S
C591   H617    1.109   .     S
C591   C1238   1.537   .     S
C591   H1191   1.108   .     S
C592   H618    1.111   .     S
C592   H620    1.111   .     S
C593   O640    1.418   .     S
C593   H621    1.107   .     S
C593   C1242   1.529   .     S
C593   H1270   1.116   .     S
C594   H624    1.110   .     S
C594   C1889   1.529   1_554 S
C594   C451    1.526   1_655 S
C594   H1919   1.112   1_554 S
C595   H625    1.110   .     S
C595   H626    1.110   .     S
C595   H1924   1.111   1_554 S
C596   O646    1.295   .     A
C596   O644    1.288   .     A
C596   C598    1.441   .     S
C597   O647    1.296   .     A
C597   C599    1.441   .     S
C597   O645    1.287   .     A
C599   C454    1.340   1_655 S
C599   H472    1.085   1_655 S
C600   H627    1.083   .     S
C601   H629    1.078   .     S
C601   C146    1.390   1_565 S
C602   O648    1.379   .     S
C602   C168    1.390   1_565 S
Cu603  O644    1.960   .     S
Cu603  N635    2.019   .     S
Cu603  O643    1.973   .     S
Cu603  O647    1.966   .     S
Cu603  Cu604   2.686   .     S
Cu603  O637    1.977   .     S
Cu604  O642    1.973   .     S
Cu604  O645    1.960   .     S
Cu604  N636    2.019   .     S
Cu604  O641    1.977   .     S
Cu604  O646    1.966   .     S
H605   C454    1.087   1_655 S
H606   C1234   1.107   .     S
H610   C1885   1.107   1_554 S
H611   C1885   1.109   1_554 S
H614   C1238   1.113   .     S
H615   C1743   1.108   1_654 S
H619   C448    1.109   1_655 S
H622   C1889   1.116   1_554 S
H623   C1242   1.112   .     S
H628   C1243   1.111   .     S
H634   C1234   1.110   .     S
C649   O709    1.291   .     A
C649   C652    1.457   .     S
C649   O714    1.299   .     A
C650   C652    1.411   .     A
C650   O710    1.384   .     S
C650   C1105   1.390   1_545 S
C651   C673    1.398   .     A
C651   C660    1.461   .     S
C651   C674    1.408   .     A
C652   C672    1.397   .     A
C653   O711    1.396   .     S
C653   N708    1.376   .     A
C654   O712    1.387   .     S
C654   N707    1.373   .     A
C654   C1304   1.428   .     S
C655   H702    1.074   .     S
C655   N707    1.357   .     A
C655   C1301   1.437   .     S
C656   N708    1.362   .     A
C656   H703    1.079   .     S
C657   C658    1.515   .     S
C657   O720    1.410   .     S
C657   H704    1.110   .     S
C657   H705    1.113   .     S
C658   H679    1.109   .     S
C659   H681    1.112   .     S
C659   O710    1.411   .     S
C659   C661    1.521   .     S
C659   H680    1.109   .     S
C660   O715    1.298   .     A
C660   O713    1.295   .     A
C661   H684    1.109   .     S
C661   H1330   1.107   .     S
C661   H1331   1.109   .     S
C662   H685    1.111   .     S
C662   O711    1.416   .     S
C663   C664    1.528   .     S
C663   H689    1.109   .     S
C663   C1310   1.537   .     S
C663   H1479   1.108   1_455 S
C664   H690    1.111   .     S
C664   H692    1.111   .     S
C664   H835    1.109   1_455 S
C665   O712    1.418   .     S
C665   H693    1.107   .     S
C665   C1314   1.529   .     S
C665   H1342   1.116   .     S
C666   H696    1.110   .     S
C666   C739    1.526   .     S
C667   H697    1.110   .     S
C667   H698    1.110   .     S
C667   C810    1.526   1_455 S
C668   O718    1.295   .     A
C668   O716    1.288   .     A
C668   C670    1.441   .     S
C669   O719    1.296   .     A
C669   C671    1.441   .     S
C669   O717    1.287   .     A
C670   C815    1.340   1_455 S
C670   H821    1.087   1_455 S
C671   C742    1.340   .     S
C671   H760    1.085   .     S
C672   H699    1.083   .     S
C672   C1106   1.390   1_545 S
C673   H701    1.078   .     S
C673   C866    1.390   .     S
C674   O720    1.379   .     S
C674   C888    1.390   .     S
Cu675  O716    1.960   .     S
Cu675  N707    2.019   .     S
Cu675  O715    1.973   .     S
Cu675  O719    1.966   .     S
Cu675  Cu676   2.686   .     S
Cu675  O709    1.977   .     S
Cu676  O714    1.973   .     S
Cu676  O717    1.960   .     S
Cu676  N708    2.019   .     S
Cu676  O713    1.977   .     S
Cu676  O718    1.966   .     S
H677   C742    1.087   .     S
H678   C1306   1.107   .     S
H686   C1310   1.113   .     S
H688   C815    1.085   1_455 S
H691   C736    1.109   .     S
H695   C1314   1.112   .     S
H700   C1315   1.111   .     S
H706   C1306   1.110   .     S
C721   O781    1.291   .     A
C721   C724    1.457   .     S
C721   O786    1.299   .     A
C722   C724    1.411   .     A
C722   O782    1.384   .     S
C722   C1177   1.390   1_545 S
C723   C745    1.398   .     A
C723   C732    1.461   .     S
C723   C746    1.408   .     A
C724   C744    1.397   .     A
C725   O783    1.396   .     S
C725   N780    1.376   .     A
C726   O784    1.387   .     S
C726   N779    1.373   .     A
C726   C1376   1.428   .     S
C727   H774    1.074   .     S
C727   N779    1.357   .     A
C727   C1373   1.437   .     S
C728   N780    1.362   .     A
C728   H775    1.079   .     S
C729   C730    1.515   .     S
C729   O792    1.410   .     S
C729   H776    1.110   .     S
C729   H777    1.113   .     S
C730   H751    1.109   .     S
C731   H753    1.112   .     S
C731   O782    1.411   .     S
C731   C733    1.521   .     S
C731   H752    1.109   .     S
C732   O787    1.298   .     A
C732   O785    1.295   .     A
C733   H756    1.109   .     S
C733   H1402   1.107   .     S
C733   H1403   1.109   .     S
C734   H757    1.111   .     S
C734   O783    1.416   .     S
C735   C736    1.528   .     S
C735   H761    1.109   .     S
C735   C1382   1.537   .     S
C735   H1335   1.108   .     S
C736   H762    1.111   .     S
C736   H764    1.111   .     S
C737   O784    1.418   .     S
C737   H765    1.107   .     S
C737   C1386   1.529   .     S
C737   H1414   1.116   .     S
C738   H768    1.110   .     S
C738   C811    1.526   .     S
C739   H769    1.110   .     S
C739   H770    1.110   .     S
C740   O790    1.295   .     A
C740   O788    1.288   .     A
C740   C742    1.441   .     S
C741   O791    1.296   .     A
C741   C743    1.441   .     S
C741   O789    1.287   .     A
C743   C814    1.340   .     S
C743   H832    1.085   .     S
C744   H771    1.083   .     S
C744   C1178   1.390   1_545 S
C745   H773    1.078   .     S
C745   C938    1.390   .     S
C746   O792    1.379   .     S
C746   C960    1.390   .     S
Cu747  O788    1.960   .     S
Cu747  N779    2.019   .     S
Cu747  O787    1.973   .     S
Cu747  O791    1.966   .     S
Cu747  Cu748   2.686   .     S
Cu747  O781    1.977   .     S
Cu748  O786    1.973   .     S
Cu748  O789    1.960   .     S
Cu748  N780    2.019   .     S
Cu748  O785    1.977   .     S
Cu748  O790    1.966   .     S
H749   C814    1.087   .     S
H750   C1378   1.107   .     S
H758   C1382   1.113   .     S
H763   C808    1.109   .     S
H767   C1386   1.112   .     S
H772   C1387   1.111   .     S
H778   C1378   1.110   .     S
C793   O853    1.291   .     A
C793   C796    1.457   .     S
C793   O858    1.299   .     A
C794   C796    1.411   .     A
C794   O854    1.384   .     S
C794   C1249   1.390   1_545 S
C795   C817    1.398   .     A
C795   C804    1.461   .     S
C795   C818    1.408   .     A
C796   C816    1.397   .     A
C797   O855    1.396   .     S
C797   N852    1.376   .     A
C798   O856    1.387   .     S
C798   N851    1.373   .     A
C798   C1448   1.428   .     S
C799   H846    1.074   .     S
C799   N851    1.357   .     A
C799   C1445   1.437   .     S
C800   N852    1.362   .     A
C800   H847    1.079   .     S
C801   C802    1.515   .     S
C801   O864    1.410   .     S
C801   H848    1.110   .     S
C801   H849    1.113   .     S
C802   H823    1.109   .     S
C803   H825    1.112   .     S
C803   O854    1.411   .     S
C803   C805    1.521   .     S
C803   H824    1.109   .     S
C804   O859    1.298   .     A
C804   O857    1.295   .     A
C805   H828    1.109   .     S
C805   H1474   1.107   .     S
C805   H1475   1.109   .     S
C806   H829    1.111   .     S
C806   O855    1.416   .     S
C807   C808    1.528   .     S
C807   H833    1.109   .     S
C807   C1454   1.537   .     S
C807   H1407   1.108   .     S
C808   H834    1.111   .     S
C808   H836    1.111   .     S
C809   O856    1.418   .     S
C809   H837    1.107   .     S
C809   C1458   1.529   .     S
C809   H1486   1.116   .     S
C810   H840    1.110   .     S
C810   C667    1.526   1_655 S
C811   H841    1.110   .     S
C811   H842    1.110   .     S
C812   O862    1.295   .     A
C812   O860    1.288   .     A
C812   C814    1.441   .     S
C813   O863    1.296   .     A
C813   C815    1.441   .     S
C813   O861    1.287   .     A
C815   C670    1.340   1_655 S
C815   H688    1.085   1_655 S
C816   H843    1.083   .     S
C816   C1250   1.390   1_545 S
C817   H845    1.078   .     S
C817   C1010   1.390   .     S
C818   O864    1.379   .     S
C818   C1032   1.390   .     S
Cu819  O860    1.960   .     S
Cu819  N851    2.019   .     S
Cu819  O859    1.973   .     S
Cu819  O863    1.966   .     S
Cu819  Cu820   2.686   .     S
Cu819  O853    1.977   .     S
Cu820  O858    1.973   .     S
Cu820  O861    1.960   .     S
Cu820  N852    2.019   .     S
Cu820  O857    1.977   .     S
Cu820  O862    1.966   .     S
H821   C670    1.087   1_655 S
H822   C1450   1.107   .     S
H830   C1454   1.113   .     S
H831   C15     1.108   1_655 S
H835   C664    1.109   1_655 S
H839   C1458   1.112   .     S
H844   C1459   1.111   .     S
H850   C1450   1.110   .     S
C865   O925    1.291   .     A
C865   C868    1.457   .     S
C865   O930    1.299   .     A
C866   C868    1.411   .     A
C866   O926    1.384   .     S
C867   C889    1.398   .     A
C867   C876    1.461   .     S
C867   C890    1.408   .     A
C868   C888    1.397   .     A
C869   O927    1.396   .     S
C869   N924    1.376   .     A
C870   O928    1.387   .     S
C870   N923    1.373   .     A
C870   C1520   1.428   .     S
C871   H918    1.074   .     S
C871   N923    1.357   .     A
C871   C1517   1.437   .     S
C872   N924    1.362   .     A
C872   H919    1.079   .     S
C873   C874    1.515   .     S
C873   O936    1.410   .     S
C873   H920    1.110   .     S
C873   H921    1.113   .     S
C874   H895    1.109   .     S
C875   H897    1.112   .     S
C875   O926    1.411   .     S
C875   C877    1.521   .     S
C875   H896    1.109   .     S
C876   O931    1.298   .     A
C876   O929    1.295   .     A
C877   H900    1.109   .     S
C877   H1546   1.107   .     S
C877   H1547   1.109   .     S
C878   H901    1.111   .     S
C878   O927    1.416   .     S
C879   C880    1.528   .     S
C879   H905    1.109   .     S
C879   C1526   1.537   .     S
C879   H1695   1.108   1_455 S
C880   H906    1.111   .     S
C880   H908    1.111   .     S
C880   H1051   1.109   1_455 S
C881   O928    1.418   .     S
C881   H909    1.107   .     S
C881   C1530   1.529   .     S
C881   H1558   1.116   .     S
C882   H912    1.110   .     S
C882   C955    1.526   .     S
C883   H913    1.110   .     S
C883   H914    1.110   .     S
C883   C1026   1.526   1_455 S
C884   O934    1.295   .     A
C884   O932    1.288   .     A
C884   C886    1.441   .     S
C885   O935    1.296   .     A
C885   C887    1.441   .     S
C885   O933    1.287   .     A
C886   C1031   1.340   1_455 S
C886   H1037   1.087   1_455 S
C887   C958    1.340   .     S
C887   H976    1.085   .     S
C888   H915    1.083   .     S
C889   H917    1.078   .     S
C889   C1082   1.390   .     S
C890   O936    1.379   .     S
C890   C1104   1.390   .     S
Cu891  O932    1.960   .     S
Cu891  N923    2.019   .     S
Cu891  O931    1.973   .     S
Cu891  O935    1.966   .     S
Cu891  Cu892   2.686   .     S
Cu891  O925    1.977   .     S
Cu892  O930    1.973   .     S
Cu892  O933    1.960   .     S
Cu892  N924    2.019   .     S
Cu892  O929    1.977   .     S
Cu892  O934    1.966   .     S
H893   C958    1.087   .     S
H894   C1522   1.107   .     S
H902   C1526   1.113   .     S
H904   C1031   1.085   1_455 S
H907   C952    1.109   .     S
H911   C1530   1.112   .     S
H916   C1531   1.111   .     S
H922   C1522   1.110   .     S
C937   O997    1.291   .     A
C937   C940    1.457   .     S
C937   O1002   1.299   .     A
C938   C940    1.411   .     A
C938   O998    1.384   .     S
C939   C961    1.398   .     A
C939   C948    1.461   .     S
C939   C962    1.408   .     A
C940   C960    1.397   .     A
C941   O999    1.396   .     S
C941   N996    1.376   .     A
C942   O1000   1.387   .     S
C942   N995    1.373   .     A
C942   C1592   1.428   .     S
C943   H990    1.074   .     S
C943   N995    1.357   .     A
C943   C1589   1.437   .     S
C944   N996    1.362   .     A
C944   H991    1.079   .     S
C945   C946    1.515   .     S
C945   O1008   1.410   .     S
C945   H992    1.110   .     S
C945   H993    1.113   .     S
C946   H967    1.109   .     S
C947   H969    1.112   .     S
C947   O998    1.411   .     S
C947   C949    1.521   .     S
C947   H968    1.109   .     S
C948   O1003   1.298   .     A
C948   O1001   1.295   .     A
C949   H972    1.109   .     S
C949   H1618   1.107   .     S
C949   H1619   1.109   .     S
C950   H973    1.111   .     S
C950   O999    1.416   .     S
C951   C952    1.528   .     S
C951   H977    1.109   .     S
C951   C1598   1.537   .     S
C951   H1551   1.108   .     S
C952   H978    1.111   .     S
C952   H980    1.111   .     S
C953   O1000   1.418   .     S
C953   H981    1.107   .     S
C953   C1602   1.529   .     S
C953   H1630   1.116   .     S
C954   H984    1.110   .     S
C954   C1027   1.526   .     S
C955   H985    1.110   .     S
C955   H986    1.110   .     S
C956   O1006   1.295   .     A
C956   O1004   1.288   .     A
C956   C958    1.441   .     S
C957   O1007   1.296   .     A
C957   C959    1.441   .     S
C957   O1005   1.287   .     A
C959   C1030   1.340   .     S
C959   H1048   1.085   .     S
C960   H987    1.083   .     S
C961   H989    1.078   .     S
C961   C1154   1.390   .     S
C962   O1008   1.379   .     S
C962   C1176   1.390   .     S
Cu963  O1004   1.960   .     S
Cu963  N995    2.019   .     S
Cu963  O1003   1.973   .     S
Cu963  O1007   1.966   .     S
Cu963  Cu964   2.686   .     S
Cu963  O997    1.977   .     S
Cu964  O1002   1.973   .     S
Cu964  O1005   1.960   .     S
Cu964  N996    2.019   .     S
Cu964  O1001   1.977   .     S
Cu964  O1006   1.966   .     S
H965   C1030   1.087   .     S
H966   C1594   1.107   .     S
H974   C1598   1.113   .     S
H979   C1024   1.109   .     S
H983   C1602   1.112   .     S
H988   C1603   1.111   .     S
H994   C1594   1.110   .     S
C1009  O1069   1.291   .     A
C1009  C1012   1.457   .     S
C1009  O1074   1.299   .     A
C1010  C1012   1.411   .     A
C1010  O1070   1.384   .     S
C1011  C1033   1.398   .     A
C1011  C1020   1.461   .     S
C1011  C1034   1.408   .     A
C1012  C1032   1.397   .     A
C1013  O1071   1.396   .     S
C1013  N1068   1.376   .     A
C1014  O1072   1.387   .     S
C1014  N1067   1.373   .     A
C1014  C1664   1.428   .     S
C1015  H1062   1.074   .     S
C1015  N1067   1.357   .     A
C1015  C1661   1.437   .     S
C1016  N1068   1.362   .     A
C1016  H1063   1.079   .     S
C1017  C1018   1.515   .     S
C1017  O1080   1.410   .     S
C1017  H1064   1.110   .     S
C1017  H1065   1.113   .     S
C1018  H1039   1.109   .     S
C1019  H1041   1.112   .     S
C1019  O1070   1.411   .     S
C1019  C1021   1.521   .     S
C1019  H1040   1.109   .     S
C1020  O1075   1.298   .     A
C1020  O1073   1.295   .     A
C1021  H1044   1.109   .     S
C1021  H1690   1.107   .     S
C1021  H1691   1.109   .     S
C1022  H1045   1.111   .     S
C1022  O1071   1.416   .     S
C1023  C1024   1.528   .     S
C1023  H1049   1.109   .     S
C1023  C1670   1.537   .     S
C1023  H1623   1.108   .     S
C1024  H1050   1.111   .     S
C1024  H1052   1.111   .     S
C1025  O1072   1.418   .     S
C1025  H1053   1.107   .     S
C1025  C1674   1.529   .     S
C1025  H1702   1.116   .     S
C1026  H1056   1.110   .     S
C1026  C883    1.526   1_655 S
C1027  H1057   1.110   .     S
C1027  H1058   1.110   .     S
C1028  O1078   1.295   .     A
C1028  O1076   1.288   .     A
C1028  C1030   1.441   .     S
C1029  O1079   1.296   .     A
C1029  C1031   1.441   .     S
C1029  O1077   1.287   .     A
C1031  C886    1.340   1_655 S
C1031  H904    1.085   1_655 S
C1032  H1059   1.083   .     S
C1033  H1061   1.078   .     S
C1033  C1226   1.390   .     S
C1034  O1080   1.379   .     S
C1034  C1248   1.390   .     S
Cu1035 O1076   1.960   .     S
Cu1035 N1067   2.019   .     S
Cu1035 O1075   1.973   .     S
Cu1035 O1079   1.966   .     S
Cu1035 Cu1036  2.686   .     S
Cu1035 O1069   1.977   .     S
Cu1036 O1074   1.973   .     S
Cu1036 O1077   1.960   .     S
Cu1036 N1068   2.019   .     S
Cu1036 O1073   1.977   .     S
Cu1036 O1078   1.966   .     S
H1037  C886    1.087   1_655 S
H1038  C1666   1.107   .     S
H1046  C1670   1.113   .     S
H1047  C231    1.108   1_655 S
H1051  C880    1.109   1_655 S
H1055  C1674   1.112   .     S
H1060  C1675   1.111   .     S
H1066  C1666   1.110   .     S
C1081  O1141   1.291   .     A
C1081  C1084   1.457   .     S
C1081  O1146   1.299   .     A
C1082  C1084   1.411   .     A
C1082  O1142   1.384   .     S
C1083  C1105   1.398   .     A
C1083  C1092   1.461   .     S
C1083  C1106   1.408   .     A
C1084  C1104   1.397   .     A
C1085  O1143   1.396   .     S
C1085  N1140   1.376   .     A
C1086  O1144   1.387   .     S
C1086  N1139   1.373   .     A
C1086  C1736   1.428   .     S
C1087  H1134   1.074   .     S
C1087  N1139   1.357   .     A
C1087  C1733   1.437   .     S
C1088  N1140   1.362   .     A
C1088  H1135   1.079   .     S
C1089  C1090   1.515   .     S
C1089  O1152   1.410   .     S
C1089  H1136   1.110   .     S
C1089  H1137   1.113   .     S
C1090  H1111   1.109   .     S
C1091  H1113   1.112   .     S
C1091  O1142   1.411   .     S
C1091  C1093   1.521   .     S
C1091  H1112   1.109   .     S
C1092  O1147   1.298   .     A
C1092  O1145   1.295   .     A
C1093  H1116   1.109   .     S
C1093  H1762   1.107   .     S
C1093  H1763   1.109   .     S
C1094  H1117   1.111   .     S
C1094  O1143   1.416   .     S
C1095  C1096   1.528   .     S
C1095  H1121   1.109   .     S
C1095  C1742   1.537   .     S
C1095  H1911   1.108   1_455 S
C1096  H1122   1.111   .     S
C1096  H1124   1.111   .     S
C1096  H1267   1.109   1_455 S
C1097  O1144   1.418   .     S
C1097  H1125   1.107   .     S
C1097  C1746   1.529   .     S
C1097  H1774   1.116   .     S
C1098  H1128   1.110   .     S
C1098  C1171   1.526   .     S
C1099  H1129   1.110   .     S
C1099  H1130   1.110   .     S
C1099  C1242   1.526   1_455 S
C1100  O1150   1.295   .     A
C1100  O1148   1.288   .     A
C1100  C1102   1.441   .     S
C1101  O1151   1.296   .     A
C1101  C1103   1.441   .     S
C1101  O1149   1.287   .     A
C1102  C1247   1.340   1_455 S
C1102  H1253   1.087   1_455 S
C1103  C1174   1.340   .     S
C1103  H1192   1.085   .     S
C1104  H1131   1.083   .     S
C1105  H1133   1.078   .     S
C1105  C650    1.390   1_565 S
C1106  O1152   1.379   .     S
C1106  C672    1.390   1_565 S
Cu1107 O1148   1.960   .     S
Cu1107 N1139   2.019   .     S
Cu1107 O1147   1.973   .     S
Cu1107 O1151   1.966   .     S
Cu1107 Cu1108  2.686   .     S
Cu1107 O1141   1.977   .     S
Cu1108 O1146   1.973   .     S
Cu1108 O1149   1.960   .     S
Cu1108 N1140   2.019   .     S
Cu1108 O1145   1.977   .     S
Cu1108 O1150   1.966   .     S
H1109  C1174   1.087   .     S
H1110  C1738   1.107   .     S
H1118  C1742   1.113   .     S
H1120  C1247   1.085   1_455 S
H1123  C1168   1.109   .     S
H1127  C1746   1.112   .     S
H1132  C1747   1.111   .     S
H1138  C1738   1.110   .     S
C1153  O1213   1.291   .     A
C1153  C1156   1.457   .     S
C1153  O1218   1.299   .     A
C1154  C1156   1.411   .     A
C1154  O1214   1.384   .     S
C1155  C1177   1.398   .     A
C1155  C1164   1.461   .     S
C1155  C1178   1.408   .     A
C1156  C1176   1.397   .     A
C1157  O1215   1.396   .     S
C1157  N1212   1.376   .     A
C1158  O1216   1.387   .     S
C1158  N1211   1.373   .     A
C1158  C1808   1.428   .     S
C1159  H1206   1.074   .     S
C1159  N1211   1.357   .     A
C1159  C1805   1.437   .     S
C1160  N1212   1.362   .     A
C1160  H1207   1.079   .     S
C1161  C1162   1.515   .     S
C1161  O1224   1.410   .     S
C1161  H1208   1.110   .     S
C1161  H1209   1.113   .     S
C1162  H1183   1.109   .     S
C1163  H1185   1.112   .     S
C1163  O1214   1.411   .     S
C1163  C1165   1.521   .     S
C1163  H1184   1.109   .     S
C1164  O1219   1.298   .     A
C1164  O1217   1.295   .     A
C1165  H1188   1.109   .     S
C1165  H1834   1.107   .     S
C1165  H1835   1.109   .     S
C1166  H1189   1.111   .     S
C1166  O1215   1.416   .     S
C1167  C1168   1.528   .     S
C1167  H1193   1.109   .     S
C1167  C1814   1.537   .     S
C1167  H1767   1.108   .     S
C1168  H1194   1.111   .     S
C1168  H1196   1.111   .     S
C1169  O1216   1.418   .     S
C1169  H1197   1.107   .     S
C1169  C1818   1.529   .     S
C1169  H1846   1.116   .     S
C1170  H1200   1.110   .     S
C1170  C1243   1.526   .     S
C1171  H1201   1.110   .     S
C1171  H1202   1.110   .     S
C1172  O1222   1.295   .     A
C1172  O1220   1.288   .     A
C1172  C1174   1.441   .     S
C1173  O1223   1.296   .     A
C1173  C1175   1.441   .     S
C1173  O1221   1.287   .     A
C1175  C1246   1.340   .     S
C1175  H1264   1.085   .     S
C1176  H1203   1.083   .     S
C1177  H1205   1.078   .     S
C1177  C722    1.390   1_565 S
C1178  O1224   1.379   .     S
C1178  C744    1.390   1_565 S
Cu1179 O1220   1.960   .     S
Cu1179 N1211   2.019   .     S
Cu1179 O1219   1.973   .     S
Cu1179 O1223   1.966   .     S
Cu1179 Cu1180  2.686   .     S
Cu1179 O1213   1.977   .     S
Cu1180 O1218   1.973   .     S
Cu1180 O1221   1.960   .     S
Cu1180 N1212   2.019   .     S
Cu1180 O1217   1.977   .     S
Cu1180 O1222   1.966   .     S
H1181  C1246   1.087   .     S
H1182  C1810   1.107   .     S
H1190  C1814   1.113   .     S
H1195  C1240   1.109   .     S
H1199  C1818   1.112   .     S
H1204  C1819   1.111   .     S
H1210  C1810   1.110   .     S
C1225  O1285   1.291   .     A
C1225  C1228   1.457   .     S
C1225  O1290   1.299   .     A
C1226  C1228   1.411   .     A
C1226  O1286   1.384   .     S
C1227  C1249   1.398   .     A
C1227  C1236   1.461   .     S
C1227  C1250   1.408   .     A
C1228  C1248   1.397   .     A
C1229  O1287   1.396   .     S
C1229  N1284   1.376   .     A
C1230  O1288   1.387   .     S
C1230  N1283   1.373   .     A
C1230  C1880   1.428   .     S
C1231  H1278   1.074   .     S
C1231  N1283   1.357   .     A
C1231  C1877   1.437   .     S
C1232  N1284   1.362   .     A
C1232  H1279   1.079   .     S
C1233  C1234   1.515   .     S
C1233  O1296   1.410   .     S
C1233  H1280   1.110   .     S
C1233  H1281   1.113   .     S
C1234  H1255   1.109   .     S
C1235  H1257   1.112   .     S
C1235  O1286   1.411   .     S
C1235  C1237   1.521   .     S
C1235  H1256   1.109   .     S
C1236  O1291   1.298   .     A
C1236  O1289   1.295   .     A
C1237  H1260   1.109   .     S
C1237  H1906   1.107   .     S
C1237  H1907   1.109   .     S
C1238  H1261   1.111   .     S
C1238  O1287   1.416   .     S
C1239  C1240   1.528   .     S
C1239  H1265   1.109   .     S
C1239  C1886   1.537   .     S
C1239  H1839   1.108   .     S
C1240  H1266   1.111   .     S
C1240  H1268   1.111   .     S
C1241  O1288   1.418   .     S
C1241  H1269   1.107   .     S
C1241  C1890   1.529   .     S
C1241  H1918   1.116   .     S
C1242  H1272   1.110   .     S
C1242  C1099   1.526   1_655 S
C1243  H1273   1.110   .     S
C1243  H1274   1.110   .     S
C1244  O1294   1.295   .     A
C1244  O1292   1.288   .     A
C1244  C1246   1.441   .     S
C1245  O1295   1.296   .     A
C1245  C1247   1.441   .     S
C1245  O1293   1.287   .     A
C1247  C1102   1.340   1_655 S
C1247  H1120   1.085   1_655 S
C1248  H1275   1.083   .     S
C1249  H1277   1.078   .     S
C1249  C794    1.390   1_565 S
C1250  O1296   1.379   .     S
C1250  C816    1.390   1_565 S
Cu1251 O1292   1.960   .     S
Cu1251 N1283   2.019   .     S
Cu1251 O1291   1.973   .     S
Cu1251 O1295   1.966   .     S
Cu1251 Cu1252  2.686   .     S
Cu1251 O1285   1.977   .     S
Cu1252 O1290   1.973   .     S
Cu1252 O1293   1.960   .     S
Cu1252 N1284   2.019   .     S
Cu1252 O1289   1.977   .     S
Cu1252 O1294   1.966   .     S
H1253  C1102   1.087   1_655 S
H1254  C1882   1.107   .     S
H1262  C1886   1.113   .     S
H1263  C447    1.108   1_655 S
H1267  C1096   1.109   1_655 S
H1271  C1890   1.112   .     S
H1276  C1891   1.111   .     S
H1282  C1882   1.110   .     S
C1297  O1357   1.291   .     A
C1297  C1300   1.457   .     S
C1297  O1362   1.299   .     A
C1298  C1300   1.411   .     A
C1298  O1358   1.384   .     S
C1298  C1753   1.390   1_545 S
C1299  C1321   1.398   .     A
C1299  C1308   1.461   .     S
C1299  C1322   1.408   .     A
C1300  C1320   1.397   .     A
C1301  O1359   1.396   .     S
C1301  N1356   1.376   .     A
C1302  O1360   1.387   .     S
C1302  N1355   1.373   .     A
C1302  C8      1.428   1_556 S
C1303  H1350   1.074   .     S
C1303  N1355   1.357   .     A
C1303  C5      1.437   1_556 S
C1304  N1356   1.362   .     A
C1304  H1351   1.079   .     S
C1305  C1306   1.515   .     S
C1305  O1368   1.410   .     S
C1305  H1352   1.110   .     S
C1305  H1353   1.113   .     S
C1306  H1327   1.109   .     S
C1307  H1329   1.112   .     S
C1307  O1358   1.411   .     S
C1307  C1309   1.521   .     S
C1307  H1328   1.109   .     S
C1308  O1363   1.298   .     A
C1308  O1361   1.295   .     A
C1309  H1332   1.109   .     S
C1309  H34     1.107   1_556 S
C1309  H35     1.109   1_556 S
C1310  H1333   1.111   .     S
C1310  O1359   1.416   .     S
C1311  C1312   1.528   .     S
C1311  H1337   1.109   .     S
C1311  C14     1.537   1_556 S
C1311  H183    1.108   1_456 S
C1312  H1338   1.111   .     S
C1312  H1340   1.111   .     S
C1312  H1483   1.109   1_455 S
C1313  O1360   1.418   .     S
C1313  H1341   1.107   .     S
C1313  C18     1.529   1_556 S
C1313  H46     1.116   1_556 S
C1314  H1344   1.110   .     S
C1314  C1387   1.526   .     S
C1315  H1345   1.110   .     S
C1315  H1346   1.110   .     S
C1315  C1458   1.526   1_455 S
C1316  O1366   1.295   .     A
C1316  O1364   1.288   .     A
C1316  C1318   1.441   .     S
C1317  O1367   1.296   .     A
C1317  C1319   1.441   .     S
C1317  O1365   1.287   .     A
C1318  C1463   1.340   1_455 S
C1318  H1469   1.087   1_455 S
C1319  C1390   1.340   .     S
C1319  H1408   1.085   .     S
C1320  H1347   1.083   .     S
C1320  C1754   1.390   1_545 S
C1321  H1349   1.078   .     S
C1321  C1514   1.390   .     S
C1322  O1368   1.379   .     S
C1322  C1536   1.390   .     S
Cu1323 O1364   1.960   .     S
Cu1323 N1355   2.019   .     S
Cu1323 O1363   1.973   .     S
Cu1323 O1367   1.966   .     S
Cu1323 Cu1324  2.686   .     S
Cu1323 O1357   1.977   .     S
Cu1324 O1362   1.973   .     S
Cu1324 O1365   1.960   .     S
Cu1324 N1356   2.019   .     S
Cu1324 O1361   1.977   .     S
Cu1324 O1366   1.966   .     S
H1325  C1390   1.087   .     S
H1326  C10     1.107   1_556 S
H1334  C14     1.113   1_556 S
H1336  C1463   1.085   1_455 S
H1339  C1384   1.109   .     S
H1343  C18     1.112   1_556 S
H1348  C19     1.111   1_556 S
H1354  C10     1.110   1_556 S
C1369  O1429   1.291   .     A
C1369  C1372   1.457   .     S
C1369  O1434   1.299   .     A
C1370  C1372   1.411   .     A
C1370  O1430   1.384   .     S
C1370  C1825   1.390   1_545 S
C1371  C1393   1.398   .     A
C1371  C1380   1.461   .     S
C1371  C1394   1.408   .     A
C1372  C1392   1.397   .     A
C1373  O1431   1.396   .     S
C1373  N1428   1.376   .     A
C1374  O1432   1.387   .     S
C1374  N1427   1.373   .     A
C1374  C80     1.428   1_556 S
C1375  H1422   1.074   .     S
C1375  N1427   1.357   .     A
C1375  C77     1.437   1_556 S
C1376  N1428   1.362   .     A
C1376  H1423   1.079   .     S
C1377  C1378   1.515   .     S
C1377  O1440   1.410   .     S
C1377  H1424   1.110   .     S
C1377  H1425   1.113   .     S
C1378  H1399   1.109   .     S
C1379  H1401   1.112   .     S
C1379  O1430   1.411   .     S
C1379  C1381   1.521   .     S
C1379  H1400   1.109   .     S
C1380  O1435   1.298   .     A
C1380  O1433   1.295   .     A
C1381  H1404   1.109   .     S
C1381  H106    1.107   1_556 S
C1381  H107    1.109   1_556 S
C1382  H1405   1.111   .     S
C1382  O1431   1.416   .     S
C1383  C1384   1.528   .     S
C1383  H1409   1.109   .     S
C1383  C86     1.537   1_556 S
C1383  H39     1.108   1_556 S
C1384  H1410   1.111   .     S
C1384  H1412   1.111   .     S
C1385  O1432   1.418   .     S
C1385  H1413   1.107   .     S
C1385  C90     1.529   1_556 S
C1385  H118    1.116   1_556 S
C1386  H1416   1.110   .     S
C1386  C1459   1.526   .     S
C1387  H1417   1.110   .     S
C1387  H1418   1.110   .     S
C1388  O1438   1.295   .     A
C1388  O1436   1.288   .     A
C1388  C1390   1.441   .     S
C1389  O1439   1.296   .     A
C1389  C1391   1.441   .     S
C1389  O1437   1.287   .     A
C1391  C1462   1.340   .     S
C1391  H1480   1.085   .     S
C1392  H1419   1.083   .     S
C1392  C1826   1.390   1_545 S
C1393  H1421   1.078   .     S
C1393  C1586   1.390   .     S
C1394  O1440   1.379   .     S
C1394  C1608   1.390   .     S
Cu1395 O1436   1.960   .     S
Cu1395 N1427   2.019   .     S
Cu1395 O1435   1.973   .     S
Cu1395 O1439   1.966   .     S
Cu1395 Cu1396  2.686   .     S
Cu1395 O1429   1.977   .     S
Cu1396 O1434   1.973   .     S
Cu1396 O1437   1.960   .     S
Cu1396 N1428   2.019   .     S
Cu1396 O1433   1.977   .     S
Cu1396 O1438   1.966   .     S
H1397  C1462   1.087   .     S
H1398  C82     1.107   1_556 S
H1406  C86     1.113   1_556 S
H1411  C1456   1.109   .     S
H1415  C90     1.112   1_556 S
H1420  C91     1.111   1_556 S
H1426  C82     1.110   1_556 S
C1441  O1501   1.291   .     A
C1441  C1444   1.457   .     S
C1441  O1506   1.299   .     A
C1442  C1444   1.411   .     A
C1442  O1502   1.384   .     S
C1442  C1897   1.390   1_545 S
C1443  C1465   1.398   .     A
C1443  C1452   1.461   .     S
C1443  C1466   1.408   .     A
C1444  C1464   1.397   .     A
C1445  O1503   1.396   .     S
C1445  N1500   1.376   .     A
C1446  O1504   1.387   .     S
C1446  N1499   1.373   .     A
C1446  C152    1.428   1_556 S
C1447  H1494   1.074   .     S
C1447  N1499   1.357   .     A
C1447  C149    1.437   1_556 S
C1448  N1500   1.362   .     A
C1448  H1495   1.079   .     S
C1449  C1450   1.515   .     S
C1449  O1512   1.410   .     S
C1449  H1496   1.110   .     S
C1449  H1497   1.113   .     S
C1450  H1471   1.109   .     S
C1451  H1473   1.112   .     S
C1451  O1502   1.411   .     S
C1451  C1453   1.521   .     S
C1451  H1472   1.109   .     S
C1452  O1507   1.298   .     A
C1452  O1505   1.295   .     A
C1453  H1476   1.109   .     S
C1453  H178    1.107   1_556 S
C1453  H179    1.109   1_556 S
C1454  H1477   1.111   .     S
C1454  O1503   1.416   .     S
C1455  C1456   1.528   .     S
C1455  H1481   1.109   .     S
C1455  C158    1.537   1_556 S
C1455  H111    1.108   1_556 S
C1456  H1482   1.111   .     S
C1456  H1484   1.111   .     S
C1457  O1504   1.418   .     S
C1457  H1485   1.107   .     S
C1457  C162    1.529   1_556 S
C1457  H190    1.116   1_556 S
C1458  H1488   1.110   .     S
C1458  C1315   1.526   1_655 S
C1459  H1489   1.110   .     S
C1459  H1490   1.110   .     S
C1460  O1510   1.295   .     A
C1460  O1508   1.288   .     A
C1460  C1462   1.441   .     S
C1461  O1511   1.296   .     A
C1461  C1463   1.441   .     S
C1461  O1509   1.287   .     A
C1463  C1318   1.340   1_655 S
C1463  H1336   1.085   1_655 S
C1464  H1491   1.083   .     S
C1464  C1898   1.390   1_545 S
C1465  H1493   1.078   .     S
C1465  C1658   1.390   .     S
C1466  O1512   1.379   .     S
C1466  C1680   1.390   .     S
Cu1467 O1508   1.960   .     S
Cu1467 N1499   2.019   .     S
Cu1467 O1507   1.973   .     S
Cu1467 O1511   1.966   .     S
Cu1467 Cu1468  2.686   .     S
Cu1467 O1501   1.977   .     S
Cu1468 O1506   1.973   .     S
Cu1468 O1509   1.960   .     S
Cu1468 N1500   2.019   .     S
Cu1468 O1505   1.977   .     S
Cu1468 O1510   1.966   .     S
H1469  C1318   1.087   1_655 S
H1470  C154    1.107   1_556 S
H1478  C158    1.113   1_556 S
H1479  C663    1.108   1_655 S
H1483  C1312   1.109   1_655 S
H1487  C162    1.112   1_556 S
H1492  C163    1.111   1_556 S
H1498  C154    1.110   1_556 S
C1513  O1573   1.291   .     A
C1513  C1516   1.457   .     S
C1513  O1578   1.299   .     A
C1514  C1516   1.411   .     A
C1514  O1574   1.384   .     S
C1515  C1537   1.398   .     A
C1515  C1524   1.461   .     S
C1515  C1538   1.408   .     A
C1516  C1536   1.397   .     A
C1517  O1575   1.396   .     S
C1517  N1572   1.376   .     A
C1518  O1576   1.387   .     S
C1518  N1571   1.373   .     A
C1518  C224    1.428   1_556 S
C1519  H1566   1.074   .     S
C1519  N1571   1.357   .     A
C1519  C221    1.437   1_556 S
C1520  N1572   1.362   .     A
C1520  H1567   1.079   .     S
C1521  C1522   1.515   .     S
C1521  O1584   1.410   .     S
C1521  H1568   1.110   .     S
C1521  H1569   1.113   .     S
C1522  H1543   1.109   .     S
C1523  H1545   1.112   .     S
C1523  O1574   1.411   .     S
C1523  C1525   1.521   .     S
C1523  H1544   1.109   .     S
C1524  O1579   1.298   .     A
C1524  O1577   1.295   .     A
C1525  H1548   1.109   .     S
C1525  H250    1.107   1_556 S
C1525  H251    1.109   1_556 S
C1526  H1549   1.111   .     S
C1526  O1575   1.416   .     S
C1527  C1528   1.528   .     S
C1527  H1553   1.109   .     S
C1527  C230    1.537   1_556 S
C1527  H399    1.108   1_456 S
C1528  H1554   1.111   .     S
C1528  H1556   1.111   .     S
C1528  H1699   1.109   1_455 S
C1529  O1576   1.418   .     S
C1529  H1557   1.107   .     S
C1529  C234    1.529   1_556 S
C1529  H262    1.116   1_556 S
C1530  H1560   1.110   .     S
C1530  C1603   1.526   .     S
C1531  H1561   1.110   .     S
C1531  H1562   1.110   .     S
C1531  C1674   1.526   1_455 S
C1532  O1582   1.295   .     A
C1532  O1580   1.288   .     A
C1532  C1534   1.441   .     S
C1533  O1583   1.296   .     A
C1533  C1535   1.441   .     S
C1533  O1581   1.287   .     A
C1534  C1679   1.340   1_455 S
C1534  H1685   1.087   1_455 S
C1535  C1606   1.340   .     S
C1535  H1624   1.085   .     S
C1536  H1563   1.083   .     S
C1537  H1565   1.078   .     S
C1537  C1730   1.390   .     S
C1538  O1584   1.379   .     S
C1538  C1752   1.390   .     S
Cu1539 O1580   1.960   .     S
Cu1539 N1571   2.019   .     S
Cu1539 O1579   1.973   .     S
Cu1539 O1583   1.966   .     S
Cu1539 Cu1540  2.686   .     S
Cu1539 O1573   1.977   .     S
Cu1540 O1578   1.973   .     S
Cu1540 O1581   1.960   .     S
Cu1540 N1572   2.019   .     S
Cu1540 O1577   1.977   .     S
Cu1540 O1582   1.966   .     S
H1541  C1606   1.087   .     S
H1542  C226    1.107   1_556 S
H1550  C230    1.113   1_556 S
H1552  C1679   1.085   1_455 S
H1555  C1600   1.109   .     S
H1559  C234    1.112   1_556 S
H1564  C235    1.111   1_556 S
H1570  C226    1.110   1_556 S
C1585  O1645   1.291   .     A
C1585  C1588   1.457   .     S
C1585  O1650   1.299   .     A
C1586  C1588   1.411   .     A
C1586  O1646   1.384   .     S
C1587  C1609   1.398   .     A
C1587  C1596   1.461   .     S
C1587  C1610   1.408   .     A
C1588  C1608   1.397   .     A
C1589  O1647   1.396   .     S
C1589  N1644   1.376   .     A
C1590  O1648   1.387   .     S
C1590  N1643   1.373   .     A
C1590  C296    1.428   1_556 S
C1591  H1638   1.074   .     S
C1591  N1643   1.357   .     A
C1591  C293    1.437   1_556 S
C1592  N1644   1.362   .     A
C1592  H1639   1.079   .     S
C1593  C1594   1.515   .     S
C1593  O1656   1.410   .     S
C1593  H1640   1.110   .     S
C1593  H1641   1.113   .     S
C1594  H1615   1.109   .     S
C1595  H1617   1.112   .     S
C1595  O1646   1.411   .     S
C1595  C1597   1.521   .     S
C1595  H1616   1.109   .     S
C1596  O1651   1.298   .     A
C1596  O1649   1.295   .     A
C1597  H1620   1.109   .     S
C1597  H322    1.107   1_556 S
C1597  H323    1.109   1_556 S
C1598  H1621   1.111   .     S
C1598  O1647   1.416   .     S
C1599  C1600   1.528   .     S
C1599  H1625   1.109   .     S
C1599  C302    1.537   1_556 S
C1599  H255    1.108   1_556 S
C1600  H1626   1.111   .     S
C1600  H1628   1.111   .     S
C1601  O1648   1.418   .     S
C1601  H1629   1.107   .     S
C1601  C306    1.529   1_556 S
C1601  H334    1.116   1_556 S
C1602  H1632   1.110   .     S
C1602  C1675   1.526   .     S
C1603  H1633   1.110   .     S
C1603  H1634   1.110   .     S
C1604  O1654   1.295   .     A
C1604  O1652   1.288   .     A
C1604  C1606   1.441   .     S
C1605  O1655   1.296   .     A
C1605  C1607   1.441   .     S
C1605  O1653   1.287   .     A
C1607  C1678   1.340   .     S
C1607  H1696   1.085   .     S
C1608  H1635   1.083   .     S
C1609  H1637   1.078   .     S
C1609  C1802   1.390   .     S
C1610  O1656   1.379   .     S
C1610  C1824   1.390   .     S
Cu1611 O1652   1.960   .     S
Cu1611 N1643   2.019   .     S
Cu1611 O1651   1.973   .     S
Cu1611 O1655   1.966   .     S
Cu1611 Cu1612  2.686   .     S
Cu1611 O1645   1.977   .     S
Cu1612 O1650   1.973   .     S
Cu1612 O1653   1.960   .     S
Cu1612 N1644   2.019   .     S
Cu1612 O1649   1.977   .     S
Cu1612 O1654   1.966   .     S
H1613  C1678   1.087   .     S
H1614  C298    1.107   1_556 S
H1622  C302    1.113   1_556 S
H1627  C1672   1.109   .     S
H1631  C306    1.112   1_556 S
H1636  C307    1.111   1_556 S
H1642  C298    1.110   1_556 S
C1657  O1717   1.291   .     A
C1657  C1660   1.457   .     S
C1657  O1722   1.299   .     A
C1658  C1660   1.411   .     A
C1658  O1718   1.384   .     S
C1659  C1681   1.398   .     A
C1659  C1668   1.461   .     S
C1659  C1682   1.408   .     A
C1660  C1680   1.397   .     A
C1661  O1719   1.396   .     S
C1661  N1716   1.376   .     A
C1662  O1720   1.387   .     S
C1662  N1715   1.373   .     A
C1662  C368    1.428   1_556 S
C1663  H1710   1.074   .     S
C1663  N1715   1.357   .     A
C1663  C365    1.437   1_556 S
C1664  N1716   1.362   .     A
C1664  H1711   1.079   .     S
C1665  C1666   1.515   .     S
C1665  O1728   1.410   .     S
C1665  H1712   1.110   .     S
C1665  H1713   1.113   .     S
C1666  H1687   1.109   .     S
C1667  H1689   1.112   .     S
C1667  O1718   1.411   .     S
C1667  C1669   1.521   .     S
C1667  H1688   1.109   .     S
C1668  O1723   1.298   .     A
C1668  O1721   1.295   .     A
C1669  H1692   1.109   .     S
C1669  H394    1.107   1_556 S
C1669  H395    1.109   1_556 S
C1670  H1693   1.111   .     S
C1670  O1719   1.416   .     S
C1671  C1672   1.528   .     S
C1671  H1697   1.109   .     S
C1671  C374    1.537   1_556 S
C1671  H327    1.108   1_556 S
C1672  H1698   1.111   .     S
C1672  H1700   1.111   .     S
C1673  O1720   1.418   .     S
C1673  H1701   1.107   .     S
C1673  C378    1.529   1_556 S
C1673  H406    1.116   1_556 S
C1674  H1704   1.110   .     S
C1674  C1531   1.526   1_655 S
C1675  H1705   1.110   .     S
C1675  H1706   1.110   .     S
C1676  O1726   1.295   .     A
C1676  O1724   1.288   .     A
C1676  C1678   1.441   .     S
C1677  O1727   1.296   .     A
C1677  C1679   1.441   .     S
C1677  O1725   1.287   .     A
C1679  C1534   1.340   1_655 S
C1679  H1552   1.085   1_655 S
C1680  H1707   1.083   .     S
C1681  H1709   1.078   .     S
C1681  C1874   1.390   .     S
C1682  O1728   1.379   .     S
C1682  C1896   1.390   .     S
Cu1683 O1724   1.960   .     S
Cu1683 N1715   2.019   .     S
Cu1683 O1723   1.973   .     S
Cu1683 O1727   1.966   .     S
Cu1683 Cu1684  2.686   .     S
Cu1683 O1717   1.977   .     S
Cu1684 O1722   1.973   .     S
Cu1684 O1725   1.960   .     S
Cu1684 N1716   2.019   .     S
Cu1684 O1721   1.977   .     S
Cu1684 O1726   1.966   .     S
H1685  C1534   1.087   1_655 S
H1686  C370    1.107   1_556 S
H1694  C374    1.113   1_556 S
H1695  C879    1.108   1_655 S
H1699  C1528   1.109   1_655 S
H1703  C378    1.112   1_556 S
H1708  C379    1.111   1_556 S
H1714  C370    1.110   1_556 S
C1729  O1789   1.291   .     A
C1729  C1732   1.457   .     S
C1729  O1794   1.299   .     A
C1730  C1732   1.411   .     A
C1730  O1790   1.384   .     S
C1731  C1753   1.398   .     A
C1731  C1740   1.461   .     S
C1731  C1754   1.408   .     A
C1732  C1752   1.397   .     A
C1733  O1791   1.396   .     S
C1733  N1788   1.376   .     A
C1734  O1792   1.387   .     S
C1734  N1787   1.373   .     A
C1734  C440    1.428   1_556 S
C1735  H1782   1.074   .     S
C1735  N1787   1.357   .     A
C1735  C437    1.437   1_556 S
C1736  N1788   1.362   .     A
C1736  H1783   1.079   .     S
C1737  C1738   1.515   .     S
C1737  O1800   1.410   .     S
C1737  H1784   1.110   .     S
C1737  H1785   1.113   .     S
C1738  H1759   1.109   .     S
C1739  H1761   1.112   .     S
C1739  O1790   1.411   .     S
C1739  C1741   1.521   .     S
C1739  H1760   1.109   .     S
C1740  O1795   1.298   .     A
C1740  O1793   1.295   .     A
C1741  H1764   1.109   .     S
C1741  H466    1.107   1_556 S
C1741  H467    1.109   1_556 S
C1742  H1765   1.111   .     S
C1742  O1791   1.416   .     S
C1743  C1744   1.528   .     S
C1743  H1769   1.109   .     S
C1743  C446    1.537   1_556 S
C1743  H615    1.108   1_456 S
C1744  H1770   1.111   .     S
C1744  H1772   1.111   .     S
C1744  H1915   1.109   1_455 S
C1745  O1792   1.418   .     S
C1745  H1773   1.107   .     S
C1745  C450    1.529   1_556 S
C1745  H478    1.116   1_556 S
C1746  H1776   1.110   .     S
C1746  C1819   1.526   .     S
C1747  H1777   1.110   .     S
C1747  H1778   1.110   .     S
C1747  C1890   1.526   1_455 S
C1748  O1798   1.295   .     A
C1748  O1796   1.288   .     A
C1748  C1750   1.441   .     S
C1749  O1799   1.296   .     A
C1749  C1751   1.441   .     S
C1749  O1797   1.287   .     A
C1750  C1895   1.340   1_455 S
C1750  H1901   1.087   1_455 S
C1751  C1822   1.340   .     S
C1751  H1840   1.085   .     S
C1752  H1779   1.083   .     S
C1753  H1781   1.078   .     S
C1753  C1298   1.390   1_565 S
C1754  O1800   1.379   .     S
C1754  C1320   1.390   1_565 S
Cu1755 O1796   1.960   .     S
Cu1755 N1787   2.019   .     S
Cu1755 O1795   1.973   .     S
Cu1755 O1799   1.966   .     S
Cu1755 Cu1756  2.686   .     S
Cu1755 O1789   1.977   .     S
Cu1756 O1794   1.973   .     S
Cu1756 O1797   1.960   .     S
Cu1756 N1788   2.019   .     S
Cu1756 O1793   1.977   .     S
Cu1756 O1798   1.966   .     S
H1757  C1822   1.087   .     S
H1758  C442    1.107   1_556 S
H1766  C446    1.113   1_556 S
H1768  C1895   1.085   1_455 S
H1771  C1816   1.109   .     S
H1775  C450    1.112   1_556 S
H1780  C451    1.111   1_556 S
H1786  C442    1.110   1_556 S
C1801  O1861   1.291   .     A
C1801  C1804   1.457   .     S
C1801  O1866   1.299   .     A
C1802  C1804   1.411   .     A
C1802  O1862   1.384   .     S
C1803  C1825   1.398   .     A
C1803  C1812   1.461   .     S
C1803  C1826   1.408   .     A
C1804  C1824   1.397   .     A
C1805  O1863   1.396   .     S
C1805  N1860   1.376   .     A
C1806  O1864   1.387   .     S
C1806  N1859   1.373   .     A
C1806  C512    1.428   1_556 S
C1807  H1854   1.074   .     S
C1807  N1859   1.357   .     A
C1807  C509    1.437   1_556 S
C1808  N1860   1.362   .     A
C1808  H1855   1.079   .     S
C1809  C1810   1.515   .     S
C1809  O1872   1.410   .     S
C1809  H1856   1.110   .     S
C1809  H1857   1.113   .     S
C1810  H1831   1.109   .     S
C1811  H1833   1.112   .     S
C1811  O1862   1.411   .     S
C1811  C1813   1.521   .     S
C1811  H1832   1.109   .     S
C1812  O1867   1.298   .     A
C1812  O1865   1.295   .     A
C1813  H1836   1.109   .     S
C1813  H538    1.107   1_556 S
C1813  H539    1.109   1_556 S
C1814  H1837   1.111   .     S
C1814  O1863   1.416   .     S
C1815  C1816   1.528   .     S
C1815  H1841   1.109   .     S
C1815  C518    1.537   1_556 S
C1815  H471    1.108   1_556 S
C1816  H1842   1.111   .     S
C1816  H1844   1.111   .     S
C1817  O1864   1.418   .     S
C1817  H1845   1.107   .     S
C1817  C522    1.529   1_556 S
C1817  H550    1.116   1_556 S
C1818  H1848   1.110   .     S
C1818  C1891   1.526   .     S
C1819  H1849   1.110   .     S
C1819  H1850   1.110   .     S
C1820  O1870   1.295   .     A
C1820  O1868   1.288   .     A
C1820  C1822   1.441   .     S
C1821  O1871   1.296   .     A
C1821  C1823   1.441   .     S
C1821  O1869   1.287   .     A
C1823  C1894   1.340   .     S
C1823  H1912   1.085   .     S
C1824  H1851   1.083   .     S
C1825  H1853   1.078   .     S
C1825  C1370   1.390   1_565 S
C1826  O1872   1.379   .     S
C1826  C1392   1.390   1_565 S
Cu1827 O1868   1.960   .     S
Cu1827 N1859   2.019   .     S
Cu1827 O1867   1.973   .     S
Cu1827 O1871   1.966   .     S
Cu1827 Cu1828  2.686   .     S
Cu1827 O1861   1.977   .     S
Cu1828 O1866   1.973   .     S
Cu1828 O1869   1.960   .     S
Cu1828 N1860   2.019   .     S
Cu1828 O1865   1.977   .     S
Cu1828 O1870   1.966   .     S
H1829  C1894   1.087   .     S
H1830  C514    1.107   1_556 S
H1838  C518    1.113   1_556 S
H1843  C1888   1.109   .     S
H1847  C522    1.112   1_556 S
H1852  C523    1.111   1_556 S
H1858  C514    1.110   1_556 S
C1873  O1933   1.291   .     A
C1873  C1876   1.457   .     S
C1873  O1938   1.299   .     A
C1874  C1876   1.411   .     A
C1874  O1934   1.384   .     S
C1875  C1897   1.398   .     A
C1875  C1884   1.461   .     S
C1875  C1898   1.408   .     A
C1876  C1896   1.397   .     A
C1877  O1935   1.396   .     S
C1877  N1932   1.376   .     A
C1878  O1936   1.387   .     S
C1878  N1931   1.373   .     A
C1878  C584    1.428   1_556 S
C1879  H1926   1.074   .     S
C1879  N1931   1.357   .     A
C1879  C581    1.437   1_556 S
C1880  N1932   1.362   .     A
C1880  H1927   1.079   .     S
C1881  C1882   1.515   .     S
C1881  O1944   1.410   .     S
C1881  H1928   1.110   .     S
C1881  H1929   1.113   .     S
C1882  H1903   1.109   .     S
C1883  H1905   1.112   .     S
C1883  O1934   1.411   .     S
C1883  C1885   1.521   .     S
C1883  H1904   1.109   .     S
C1884  O1939   1.298   .     A
C1884  O1937   1.295   .     A
C1885  H1908   1.109   .     S
C1885  H610    1.107   1_556 S
C1885  H611    1.109   1_556 S
C1886  H1909   1.111   .     S
C1886  O1935   1.416   .     S
C1887  C1888   1.528   .     S
C1887  H1913   1.109   .     S
C1887  C590    1.537   1_556 S
C1887  H543    1.108   1_556 S
C1888  H1914   1.111   .     S
C1888  H1916   1.111   .     S
C1889  O1936   1.418   .     S
C1889  H1917   1.107   .     S
C1889  C594    1.529   1_556 S
C1889  H622    1.116   1_556 S
C1890  H1920   1.110   .     S
C1890  C1747   1.526   1_655 S
C1891  H1921   1.110   .     S
C1891  H1922   1.110   .     S
C1892  O1942   1.295   .     A
C1892  O1940   1.288   .     A
C1892  C1894   1.441   .     S
C1893  O1943   1.296   .     A
C1893  C1895   1.441   .     S
C1893  O1941   1.287   .     A
C1895  C1750   1.340   1_655 S
C1895  H1768   1.085   1_655 S
C1896  H1923   1.083   .     S
C1897  H1925   1.078   .     S
C1897  C1442   1.390   1_565 S
C1898  O1944   1.379   .     S
C1898  C1464   1.390   1_565 S
Cu1899 O1940   1.960   .     S
Cu1899 N1931   2.019   .     S
Cu1899 O1939   1.973   .     S
Cu1899 O1943   1.966   .     S
Cu1899 Cu1900  2.686   .     S
Cu1899 O1933   1.977   .     S
Cu1900 O1938   1.973   .     S
Cu1900 O1941   1.960   .     S
Cu1900 N1932   2.019   .     S
Cu1900 O1937   1.977   .     S
Cu1900 O1942   1.966   .     S
H1901  C1750   1.087   1_655 S
H1902  C586    1.107   1_556 S
H1910  C590    1.113   1_556 S
H1911  C1095   1.108   1_655 S
H1915  C1744   1.109   1_655 S
H1919  C594    1.112   1_556 S
H1924  C595    1.111   1_556 S
H1930  C586    1.110   1_556 S
