data_str_m3_o1_o17_pcu_sym.62
_audit_creation_date              2020-01-03
_audit_creation_method            'Materials Studio'
_symmetry_space_group_name_H-M    'P1'
_symmetry_Int_Tables_number       1
_symmetry_cell_setting            triclinic
loop_
_symmetry_equiv_pos_as_xyz
  x,y,z
_cell_length_a                    32.1778
_cell_length_b                    29.7349
_cell_length_c                    29.8066
_cell_angle_alpha                 91.0216
_cell_angle_beta                  93.9602
_cell_angle_gamma                 90.4854
loop_
_atom_site_label
_atom_site_type_symbol
_atom_site_fract_x
_atom_site_fract_y
_atom_site_fract_z
_atom_site_U_iso_or_equiv
_atom_site_adp_type
_atom_site_occupancy
C1     C     0.08672   0.16663   0.24895   0.00000  Uiso   1.00
C2     C     0.04253   0.16707   0.24889   0.00000  Uiso   1.00
C3     C     0.19066   0.02493   0.28159   0.00000  Uiso   1.00
C4     C     0.14268   0.30840   0.21841   0.00000  Uiso   1.00
C5     C     0.14326   0.02302   0.21791   0.00000  Uiso   1.00
C6     C     0.19007   0.31031   0.28208   0.00000  Uiso   1.00
C7     C     0.16632   0.16631   0.16355   0.00000  Uiso   1.00
C8     C     0.16702   0.16702   0.33645   0.00000  Uiso   1.00
C9     C     0.20479   0.16642   0.40965   0.00000  Uiso   1.00
C10    C     0.12855   0.16691   0.09034   0.00000  Uiso   1.00
C11    C     0.16701   0.16781   0.38412   0.00000  Uiso   1.00
C12    C     0.24661   0.16671   0.25104   0.00000  Uiso   1.00
C13    C     0.16633   0.16552   0.11588   0.00000  Uiso   1.00
C14    C     0.12916   0.16916   0.40375   0.00000  Uiso   1.00
C15    C     0.20418   0.16418   0.09625   0.00000  Uiso   1.00
C16    C     0.12876   0.16831   0.45017   0.00000  Uiso   1.00
C17    C     0.20457   0.16503   0.04983   0.00000  Uiso   1.00
C18    C     0.16687   0.16708   0.47665   0.00000  Uiso   1.00
C19    C     0.16646   0.16625   0.02335   0.00000  Uiso   1.00
C20    C     0.20534   0.16688   0.45633   0.00000  Uiso   1.00
C21    C     0.12800   0.16646   0.04367   0.00000  Uiso   1.00
C22    C     0.09086   0.16821   0.47028   0.00000  Uiso   1.00
C23    C     0.09006   0.16589   0.01703   0.00000  Uiso   1.00
C24    C     0.24247   0.16512   0.02972   0.00000  Uiso   1.00
C25    C     0.03178   0.12389   0.02594   0.00000  Uiso   1.00
C26    C     0.30156   0.20944   0.47407   0.00000  Uiso   1.00
C27    C     0.02921   0.13523   0.14479   0.00000  Uiso   1.00
C28    C     0.30412   0.19810   0.35521   0.00000  Uiso   1.00
C29    C     0.28956   0.06314   0.20849   0.00000  Uiso   1.00
C30    C     0.04378   0.27019   0.29151   0.00000  Uiso   1.00
C31    C     0.21750   0.05012   0.31393   0.00000  Uiso   1.00
C32    C     0.11584   0.28321   0.18607   0.00000  Uiso   1.00
C33    C     0.12098   0.04571   0.18159   0.00000  Uiso   1.00
C34    C     0.24327   0.16744   0.48297   0.00000  Uiso   1.00
C35    C     0.21235   0.28762   0.31841   0.00000  Uiso   1.00
C36    C     0.01883   0.13854   0.21908   0.00000  Uiso   1.00
C37    C     0.31450   0.19479   0.28091   0.00000  Uiso   1.00
C38    C     0.30931   0.13620   0.22197   0.00000  Uiso   1.00
C39    C     0.02403   0.19714   0.27803   0.00000  Uiso   1.00
C40    C     0.29080   0.16626   0.25111   0.00000  Uiso   1.00
H41    H     0.23337   0.16456   0.39289   0.00000  Uiso   1.00
H42    H     0.31223   0.21170   0.01029   0.00000  Uiso   1.00
H43    H     0.28157   0.23866   0.46464   0.00000  Uiso   1.00
H44    H     0.32973   0.21159   0.45480   0.00000  Uiso   1.00
H45    H     0.04659   0.11756   0.11920   0.00000  Uiso   1.00
H46    H     0.03945   0.17113   0.14636   0.00000  Uiso   1.00
H47    H     0.32906   0.13278   0.13308   0.00000  Uiso   1.00
H48    H     0.29388   0.16220   0.35363   0.00000  Uiso   1.00
H49    H     0.28674   0.21577   0.38080   0.00000  Uiso   1.00
H50    H     0.00427   0.20054   0.36692   0.00000  Uiso   1.00
H51    H     0.26569   0.04166   0.18972   0.00000  Uiso   1.00
H52    H     0.09996   0.16877   0.10711   0.00000  Uiso   1.00
H53    H     0.28446   0.06036   0.24493   0.00000  Uiso   1.00
H54    H     0.32061   0.04967   0.20153   0.00000  Uiso   1.00
H55    H     0.04888   0.27297   0.25507   0.00000  Uiso   1.00
H56    H     0.06764   0.29168   0.31028   0.00000  Uiso   1.00
H57    H     0.01273   0.28366   0.29846   0.00000  Uiso   1.00
H58    H     0.10022   0.17008   0.38278   0.00000  Uiso   1.00
H59    H     0.23311   0.16325   0.11722   0.00000  Uiso   1.00
H60    H     0.06186   0.16959   0.44962   0.00000  Uiso   1.00
H61    H     0.27147   0.16374   0.05038   0.00000  Uiso   1.00
H62    H     0.05177   0.09467   0.03537   0.00000  Uiso   1.00
H63    H     0.02111   0.12163   0.48971   0.00000  Uiso   1.00
H64    H     0.00360   0.12174   0.04520   0.00000  Uiso   1.00
N65    N     0.16667   0.28573   0.25000   0.00000  Uiso   1.00
N66    N     0.16667   0.04760   0.25000   0.00000  Uiso   1.00
N67    N     0.23922   0.07007   0.33986   0.00000  Uiso   1.00
N68    N     0.09411   0.26326   0.16014   0.00000  Uiso   1.00
N69    N     0.10345   0.06307   0.15160   0.00000  Uiso   1.00
N70    N     0.22989   0.27026   0.34840   0.00000  Uiso   1.00
O71    O     0.10559   0.20487   0.24999   0.00000  Uiso   1.00
O72    O     0.28091   0.16819   0.46307   0.00000  Uiso   1.00
O73    O     0.03758   0.11406   0.18640   0.00000  Uiso   1.00
O74    O     0.29576   0.21928   0.31360   0.00000  Uiso   1.00
O75    O     0.28495   0.10772   0.19349   0.00000  Uiso   1.00
O76    O     0.04839   0.22562   0.30651   0.00000  Uiso   1.00
O77    O     0.22774   0.12846   0.25000   0.00000  Uiso   1.00
O78    O     0.22774   0.20487   0.25000   0.00000  Uiso   1.00
O79    O     0.10559   0.12846   0.24999   0.00000  Uiso   1.00
O80    O     0.16666   0.20489   0.18392   0.00000  Uiso   1.00
O81    O     0.16667   0.12844   0.31607   0.00000  Uiso   1.00
O82    O     0.16667   0.20489   0.31607   0.00000  Uiso   1.00
O83    O     0.16666   0.12844   0.18392   0.00000  Uiso   1.00
O84    O     0.05242   0.16514   0.03693   0.00000  Uiso   1.00
Zn85   Zn    0.16667   0.21771   0.25000   0.00000  Uiso   1.00
Zn86   Zn    0.16667   0.11563   0.25000   0.00000  Uiso   1.00
C87    C     0.42005   0.16663   0.24895   0.00000  Uiso   1.00
C88    C     0.37586   0.16707   0.24889   0.00000  Uiso   1.00
C89    C     0.52399   0.02493   0.28159   0.00000  Uiso   1.00
C90    C     0.47601   0.30840   0.21841   0.00000  Uiso   1.00
C91    C     0.47660   0.02302   0.21791   0.00000  Uiso   1.00
C92    C     0.52340   0.31031   0.28208   0.00000  Uiso   1.00
C93    C     0.49965   0.16631   0.16355   0.00000  Uiso   1.00
C94    C     0.50035   0.16702   0.33645   0.00000  Uiso   1.00
C95    C     0.53812   0.16642   0.40965   0.00000  Uiso   1.00
C96    C     0.46188   0.16691   0.09034   0.00000  Uiso   1.00
C97    C     0.50034   0.16781   0.38412   0.00000  Uiso   1.00
C98    C     0.57995   0.16671   0.25104   0.00000  Uiso   1.00
C99    C     0.49966   0.16552   0.11588   0.00000  Uiso   1.00
C100   C     0.46249   0.16916   0.40375   0.00000  Uiso   1.00
C101   C     0.53751   0.16418   0.09625   0.00000  Uiso   1.00
C102   C     0.46209   0.16831   0.45017   0.00000  Uiso   1.00
C103   C     0.53791   0.16503   0.04983   0.00000  Uiso   1.00
C104   C     0.50020   0.16708   0.47665   0.00000  Uiso   1.00
C105   C     0.49980   0.16625   0.02335   0.00000  Uiso   1.00
C106   C     0.53867   0.16688   0.45633   0.00000  Uiso   1.00
C107   C     0.46133   0.16646   0.04367   0.00000  Uiso   1.00
C108   C     0.42419   0.16821   0.47028   0.00000  Uiso   1.00
C109   C     0.42339   0.16589   0.01703   0.00000  Uiso   1.00
C110   C     0.57581   0.16512   0.02972   0.00000  Uiso   1.00
C111   C     0.36511   0.12389   0.02594   0.00000  Uiso   1.00
C112   C     0.63489   0.20944   0.47407   0.00000  Uiso   1.00
C113   C     0.36254   0.13523   0.14479   0.00000  Uiso   1.00
C114   C     0.63746   0.19810   0.35521   0.00000  Uiso   1.00
C115   C     0.62289   0.06314   0.20849   0.00000  Uiso   1.00
C116   C     0.37711   0.27019   0.29151   0.00000  Uiso   1.00
C117   C     0.55083   0.05012   0.31393   0.00000  Uiso   1.00
C118   C     0.44917   0.28321   0.18607   0.00000  Uiso   1.00
C119   C     0.45432   0.04571   0.18159   0.00000  Uiso   1.00
C120   C     0.57661   0.16744   0.48297   0.00000  Uiso   1.00
C121   C     0.54568   0.28762   0.31841   0.00000  Uiso   1.00
C122   C     0.35216   0.13854   0.21908   0.00000  Uiso   1.00
C123   C     0.64784   0.19479   0.28091   0.00000  Uiso   1.00
C124   C     0.64264   0.13620   0.22197   0.00000  Uiso   1.00
C125   C     0.35736   0.19714   0.27803   0.00000  Uiso   1.00
C126   C     0.62414   0.16626   0.25111   0.00000  Uiso   1.00
H127   H     0.56670   0.16456   0.39289   0.00000  Uiso   1.00
H128   H     0.64556   0.21170   0.01029   0.00000  Uiso   1.00
H129   H     0.61490   0.23866   0.46464   0.00000  Uiso   1.00
H130   H     0.66306   0.21159   0.45480   0.00000  Uiso   1.00
H131   H     0.37993   0.11756   0.11920   0.00000  Uiso   1.00
H132   H     0.37278   0.17113   0.14636   0.00000  Uiso   1.00
H133   H     0.66239   0.13278   0.13308   0.00000  Uiso   1.00
H134   H     0.62721   0.16220   0.35363   0.00000  Uiso   1.00
H135   H     0.62008   0.21577   0.38080   0.00000  Uiso   1.00
H136   H     0.33760   0.20054   0.36692   0.00000  Uiso   1.00
H137   H     0.59902   0.04166   0.18972   0.00000  Uiso   1.00
H138   H     0.43329   0.16877   0.10711   0.00000  Uiso   1.00
H139   H     0.61779   0.06036   0.24493   0.00000  Uiso   1.00
H140   H     0.65394   0.04967   0.20153   0.00000  Uiso   1.00
H141   H     0.38221   0.27297   0.25507   0.00000  Uiso   1.00
H142   H     0.40098   0.29168   0.31028   0.00000  Uiso   1.00
H143   H     0.34606   0.28366   0.29846   0.00000  Uiso   1.00
H144   H     0.43355   0.17008   0.38278   0.00000  Uiso   1.00
H145   H     0.56645   0.16325   0.11722   0.00000  Uiso   1.00
H146   H     0.39520   0.16959   0.44962   0.00000  Uiso   1.00
H147   H     0.60480   0.16374   0.05038   0.00000  Uiso   1.00
H148   H     0.38510   0.09467   0.03537   0.00000  Uiso   1.00
H149   H     0.35444   0.12163   0.48971   0.00000  Uiso   1.00
H150   H     0.33694   0.12174   0.04520   0.00000  Uiso   1.00
N151   N     0.50000   0.28573   0.25000   0.00000  Uiso   1.00
N152   N     0.50000   0.04760   0.25000   0.00000  Uiso   1.00
N153   N     0.57256   0.07007   0.33986   0.00000  Uiso   1.00
N154   N     0.42744   0.26326   0.16014   0.00000  Uiso   1.00
N155   N     0.43678   0.06307   0.15160   0.00000  Uiso   1.00
N156   N     0.56322   0.27026   0.34840   0.00000  Uiso   1.00
O157   O     0.43892   0.20487   0.24999   0.00000  Uiso   1.00
O158   O     0.61424   0.16819   0.46307   0.00000  Uiso   1.00
O159   O     0.37091   0.11406   0.18640   0.00000  Uiso   1.00
O160   O     0.62909   0.21928   0.31360   0.00000  Uiso   1.00
O161   O     0.61828   0.10772   0.19349   0.00000  Uiso   1.00
O162   O     0.38172   0.22562   0.30651   0.00000  Uiso   1.00
O163   O     0.56108   0.12846   0.25000   0.00000  Uiso   1.00
O164   O     0.56108   0.20487   0.25000   0.00000  Uiso   1.00
O165   O     0.43892   0.12846   0.24999   0.00000  Uiso   1.00
O166   O     0.49999   0.20489   0.18392   0.00000  Uiso   1.00
O167   O     0.50001   0.12844   0.31607   0.00000  Uiso   1.00
O168   O     0.50001   0.20489   0.31607   0.00000  Uiso   1.00
O169   O     0.49999   0.12844   0.18392   0.00000  Uiso   1.00
O170   O     0.38576   0.16514   0.03693   0.00000  Uiso   1.00
Zn171  Zn    0.50000   0.21771   0.25000   0.00000  Uiso   1.00
Zn172  Zn    0.50000   0.11563   0.25000   0.00000  Uiso   1.00
C173   C     0.75339   0.16663   0.24895   0.00000  Uiso   1.00
C174   C     0.70920   0.16707   0.24889   0.00000  Uiso   1.00
C175   C     0.85732   0.02493   0.28159   0.00000  Uiso   1.00
C176   C     0.80934   0.30840   0.21841   0.00000  Uiso   1.00
C177   C     0.80993   0.02302   0.21791   0.00000  Uiso   1.00
C178   C     0.85674   0.31031   0.28208   0.00000  Uiso   1.00
C179   C     0.83298   0.16631   0.16355   0.00000  Uiso   1.00
C180   C     0.83368   0.16702   0.33645   0.00000  Uiso   1.00
C181   C     0.87145   0.16642   0.40965   0.00000  Uiso   1.00
C182   C     0.79521   0.16691   0.09034   0.00000  Uiso   1.00
C183   C     0.83367   0.16781   0.38412   0.00000  Uiso   1.00
C184   C     0.91328   0.16671   0.25104   0.00000  Uiso   1.00
C185   C     0.83299   0.16552   0.11588   0.00000  Uiso   1.00
C186   C     0.79582   0.16916   0.40375   0.00000  Uiso   1.00
C187   C     0.87084   0.16418   0.09625   0.00000  Uiso   1.00
C188   C     0.79542   0.16831   0.45017   0.00000  Uiso   1.00
C189   C     0.87124   0.16503   0.04983   0.00000  Uiso   1.00
C190   C     0.83354   0.16708   0.47665   0.00000  Uiso   1.00
C191   C     0.83313   0.16625   0.02335   0.00000  Uiso   1.00
C192   C     0.87200   0.16688   0.45633   0.00000  Uiso   1.00
C193   C     0.79466   0.16646   0.04367   0.00000  Uiso   1.00
C194   C     0.75753   0.16821   0.47028   0.00000  Uiso   1.00
C195   C     0.75672   0.16589   0.01703   0.00000  Uiso   1.00
C196   C     0.90914   0.16512   0.02972   0.00000  Uiso   1.00
C197   C     0.69844   0.12389   0.02594   0.00000  Uiso   1.00
C198   C     0.96822   0.20944   0.47407   0.00000  Uiso   1.00
C199   C     0.69587   0.13523   0.14479   0.00000  Uiso   1.00
C200   C     0.97079   0.19810   0.35521   0.00000  Uiso   1.00
C201   C     0.95622   0.06314   0.20849   0.00000  Uiso   1.00
C202   C     0.71044   0.27019   0.29151   0.00000  Uiso   1.00
C203   C     0.88416   0.05012   0.31393   0.00000  Uiso   1.00
C204   C     0.78250   0.28321   0.18607   0.00000  Uiso   1.00
C205   C     0.78765   0.04571   0.18159   0.00000  Uiso   1.00
C206   C     0.90994   0.16744   0.48297   0.00000  Uiso   1.00
C207   C     0.87902   0.28762   0.31841   0.00000  Uiso   1.00
C208   C     0.68550   0.13854   0.21908   0.00000  Uiso   1.00
C209   C     0.98117   0.19479   0.28091   0.00000  Uiso   1.00
C210   C     0.97597   0.13620   0.22197   0.00000  Uiso   1.00
C211   C     0.69069   0.19714   0.27803   0.00000  Uiso   1.00
C212   C     0.95747   0.16626   0.25111   0.00000  Uiso   1.00
H213   H     0.90004   0.16456   0.39289   0.00000  Uiso   1.00
H214   H     0.97889   0.21170   0.01029   0.00000  Uiso   1.00
H215   H     0.94823   0.23866   0.46464   0.00000  Uiso   1.00
H216   H     0.99639   0.21159   0.45480   0.00000  Uiso   1.00
H217   H     0.71326   0.11756   0.11920   0.00000  Uiso   1.00
H218   H     0.70611   0.17113   0.14636   0.00000  Uiso   1.00
H219   H     0.99573   0.13278   0.13308   0.00000  Uiso   1.00
H220   H     0.96054   0.16220   0.35363   0.00000  Uiso   1.00
H221   H     0.95341   0.21577   0.38080   0.00000  Uiso   1.00
H222   H     0.67094   0.20054   0.36692   0.00000  Uiso   1.00
H223   H     0.93235   0.04166   0.18972   0.00000  Uiso   1.00
H224   H     0.76663   0.16877   0.10711   0.00000  Uiso   1.00
H225   H     0.95112   0.06036   0.24493   0.00000  Uiso   1.00
H226   H     0.98727   0.04967   0.20153   0.00000  Uiso   1.00
H227   H     0.71555   0.27297   0.25507   0.00000  Uiso   1.00
H228   H     0.73431   0.29168   0.31028   0.00000  Uiso   1.00
H229   H     0.67939   0.28366   0.29846   0.00000  Uiso   1.00
H230   H     0.76689   0.17008   0.38278   0.00000  Uiso   1.00
H231   H     0.89978   0.16325   0.11722   0.00000  Uiso   1.00
H232   H     0.72853   0.16959   0.44962   0.00000  Uiso   1.00
H233   H     0.93813   0.16374   0.05038   0.00000  Uiso   1.00
H234   H     0.71843   0.09467   0.03537   0.00000  Uiso   1.00
H235   H     0.68778   0.12163   0.48971   0.00000  Uiso   1.00
H236   H     0.67027   0.12174   0.04520   0.00000  Uiso   1.00
N237   N     0.83333   0.28573   0.25000   0.00000  Uiso   1.00
N238   N     0.83333   0.04760   0.25000   0.00000  Uiso   1.00
N239   N     0.90589   0.07007   0.33986   0.00000  Uiso   1.00
N240   N     0.76078   0.26326   0.16014   0.00000  Uiso   1.00
N241   N     0.77011   0.06307   0.15160   0.00000  Uiso   1.00
N242   N     0.89656   0.27026   0.34840   0.00000  Uiso   1.00
O243   O     0.77226   0.20487   0.24999   0.00000  Uiso   1.00
O244   O     0.94757   0.16819   0.46307   0.00000  Uiso   1.00
O245   O     0.70424   0.11406   0.18640   0.00000  Uiso   1.00
O246   O     0.96242   0.21928   0.31360   0.00000  Uiso   1.00
O247   O     0.95161   0.10772   0.19349   0.00000  Uiso   1.00
O248   O     0.71505   0.22562   0.30651   0.00000  Uiso   1.00
O249   O     0.89441   0.12846   0.25000   0.00000  Uiso   1.00
O250   O     0.89441   0.20487   0.25000   0.00000  Uiso   1.00
O251   O     0.77226   0.12846   0.24999   0.00000  Uiso   1.00
O252   O     0.83333   0.20489   0.18392   0.00000  Uiso   1.00
O253   O     0.83334   0.12844   0.31607   0.00000  Uiso   1.00
O254   O     0.83334   0.20489   0.31607   0.00000  Uiso   1.00
O255   O     0.83333   0.12844   0.18392   0.00000  Uiso   1.00
O256   O     0.71909   0.16514   0.03693   0.00000  Uiso   1.00
Zn257  Zn    0.83333   0.21771   0.25000   0.00000  Uiso   1.00
Zn258  Zn    0.83333   0.11563   0.25000   0.00000  Uiso   1.00
C259   C     0.08672   0.49996   0.24895   0.00000  Uiso   1.00
C260   C     0.04253   0.50041   0.24889   0.00000  Uiso   1.00
C261   C     0.19066   0.35826   0.28159   0.00000  Uiso   1.00
C262   C     0.14268   0.64174   0.21841   0.00000  Uiso   1.00
C263   C     0.14326   0.35636   0.21791   0.00000  Uiso   1.00
C264   C     0.19007   0.64364   0.28208   0.00000  Uiso   1.00
C265   C     0.16632   0.49964   0.16355   0.00000  Uiso   1.00
C266   C     0.16702   0.50036   0.33645   0.00000  Uiso   1.00
C267   C     0.20479   0.49975   0.40965   0.00000  Uiso   1.00
C268   C     0.12855   0.50024   0.09034   0.00000  Uiso   1.00
C269   C     0.16701   0.50115   0.38412   0.00000  Uiso   1.00
C270   C     0.24661   0.50004   0.25104   0.00000  Uiso   1.00
C271   C     0.16633   0.49885   0.11588   0.00000  Uiso   1.00
C272   C     0.12916   0.50249   0.40375   0.00000  Uiso   1.00
C273   C     0.20418   0.49751   0.09625   0.00000  Uiso   1.00
C274   C     0.12876   0.50164   0.45017   0.00000  Uiso   1.00
C275   C     0.20457   0.49836   0.04983   0.00000  Uiso   1.00
C276   C     0.16687   0.50041   0.47665   0.00000  Uiso   1.00
C277   C     0.16646   0.49959   0.02335   0.00000  Uiso   1.00
C278   C     0.20534   0.50021   0.45633   0.00000  Uiso   1.00
C279   C     0.12800   0.49979   0.04367   0.00000  Uiso   1.00
C280   C     0.09086   0.50155   0.47028   0.00000  Uiso   1.00
C281   C     0.09006   0.49922   0.01703   0.00000  Uiso   1.00
C282   C     0.24247   0.49845   0.02972   0.00000  Uiso   1.00
C283   C     0.03178   0.45723   0.02594   0.00000  Uiso   1.00
C284   C     0.30156   0.54277   0.47407   0.00000  Uiso   1.00
C285   C     0.02921   0.46856   0.14479   0.00000  Uiso   1.00
C286   C     0.30412   0.53143   0.35521   0.00000  Uiso   1.00
C287   C     0.28956   0.39648   0.20849   0.00000  Uiso   1.00
C288   C     0.04378   0.60352   0.29151   0.00000  Uiso   1.00
C289   C     0.21750   0.38346   0.31393   0.00000  Uiso   1.00
C290   C     0.11584   0.61654   0.18607   0.00000  Uiso   1.00
C291   C     0.12098   0.37905   0.18159   0.00000  Uiso   1.00
C292   C     0.24327   0.50078   0.48297   0.00000  Uiso   1.00
C293   C     0.21235   0.62095   0.31841   0.00000  Uiso   1.00
C294   C     0.01883   0.47188   0.21908   0.00000  Uiso   1.00
C295   C     0.31450   0.52812   0.28091   0.00000  Uiso   1.00
C296   C     0.30931   0.46953   0.22197   0.00000  Uiso   1.00
C297   C     0.02403   0.53047   0.27803   0.00000  Uiso   1.00
C298   C     0.29080   0.49959   0.25111   0.00000  Uiso   1.00
H299   H     0.23337   0.49790   0.39289   0.00000  Uiso   1.00
H300   H     0.31223   0.54503   0.01029   0.00000  Uiso   1.00
H301   H     0.28157   0.57199   0.46464   0.00000  Uiso   1.00
H302   H     0.32973   0.54492   0.45480   0.00000  Uiso   1.00
H303   H     0.04659   0.45090   0.11920   0.00000  Uiso   1.00
H304   H     0.03945   0.50447   0.14636   0.00000  Uiso   1.00
H305   H     0.32906   0.46611   0.13308   0.00000  Uiso   1.00
H306   H     0.29388   0.49553   0.35363   0.00000  Uiso   1.00
H307   H     0.28674   0.54910   0.38080   0.00000  Uiso   1.00
H308   H     0.00427   0.53387   0.36692   0.00000  Uiso   1.00
H309   H     0.26569   0.37499   0.18972   0.00000  Uiso   1.00
H310   H     0.09996   0.50210   0.10711   0.00000  Uiso   1.00
H311   H     0.28446   0.39370   0.24493   0.00000  Uiso   1.00
H312   H     0.32061   0.38300   0.20153   0.00000  Uiso   1.00
H313   H     0.04888   0.60630   0.25507   0.00000  Uiso   1.00
H314   H     0.06764   0.62501   0.31028   0.00000  Uiso   1.00
H315   H     0.01273   0.61700   0.29846   0.00000  Uiso   1.00
H316   H     0.10022   0.50342   0.38278   0.00000  Uiso   1.00
H317   H     0.23311   0.49658   0.11722   0.00000  Uiso   1.00
H318   H     0.06186   0.50292   0.44962   0.00000  Uiso   1.00
H319   H     0.27147   0.49708   0.05038   0.00000  Uiso   1.00
H320   H     0.05177   0.42800   0.03537   0.00000  Uiso   1.00
H321   H     0.02111   0.45496   0.48971   0.00000  Uiso   1.00
H322   H     0.00360   0.45508   0.04520   0.00000  Uiso   1.00
N323   N     0.16667   0.61907   0.25000   0.00000  Uiso   1.00
N324   N     0.16667   0.38093   0.25000   0.00000  Uiso   1.00
N325   N     0.23922   0.40340   0.33986   0.00000  Uiso   1.00
N326   N     0.09411   0.59660   0.16014   0.00000  Uiso   1.00
N327   N     0.10345   0.39640   0.15160   0.00000  Uiso   1.00
N328   N     0.22989   0.60360   0.34840   0.00000  Uiso   1.00
O329   O     0.10559   0.53821   0.24999   0.00000  Uiso   1.00
O330   O     0.28091   0.50152   0.46307   0.00000  Uiso   1.00
O331   O     0.03758   0.44739   0.18640   0.00000  Uiso   1.00
O332   O     0.29576   0.55261   0.31360   0.00000  Uiso   1.00
O333   O     0.28495   0.44105   0.19349   0.00000  Uiso   1.00
O334   O     0.04839   0.55895   0.30651   0.00000  Uiso   1.00
O335   O     0.22774   0.46179   0.25000   0.00000  Uiso   1.00
O336   O     0.22774   0.53821   0.25000   0.00000  Uiso   1.00
O337   O     0.10559   0.46179   0.24999   0.00000  Uiso   1.00
O338   O     0.16666   0.53823   0.18392   0.00000  Uiso   1.00
O339   O     0.16667   0.46177   0.31607   0.00000  Uiso   1.00
O340   O     0.16667   0.53823   0.31607   0.00000  Uiso   1.00
O341   O     0.16666   0.46177   0.18392   0.00000  Uiso   1.00
O342   O     0.05242   0.49848   0.03693   0.00000  Uiso   1.00
Zn343  Zn    0.16667   0.55104   0.25000   0.00000  Uiso   1.00
Zn344  Zn    0.16667   0.44896   0.25000   0.00000  Uiso   1.00
C345   C     0.42005   0.49996   0.24895   0.00000  Uiso   1.00
C346   C     0.37586   0.50041   0.24889   0.00000  Uiso   1.00
C347   C     0.52399   0.35826   0.28159   0.00000  Uiso   1.00
C348   C     0.47601   0.64174   0.21841   0.00000  Uiso   1.00
C349   C     0.47660   0.35636   0.21791   0.00000  Uiso   1.00
C350   C     0.52340   0.64364   0.28208   0.00000  Uiso   1.00
C351   C     0.49965   0.49964   0.16355   0.00000  Uiso   1.00
C352   C     0.50035   0.50036   0.33645   0.00000  Uiso   1.00
C353   C     0.53812   0.49975   0.40965   0.00000  Uiso   1.00
C354   C     0.46188   0.50024   0.09034   0.00000  Uiso   1.00
C355   C     0.50034   0.50115   0.38412   0.00000  Uiso   1.00
C356   C     0.57995   0.50004   0.25104   0.00000  Uiso   1.00
C357   C     0.49966   0.49885   0.11588   0.00000  Uiso   1.00
C358   C     0.46249   0.50249   0.40375   0.00000  Uiso   1.00
C359   C     0.53751   0.49751   0.09625   0.00000  Uiso   1.00
C360   C     0.46209   0.50164   0.45017   0.00000  Uiso   1.00
C361   C     0.53791   0.49836   0.04983   0.00000  Uiso   1.00
C362   C     0.50020   0.50041   0.47665   0.00000  Uiso   1.00
C363   C     0.49980   0.49959   0.02335   0.00000  Uiso   1.00
C364   C     0.53867   0.50021   0.45633   0.00000  Uiso   1.00
C365   C     0.46133   0.49979   0.04367   0.00000  Uiso   1.00
C366   C     0.42419   0.50155   0.47028   0.00000  Uiso   1.00
C367   C     0.42339   0.49922   0.01703   0.00000  Uiso   1.00
C368   C     0.57581   0.49845   0.02972   0.00000  Uiso   1.00
C369   C     0.36511   0.45723   0.02594   0.00000  Uiso   1.00
C370   C     0.63489   0.54277   0.47407   0.00000  Uiso   1.00
C371   C     0.36254   0.46856   0.14479   0.00000  Uiso   1.00
C372   C     0.63746   0.53143   0.35521   0.00000  Uiso   1.00
C373   C     0.62289   0.39648   0.20849   0.00000  Uiso   1.00
C374   C     0.37711   0.60352   0.29151   0.00000  Uiso   1.00
C375   C     0.55083   0.38346   0.31393   0.00000  Uiso   1.00
C376   C     0.44917   0.61654   0.18607   0.00000  Uiso   1.00
C377   C     0.45432   0.37905   0.18159   0.00000  Uiso   1.00
C378   C     0.57661   0.50078   0.48297   0.00000  Uiso   1.00
C379   C     0.54568   0.62095   0.31841   0.00000  Uiso   1.00
C380   C     0.35216   0.47188   0.21908   0.00000  Uiso   1.00
C381   C     0.64784   0.52812   0.28091   0.00000  Uiso   1.00
C382   C     0.64264   0.46953   0.22197   0.00000  Uiso   1.00
C383   C     0.35736   0.53047   0.27803   0.00000  Uiso   1.00
C384   C     0.62414   0.49959   0.25111   0.00000  Uiso   1.00
H385   H     0.56670   0.49790   0.39289   0.00000  Uiso   1.00
H386   H     0.64556   0.54503   0.01029   0.00000  Uiso   1.00
H387   H     0.61490   0.57199   0.46464   0.00000  Uiso   1.00
H388   H     0.66306   0.54492   0.45480   0.00000  Uiso   1.00
H389   H     0.37993   0.45090   0.11920   0.00000  Uiso   1.00
H390   H     0.37278   0.50447   0.14636   0.00000  Uiso   1.00
H391   H     0.66239   0.46611   0.13308   0.00000  Uiso   1.00
H392   H     0.62721   0.49553   0.35363   0.00000  Uiso   1.00
H393   H     0.62008   0.54910   0.38080   0.00000  Uiso   1.00
H394   H     0.33760   0.53387   0.36692   0.00000  Uiso   1.00
H395   H     0.59902   0.37499   0.18972   0.00000  Uiso   1.00
H396   H     0.43329   0.50210   0.10711   0.00000  Uiso   1.00
H397   H     0.61779   0.39370   0.24493   0.00000  Uiso   1.00
H398   H     0.65394   0.38300   0.20153   0.00000  Uiso   1.00
H399   H     0.38221   0.60630   0.25507   0.00000  Uiso   1.00
H400   H     0.40098   0.62501   0.31028   0.00000  Uiso   1.00
H401   H     0.34606   0.61700   0.29846   0.00000  Uiso   1.00
H402   H     0.43355   0.50342   0.38278   0.00000  Uiso   1.00
H403   H     0.56645   0.49658   0.11722   0.00000  Uiso   1.00
H404   H     0.39520   0.50292   0.44962   0.00000  Uiso   1.00
H405   H     0.60480   0.49708   0.05038   0.00000  Uiso   1.00
H406   H     0.38510   0.42800   0.03537   0.00000  Uiso   1.00
H407   H     0.35444   0.45496   0.48971   0.00000  Uiso   1.00
H408   H     0.33694   0.45508   0.04520   0.00000  Uiso   1.00
N409   N     0.50000   0.61907   0.25000   0.00000  Uiso   1.00
N410   N     0.50000   0.38093   0.25000   0.00000  Uiso   1.00
N411   N     0.57256   0.40340   0.33986   0.00000  Uiso   1.00
N412   N     0.42744   0.59660   0.16014   0.00000  Uiso   1.00
N413   N     0.43678   0.39640   0.15160   0.00000  Uiso   1.00
N414   N     0.56322   0.60360   0.34840   0.00000  Uiso   1.00
O415   O     0.43892   0.53821   0.24999   0.00000  Uiso   1.00
O416   O     0.61424   0.50152   0.46307   0.00000  Uiso   1.00
O417   O     0.37091   0.44739   0.18640   0.00000  Uiso   1.00
O418   O     0.62909   0.55261   0.31360   0.00000  Uiso   1.00
O419   O     0.61828   0.44105   0.19349   0.00000  Uiso   1.00
O420   O     0.38172   0.55895   0.30651   0.00000  Uiso   1.00
O421   O     0.56108   0.46179   0.25000   0.00000  Uiso   1.00
O422   O     0.56108   0.53821   0.25000   0.00000  Uiso   1.00
O423   O     0.43892   0.46179   0.24999   0.00000  Uiso   1.00
O424   O     0.49999   0.53823   0.18392   0.00000  Uiso   1.00
O425   O     0.50001   0.46177   0.31607   0.00000  Uiso   1.00
O426   O     0.50001   0.53823   0.31607   0.00000  Uiso   1.00
O427   O     0.49999   0.46177   0.18392   0.00000  Uiso   1.00
O428   O     0.38576   0.49848   0.03693   0.00000  Uiso   1.00
Zn429  Zn    0.50000   0.55104   0.25000   0.00000  Uiso   1.00
Zn430  Zn    0.50000   0.44896   0.25000   0.00000  Uiso   1.00
C431   C     0.75339   0.49996   0.24895   0.00000  Uiso   1.00
C432   C     0.70920   0.50041   0.24889   0.00000  Uiso   1.00
C433   C     0.85732   0.35826   0.28159   0.00000  Uiso   1.00
C434   C     0.80934   0.64174   0.21841   0.00000  Uiso   1.00
C435   C     0.80993   0.35636   0.21791   0.00000  Uiso   1.00
C436   C     0.85674   0.64364   0.28208   0.00000  Uiso   1.00
C437   C     0.83298   0.49964   0.16355   0.00000  Uiso   1.00
C438   C     0.83368   0.50036   0.33645   0.00000  Uiso   1.00
C439   C     0.87145   0.49975   0.40965   0.00000  Uiso   1.00
C440   C     0.79521   0.50024   0.09034   0.00000  Uiso   1.00
C441   C     0.83367   0.50115   0.38412   0.00000  Uiso   1.00
C442   C     0.91328   0.50004   0.25104   0.00000  Uiso   1.00
C443   C     0.83299   0.49885   0.11588   0.00000  Uiso   1.00
C444   C     0.79582   0.50249   0.40375   0.00000  Uiso   1.00
C445   C     0.87084   0.49751   0.09625   0.00000  Uiso   1.00
C446   C     0.79542   0.50164   0.45017   0.00000  Uiso   1.00
C447   C     0.87124   0.49836   0.04983   0.00000  Uiso   1.00
C448   C     0.83354   0.50041   0.47665   0.00000  Uiso   1.00
C449   C     0.83313   0.49959   0.02335   0.00000  Uiso   1.00
C450   C     0.87200   0.50021   0.45633   0.00000  Uiso   1.00
C451   C     0.79466   0.49979   0.04367   0.00000  Uiso   1.00
C452   C     0.75753   0.50155   0.47028   0.00000  Uiso   1.00
C453   C     0.75672   0.49922   0.01703   0.00000  Uiso   1.00
C454   C     0.90914   0.49845   0.02972   0.00000  Uiso   1.00
C455   C     0.69844   0.45723   0.02594   0.00000  Uiso   1.00
C456   C     0.96822   0.54277   0.47407   0.00000  Uiso   1.00
C457   C     0.69587   0.46856   0.14479   0.00000  Uiso   1.00
C458   C     0.97079   0.53143   0.35521   0.00000  Uiso   1.00
C459   C     0.95622   0.39648   0.20849   0.00000  Uiso   1.00
C460   C     0.71044   0.60352   0.29151   0.00000  Uiso   1.00
C461   C     0.88416   0.38346   0.31393   0.00000  Uiso   1.00
C462   C     0.78250   0.61654   0.18607   0.00000  Uiso   1.00
C463   C     0.78765   0.37905   0.18159   0.00000  Uiso   1.00
C464   C     0.90994   0.50078   0.48297   0.00000  Uiso   1.00
C465   C     0.87902   0.62095   0.31841   0.00000  Uiso   1.00
C466   C     0.68550   0.47188   0.21908   0.00000  Uiso   1.00
C467   C     0.98117   0.52812   0.28091   0.00000  Uiso   1.00
C468   C     0.97597   0.46953   0.22197   0.00000  Uiso   1.00
C469   C     0.69069   0.53047   0.27803   0.00000  Uiso   1.00
C470   C     0.95747   0.49959   0.25111   0.00000  Uiso   1.00
H471   H     0.90004   0.49790   0.39289   0.00000  Uiso   1.00
H472   H     0.97889   0.54503   0.01029   0.00000  Uiso   1.00
H473   H     0.94823   0.57199   0.46464   0.00000  Uiso   1.00
H474   H     0.99639   0.54492   0.45480   0.00000  Uiso   1.00
H475   H     0.71326   0.45090   0.11920   0.00000  Uiso   1.00
H476   H     0.70611   0.50447   0.14636   0.00000  Uiso   1.00
H477   H     0.99573   0.46611   0.13308   0.00000  Uiso   1.00
H478   H     0.96054   0.49553   0.35363   0.00000  Uiso   1.00
H479   H     0.95341   0.54910   0.38080   0.00000  Uiso   1.00
H480   H     0.67094   0.53387   0.36692   0.00000  Uiso   1.00
H481   H     0.93235   0.37499   0.18972   0.00000  Uiso   1.00
H482   H     0.76663   0.50210   0.10711   0.00000  Uiso   1.00
H483   H     0.95112   0.39370   0.24493   0.00000  Uiso   1.00
H484   H     0.98727   0.38300   0.20153   0.00000  Uiso   1.00
H485   H     0.71555   0.60630   0.25507   0.00000  Uiso   1.00
H486   H     0.73431   0.62501   0.31028   0.00000  Uiso   1.00
H487   H     0.67939   0.61700   0.29846   0.00000  Uiso   1.00
H488   H     0.76689   0.50342   0.38278   0.00000  Uiso   1.00
H489   H     0.89978   0.49658   0.11722   0.00000  Uiso   1.00
H490   H     0.72853   0.50292   0.44962   0.00000  Uiso   1.00
H491   H     0.93813   0.49708   0.05038   0.00000  Uiso   1.00
H492   H     0.71843   0.42800   0.03537   0.00000  Uiso   1.00
H493   H     0.68778   0.45496   0.48971   0.00000  Uiso   1.00
H494   H     0.67027   0.45508   0.04520   0.00000  Uiso   1.00
N495   N     0.83333   0.61907   0.25000   0.00000  Uiso   1.00
N496   N     0.83333   0.38093   0.25000   0.00000  Uiso   1.00
N497   N     0.90589   0.40340   0.33986   0.00000  Uiso   1.00
N498   N     0.76078   0.59660   0.16014   0.00000  Uiso   1.00
N499   N     0.77011   0.39640   0.15160   0.00000  Uiso   1.00
N500   N     0.89656   0.60360   0.34840   0.00000  Uiso   1.00
O501   O     0.77226   0.53821   0.24999   0.00000  Uiso   1.00
O502   O     0.94757   0.50152   0.46307   0.00000  Uiso   1.00
O503   O     0.70424   0.44739   0.18640   0.00000  Uiso   1.00
O504   O     0.96242   0.55261   0.31360   0.00000  Uiso   1.00
O505   O     0.95161   0.44105   0.19349   0.00000  Uiso   1.00
O506   O     0.71505   0.55895   0.30651   0.00000  Uiso   1.00
O507   O     0.89441   0.46179   0.25000   0.00000  Uiso   1.00
O508   O     0.89441   0.53821   0.25000   0.00000  Uiso   1.00
O509   O     0.77226   0.46179   0.24999   0.00000  Uiso   1.00
O510   O     0.83333   0.53823   0.18392   0.00000  Uiso   1.00
O511   O     0.83334   0.46177   0.31607   0.00000  Uiso   1.00
O512   O     0.83334   0.53823   0.31607   0.00000  Uiso   1.00
O513   O     0.83333   0.46177   0.18392   0.00000  Uiso   1.00
O514   O     0.71909   0.49848   0.03693   0.00000  Uiso   1.00
Zn515  Zn    0.83333   0.55104   0.25000   0.00000  Uiso   1.00
Zn516  Zn    0.83333   0.44896   0.25000   0.00000  Uiso   1.00
C517   C     0.08672   0.83329   0.24895   0.00000  Uiso   1.00
C518   C     0.04253   0.83374   0.24889   0.00000  Uiso   1.00
C519   C     0.19066   0.69160   0.28159   0.00000  Uiso   1.00
C520   C     0.14268   0.97507   0.21841   0.00000  Uiso   1.00
C521   C     0.14326   0.68969   0.21791   0.00000  Uiso   1.00
C522   C     0.19007   0.97698   0.28208   0.00000  Uiso   1.00
C523   C     0.16632   0.83298   0.16355   0.00000  Uiso   1.00
C524   C     0.16702   0.83369   0.33645   0.00000  Uiso   1.00
C525   C     0.20479   0.83309   0.40965   0.00000  Uiso   1.00
C526   C     0.12855   0.83358   0.09034   0.00000  Uiso   1.00
C527   C     0.16701   0.83448   0.38412   0.00000  Uiso   1.00
C528   C     0.24661   0.83337   0.25104   0.00000  Uiso   1.00
C529   C     0.16633   0.83219   0.11588   0.00000  Uiso   1.00
C530   C     0.12916   0.83582   0.40375   0.00000  Uiso   1.00
C531   C     0.20418   0.83084   0.09625   0.00000  Uiso   1.00
C532   C     0.12876   0.83497   0.45017   0.00000  Uiso   1.00
C533   C     0.20457   0.83169   0.04983   0.00000  Uiso   1.00
C534   C     0.16687   0.83375   0.47665   0.00000  Uiso   1.00
C535   C     0.16646   0.83292   0.02335   0.00000  Uiso   1.00
C536   C     0.20534   0.83354   0.45633   0.00000  Uiso   1.00
C537   C     0.12800   0.83312   0.04367   0.00000  Uiso   1.00
C538   C     0.09086   0.83488   0.47028   0.00000  Uiso   1.00
C539   C     0.09006   0.83255   0.01703   0.00000  Uiso   1.00
C540   C     0.24247   0.83179   0.02972   0.00000  Uiso   1.00
C541   C     0.03178   0.79056   0.02594   0.00000  Uiso   1.00
C542   C     0.30156   0.87611   0.47407   0.00000  Uiso   1.00
C543   C     0.02921   0.80190   0.14479   0.00000  Uiso   1.00
C544   C     0.30412   0.86477   0.35521   0.00000  Uiso   1.00
C545   C     0.28956   0.72981   0.20849   0.00000  Uiso   1.00
C546   C     0.04378   0.93686   0.29151   0.00000  Uiso   1.00
C547   C     0.21750   0.71679   0.31393   0.00000  Uiso   1.00
C548   C     0.11584   0.94988   0.18607   0.00000  Uiso   1.00
C549   C     0.12098   0.71238   0.18159   0.00000  Uiso   1.00
C550   C     0.24327   0.83411   0.48297   0.00000  Uiso   1.00
C551   C     0.21235   0.95428   0.31841   0.00000  Uiso   1.00
C552   C     0.01883   0.80521   0.21908   0.00000  Uiso   1.00
C553   C     0.31450   0.86146   0.28091   0.00000  Uiso   1.00
C554   C     0.30931   0.80286   0.22197   0.00000  Uiso   1.00
C555   C     0.02403   0.86380   0.27803   0.00000  Uiso   1.00
C556   C     0.29080   0.83293   0.25111   0.00000  Uiso   1.00
H557   H     0.23337   0.83123   0.39289   0.00000  Uiso   1.00
H558   H     0.31223   0.87836   0.01029   0.00000  Uiso   1.00
H559   H     0.28157   0.90533   0.46464   0.00000  Uiso   1.00
H560   H     0.32973   0.87826   0.45480   0.00000  Uiso   1.00
H561   H     0.04659   0.78423   0.11920   0.00000  Uiso   1.00
H562   H     0.03945   0.83780   0.14636   0.00000  Uiso   1.00
H563   H     0.32906   0.79944   0.13308   0.00000  Uiso   1.00
H564   H     0.29388   0.82886   0.35363   0.00000  Uiso   1.00
H565   H     0.28674   0.88244   0.38080   0.00000  Uiso   1.00
H566   H     0.00427   0.86721   0.36692   0.00000  Uiso   1.00
H567   H     0.26569   0.70832   0.18972   0.00000  Uiso   1.00
H568   H     0.09996   0.83544   0.10711   0.00000  Uiso   1.00
H569   H     0.28446   0.72703   0.24493   0.00000  Uiso   1.00
H570   H     0.32061   0.71634   0.20153   0.00000  Uiso   1.00
H571   H     0.04888   0.93964   0.25507   0.00000  Uiso   1.00
H572   H     0.06764   0.95834   0.31028   0.00000  Uiso   1.00
H573   H     0.01273   0.95033   0.29846   0.00000  Uiso   1.00
H574   H     0.10022   0.83675   0.38278   0.00000  Uiso   1.00
H575   H     0.23311   0.82992   0.11722   0.00000  Uiso   1.00
H576   H     0.06186   0.83626   0.44962   0.00000  Uiso   1.00
H577   H     0.27147   0.83041   0.05038   0.00000  Uiso   1.00
H578   H     0.05177   0.76134   0.03537   0.00000  Uiso   1.00
H579   H     0.02111   0.78829   0.48971   0.00000  Uiso   1.00
H580   H     0.00360   0.78841   0.04520   0.00000  Uiso   1.00
N581   N     0.16667   0.95240   0.25000   0.00000  Uiso   1.00
N582   N     0.16667   0.71427   0.25000   0.00000  Uiso   1.00
N583   N     0.23922   0.73674   0.33986   0.00000  Uiso   1.00
N584   N     0.09411   0.92993   0.16014   0.00000  Uiso   1.00
N585   N     0.10345   0.72974   0.15160   0.00000  Uiso   1.00
N586   N     0.22989   0.93693   0.34840   0.00000  Uiso   1.00
O587   O     0.10559   0.87154   0.24999   0.00000  Uiso   1.00
O588   O     0.28091   0.83486   0.46307   0.00000  Uiso   1.00
O589   O     0.03758   0.78072   0.18640   0.00000  Uiso   1.00
O590   O     0.29576   0.88594   0.31360   0.00000  Uiso   1.00
O591   O     0.28495   0.77438   0.19349   0.00000  Uiso   1.00
O592   O     0.04839   0.89229   0.30651   0.00000  Uiso   1.00
O593   O     0.22774   0.79513   0.25000   0.00000  Uiso   1.00
O594   O     0.22774   0.87154   0.25000   0.00000  Uiso   1.00
O595   O     0.10559   0.79513   0.24999   0.00000  Uiso   1.00
O596   O     0.16666   0.87156   0.18392   0.00000  Uiso   1.00
O597   O     0.16667   0.79511   0.31607   0.00000  Uiso   1.00
O598   O     0.16667   0.87156   0.31607   0.00000  Uiso   1.00
O599   O     0.16666   0.79511   0.18392   0.00000  Uiso   1.00
O600   O     0.05242   0.83181   0.03693   0.00000  Uiso   1.00
Zn601  Zn    0.16667   0.88437   0.25000   0.00000  Uiso   1.00
Zn602  Zn    0.16667   0.78229   0.25000   0.00000  Uiso   1.00
C603   C     0.42005   0.83329   0.24895   0.00000  Uiso   1.00
C604   C     0.37586   0.83374   0.24889   0.00000  Uiso   1.00
C605   C     0.52399   0.69160   0.28159   0.00000  Uiso   1.00
C606   C     0.47601   0.97507   0.21841   0.00000  Uiso   1.00
C607   C     0.47660   0.68969   0.21791   0.00000  Uiso   1.00
C608   C     0.52340   0.97698   0.28208   0.00000  Uiso   1.00
C609   C     0.49965   0.83298   0.16355   0.00000  Uiso   1.00
C610   C     0.50035   0.83369   0.33645   0.00000  Uiso   1.00
C611   C     0.53812   0.83309   0.40965   0.00000  Uiso   1.00
C612   C     0.46188   0.83358   0.09034   0.00000  Uiso   1.00
C613   C     0.50034   0.83448   0.38412   0.00000  Uiso   1.00
C614   C     0.57995   0.83337   0.25104   0.00000  Uiso   1.00
C615   C     0.49966   0.83219   0.11588   0.00000  Uiso   1.00
C616   C     0.46249   0.83582   0.40375   0.00000  Uiso   1.00
C617   C     0.53751   0.83084   0.09625   0.00000  Uiso   1.00
C618   C     0.46209   0.83497   0.45017   0.00000  Uiso   1.00
C619   C     0.53791   0.83169   0.04983   0.00000  Uiso   1.00
C620   C     0.50020   0.83375   0.47665   0.00000  Uiso   1.00
C621   C     0.49980   0.83292   0.02335   0.00000  Uiso   1.00
C622   C     0.53867   0.83354   0.45633   0.00000  Uiso   1.00
C623   C     0.46133   0.83312   0.04367   0.00000  Uiso   1.00
C624   C     0.42419   0.83488   0.47028   0.00000  Uiso   1.00
C625   C     0.42339   0.83255   0.01703   0.00000  Uiso   1.00
C626   C     0.57581   0.83179   0.02972   0.00000  Uiso   1.00
C627   C     0.36511   0.79056   0.02594   0.00000  Uiso   1.00
C628   C     0.63489   0.87611   0.47407   0.00000  Uiso   1.00
C629   C     0.36254   0.80190   0.14479   0.00000  Uiso   1.00
C630   C     0.63746   0.86477   0.35521   0.00000  Uiso   1.00
C631   C     0.62289   0.72981   0.20849   0.00000  Uiso   1.00
C632   C     0.37711   0.93686   0.29151   0.00000  Uiso   1.00
C633   C     0.55083   0.71679   0.31393   0.00000  Uiso   1.00
C634   C     0.44917   0.94988   0.18607   0.00000  Uiso   1.00
C635   C     0.45432   0.71238   0.18159   0.00000  Uiso   1.00
C636   C     0.57661   0.83411   0.48297   0.00000  Uiso   1.00
C637   C     0.54568   0.95428   0.31841   0.00000  Uiso   1.00
C638   C     0.35216   0.80521   0.21908   0.00000  Uiso   1.00
C639   C     0.64784   0.86146   0.28091   0.00000  Uiso   1.00
C640   C     0.64264   0.80286   0.22197   0.00000  Uiso   1.00
C641   C     0.35736   0.86380   0.27803   0.00000  Uiso   1.00
C642   C     0.62414   0.83293   0.25111   0.00000  Uiso   1.00
H643   H     0.56670   0.83123   0.39289   0.00000  Uiso   1.00
H644   H     0.64556   0.87836   0.01029   0.00000  Uiso   1.00
H645   H     0.61490   0.90533   0.46464   0.00000  Uiso   1.00
H646   H     0.66306   0.87826   0.45480   0.00000  Uiso   1.00
H647   H     0.37993   0.78423   0.11920   0.00000  Uiso   1.00
H648   H     0.37278   0.83780   0.14636   0.00000  Uiso   1.00
H649   H     0.66239   0.79944   0.13308   0.00000  Uiso   1.00
H650   H     0.62721   0.82886   0.35363   0.00000  Uiso   1.00
H651   H     0.62008   0.88244   0.38080   0.00000  Uiso   1.00
H652   H     0.33760   0.86721   0.36692   0.00000  Uiso   1.00
H653   H     0.59902   0.70832   0.18972   0.00000  Uiso   1.00
H654   H     0.43329   0.83544   0.10711   0.00000  Uiso   1.00
H655   H     0.61779   0.72703   0.24493   0.00000  Uiso   1.00
H656   H     0.65394   0.71634   0.20153   0.00000  Uiso   1.00
H657   H     0.38221   0.93964   0.25507   0.00000  Uiso   1.00
H658   H     0.40098   0.95834   0.31028   0.00000  Uiso   1.00
H659   H     0.34606   0.95033   0.29846   0.00000  Uiso   1.00
H660   H     0.43355   0.83675   0.38278   0.00000  Uiso   1.00
H661   H     0.56645   0.82992   0.11722   0.00000  Uiso   1.00
H662   H     0.39520   0.83626   0.44962   0.00000  Uiso   1.00
H663   H     0.60480   0.83041   0.05038   0.00000  Uiso   1.00
H664   H     0.38510   0.76134   0.03537   0.00000  Uiso   1.00
H665   H     0.35444   0.78829   0.48971   0.00000  Uiso   1.00
H666   H     0.33694   0.78841   0.04520   0.00000  Uiso   1.00
N667   N     0.50000   0.95240   0.25000   0.00000  Uiso   1.00
N668   N     0.50000   0.71427   0.25000   0.00000  Uiso   1.00
N669   N     0.57256   0.73674   0.33986   0.00000  Uiso   1.00
N670   N     0.42744   0.92993   0.16014   0.00000  Uiso   1.00
N671   N     0.43678   0.72974   0.15160   0.00000  Uiso   1.00
N672   N     0.56322   0.93693   0.34840   0.00000  Uiso   1.00
O673   O     0.43892   0.87154   0.24999   0.00000  Uiso   1.00
O674   O     0.61424   0.83486   0.46307   0.00000  Uiso   1.00
O675   O     0.37091   0.78072   0.18640   0.00000  Uiso   1.00
O676   O     0.62909   0.88594   0.31360   0.00000  Uiso   1.00
O677   O     0.61828   0.77438   0.19349   0.00000  Uiso   1.00
O678   O     0.38172   0.89229   0.30651   0.00000  Uiso   1.00
O679   O     0.56108   0.79513   0.25000   0.00000  Uiso   1.00
O680   O     0.56108   0.87154   0.25000   0.00000  Uiso   1.00
O681   O     0.43892   0.79513   0.24999   0.00000  Uiso   1.00
O682   O     0.49999   0.87156   0.18392   0.00000  Uiso   1.00
O683   O     0.50001   0.79511   0.31607   0.00000  Uiso   1.00
O684   O     0.50001   0.87156   0.31607   0.00000  Uiso   1.00
O685   O     0.49999   0.79511   0.18392   0.00000  Uiso   1.00
O686   O     0.38576   0.83181   0.03693   0.00000  Uiso   1.00
Zn687  Zn    0.50000   0.88437   0.25000   0.00000  Uiso   1.00
Zn688  Zn    0.50000   0.78229   0.25000   0.00000  Uiso   1.00
C689   C     0.75339   0.83329   0.24895   0.00000  Uiso   1.00
C690   C     0.70920   0.83374   0.24889   0.00000  Uiso   1.00
C691   C     0.85732   0.69160   0.28159   0.00000  Uiso   1.00
C692   C     0.80934   0.97507   0.21841   0.00000  Uiso   1.00
C693   C     0.80993   0.68969   0.21791   0.00000  Uiso   1.00
C694   C     0.85674   0.97698   0.28208   0.00000  Uiso   1.00
C695   C     0.83298   0.83298   0.16355   0.00000  Uiso   1.00
C696   C     0.83368   0.83369   0.33645   0.00000  Uiso   1.00
C697   C     0.87145   0.83309   0.40965   0.00000  Uiso   1.00
C698   C     0.79521   0.83358   0.09034   0.00000  Uiso   1.00
C699   C     0.83367   0.83448   0.38412   0.00000  Uiso   1.00
C700   C     0.91328   0.83337   0.25104   0.00000  Uiso   1.00
C701   C     0.83299   0.83219   0.11588   0.00000  Uiso   1.00
C702   C     0.79582   0.83582   0.40375   0.00000  Uiso   1.00
C703   C     0.87084   0.83084   0.09625   0.00000  Uiso   1.00
C704   C     0.79542   0.83497   0.45017   0.00000  Uiso   1.00
C705   C     0.87124   0.83169   0.04983   0.00000  Uiso   1.00
C706   C     0.83354   0.83375   0.47665   0.00000  Uiso   1.00
C707   C     0.83313   0.83292   0.02335   0.00000  Uiso   1.00
C708   C     0.87200   0.83354   0.45633   0.00000  Uiso   1.00
C709   C     0.79466   0.83312   0.04367   0.00000  Uiso   1.00
C710   C     0.75753   0.83488   0.47028   0.00000  Uiso   1.00
C711   C     0.75672   0.83255   0.01703   0.00000  Uiso   1.00
C712   C     0.90914   0.83179   0.02972   0.00000  Uiso   1.00
C713   C     0.69844   0.79056   0.02594   0.00000  Uiso   1.00
C714   C     0.96822   0.87611   0.47407   0.00000  Uiso   1.00
C715   C     0.69587   0.80190   0.14479   0.00000  Uiso   1.00
C716   C     0.97079   0.86477   0.35521   0.00000  Uiso   1.00
C717   C     0.95622   0.72981   0.20849   0.00000  Uiso   1.00
C718   C     0.71044   0.93686   0.29151   0.00000  Uiso   1.00
C719   C     0.88416   0.71679   0.31393   0.00000  Uiso   1.00
C720   C     0.78250   0.94988   0.18607   0.00000  Uiso   1.00
C721   C     0.78765   0.71238   0.18159   0.00000  Uiso   1.00
C722   C     0.90994   0.83411   0.48297   0.00000  Uiso   1.00
C723   C     0.87902   0.95428   0.31841   0.00000  Uiso   1.00
C724   C     0.68550   0.80521   0.21908   0.00000  Uiso   1.00
C725   C     0.98117   0.86146   0.28091   0.00000  Uiso   1.00
C726   C     0.97597   0.80286   0.22197   0.00000  Uiso   1.00
C727   C     0.69069   0.86380   0.27803   0.00000  Uiso   1.00
C728   C     0.95747   0.83293   0.25111   0.00000  Uiso   1.00
H729   H     0.90004   0.83123   0.39289   0.00000  Uiso   1.00
H730   H     0.97889   0.87836   0.01029   0.00000  Uiso   1.00
H731   H     0.94823   0.90533   0.46464   0.00000  Uiso   1.00
H732   H     0.99639   0.87826   0.45480   0.00000  Uiso   1.00
H733   H     0.71326   0.78423   0.11920   0.00000  Uiso   1.00
H734   H     0.70611   0.83780   0.14636   0.00000  Uiso   1.00
H735   H     0.99573   0.79944   0.13308   0.00000  Uiso   1.00
H736   H     0.96054   0.82886   0.35363   0.00000  Uiso   1.00
H737   H     0.95341   0.88244   0.38080   0.00000  Uiso   1.00
H738   H     0.67094   0.86721   0.36692   0.00000  Uiso   1.00
H739   H     0.93235   0.70832   0.18972   0.00000  Uiso   1.00
H740   H     0.76663   0.83544   0.10711   0.00000  Uiso   1.00
H741   H     0.95112   0.72703   0.24493   0.00000  Uiso   1.00
H742   H     0.98727   0.71634   0.20153   0.00000  Uiso   1.00
H743   H     0.71555   0.93964   0.25507   0.00000  Uiso   1.00
H744   H     0.73431   0.95834   0.31028   0.00000  Uiso   1.00
H745   H     0.67939   0.95033   0.29846   0.00000  Uiso   1.00
H746   H     0.76689   0.83675   0.38278   0.00000  Uiso   1.00
H747   H     0.89978   0.82992   0.11722   0.00000  Uiso   1.00
H748   H     0.72853   0.83626   0.44962   0.00000  Uiso   1.00
H749   H     0.93813   0.83041   0.05038   0.00000  Uiso   1.00
H750   H     0.71843   0.76134   0.03537   0.00000  Uiso   1.00
H751   H     0.68778   0.78829   0.48971   0.00000  Uiso   1.00
H752   H     0.67027   0.78841   0.04520   0.00000  Uiso   1.00
N753   N     0.83333   0.95240   0.25000   0.00000  Uiso   1.00
N754   N     0.83333   0.71427   0.25000   0.00000  Uiso   1.00
N755   N     0.90589   0.73674   0.33986   0.00000  Uiso   1.00
N756   N     0.76078   0.92993   0.16014   0.00000  Uiso   1.00
N757   N     0.77011   0.72974   0.15160   0.00000  Uiso   1.00
N758   N     0.89656   0.93693   0.34840   0.00000  Uiso   1.00
O759   O     0.77226   0.87154   0.24999   0.00000  Uiso   1.00
O760   O     0.94757   0.83486   0.46307   0.00000  Uiso   1.00
O761   O     0.70424   0.78072   0.18640   0.00000  Uiso   1.00
O762   O     0.96242   0.88594   0.31360   0.00000  Uiso   1.00
O763   O     0.95161   0.77438   0.19349   0.00000  Uiso   1.00
O764   O     0.71505   0.89229   0.30651   0.00000  Uiso   1.00
O765   O     0.89441   0.79513   0.25000   0.00000  Uiso   1.00
O766   O     0.89441   0.87154   0.25000   0.00000  Uiso   1.00
O767   O     0.77226   0.79513   0.24999   0.00000  Uiso   1.00
O768   O     0.83333   0.87156   0.18392   0.00000  Uiso   1.00
O769   O     0.83334   0.79511   0.31607   0.00000  Uiso   1.00
O770   O     0.83334   0.87156   0.31607   0.00000  Uiso   1.00
O771   O     0.83333   0.79511   0.18392   0.00000  Uiso   1.00
O772   O     0.71909   0.83181   0.03693   0.00000  Uiso   1.00
Zn773  Zn    0.83333   0.88437   0.25000   0.00000  Uiso   1.00
Zn774  Zn    0.83333   0.78229   0.25000   0.00000  Uiso   1.00
C775   C     0.08672   0.16663   0.74895   0.00000  Uiso   1.00
C776   C     0.04253   0.16707   0.74889   0.00000  Uiso   1.00
C777   C     0.19066   0.02493   0.78159   0.00000  Uiso   1.00
C778   C     0.14268   0.30840   0.71841   0.00000  Uiso   1.00
C779   C     0.14326   0.02302   0.71791   0.00000  Uiso   1.00
C780   C     0.19007   0.31031   0.78208   0.00000  Uiso   1.00
C781   C     0.16632   0.16631   0.66355   0.00000  Uiso   1.00
C782   C     0.16702   0.16702   0.83645   0.00000  Uiso   1.00
C783   C     0.20479   0.16642   0.90965   0.00000  Uiso   1.00
C784   C     0.12855   0.16691   0.59034   0.00000  Uiso   1.00
C785   C     0.16701   0.16781   0.88412   0.00000  Uiso   1.00
C786   C     0.24661   0.16671   0.75104   0.00000  Uiso   1.00
C787   C     0.16633   0.16552   0.61588   0.00000  Uiso   1.00
C788   C     0.12916   0.16916   0.90375   0.00000  Uiso   1.00
C789   C     0.20418   0.16418   0.59625   0.00000  Uiso   1.00
C790   C     0.12876   0.16831   0.95017   0.00000  Uiso   1.00
C791   C     0.20457   0.16503   0.54983   0.00000  Uiso   1.00
C792   C     0.16687   0.16708   0.97665   0.00000  Uiso   1.00
C793   C     0.16646   0.16625   0.52335   0.00000  Uiso   1.00
C794   C     0.20534   0.16688   0.95633   0.00000  Uiso   1.00
C795   C     0.12800   0.16646   0.54367   0.00000  Uiso   1.00
C796   C     0.09086   0.16821   0.97028   0.00000  Uiso   1.00
C797   C     0.09006   0.16589   0.51703   0.00000  Uiso   1.00
C798   C     0.24247   0.16512   0.52972   0.00000  Uiso   1.00
C799   C     0.03178   0.12389   0.52594   0.00000  Uiso   1.00
C800   C     0.30156   0.20944   0.97407   0.00000  Uiso   1.00
C801   C     0.02921   0.13523   0.64479   0.00000  Uiso   1.00
C802   C     0.30412   0.19810   0.85521   0.00000  Uiso   1.00
C803   C     0.28956   0.06314   0.70849   0.00000  Uiso   1.00
C804   C     0.04378   0.27019   0.79151   0.00000  Uiso   1.00
C805   C     0.21750   0.05012   0.81393   0.00000  Uiso   1.00
C806   C     0.11584   0.28321   0.68607   0.00000  Uiso   1.00
C807   C     0.12098   0.04571   0.68159   0.00000  Uiso   1.00
C808   C     0.24327   0.16744   0.98297   0.00000  Uiso   1.00
C809   C     0.21235   0.28762   0.81841   0.00000  Uiso   1.00
C810   C     0.01883   0.13854   0.71908   0.00000  Uiso   1.00
C811   C     0.31450   0.19479   0.78091   0.00000  Uiso   1.00
C812   C     0.30931   0.13620   0.72197   0.00000  Uiso   1.00
C813   C     0.02403   0.19714   0.77803   0.00000  Uiso   1.00
C814   C     0.29080   0.16626   0.75111   0.00000  Uiso   1.00
H815   H     0.23337   0.16456   0.89289   0.00000  Uiso   1.00
H816   H     0.31223   0.21170   0.51029   0.00000  Uiso   1.00
H817   H     0.28157   0.23866   0.96464   0.00000  Uiso   1.00
H818   H     0.32973   0.21159   0.95480   0.00000  Uiso   1.00
H819   H     0.04659   0.11756   0.61920   0.00000  Uiso   1.00
H820   H     0.03945   0.17113   0.64636   0.00000  Uiso   1.00
H821   H     0.32906   0.13278   0.63308   0.00000  Uiso   1.00
H822   H     0.29388   0.16220   0.85363   0.00000  Uiso   1.00
H823   H     0.28674   0.21577   0.88080   0.00000  Uiso   1.00
H824   H     0.00427   0.20054   0.86692   0.00000  Uiso   1.00
H825   H     0.26569   0.04166   0.68972   0.00000  Uiso   1.00
H826   H     0.09996   0.16877   0.60711   0.00000  Uiso   1.00
H827   H     0.28446   0.06036   0.74493   0.00000  Uiso   1.00
H828   H     0.32061   0.04967   0.70153   0.00000  Uiso   1.00
H829   H     0.04888   0.27297   0.75507   0.00000  Uiso   1.00
H830   H     0.06764   0.29168   0.81028   0.00000  Uiso   1.00
H831   H     0.01273   0.28366   0.79846   0.00000  Uiso   1.00
H832   H     0.10022   0.17008   0.88278   0.00000  Uiso   1.00
H833   H     0.23311   0.16325   0.61722   0.00000  Uiso   1.00
H834   H     0.06186   0.16959   0.94962   0.00000  Uiso   1.00
H835   H     0.27147   0.16374   0.55038   0.00000  Uiso   1.00
H836   H     0.05177   0.09467   0.53537   0.00000  Uiso   1.00
H837   H     0.02111   0.12163   0.98971   0.00000  Uiso   1.00
H838   H     0.00360   0.12174   0.54520   0.00000  Uiso   1.00
N839   N     0.16667   0.28573   0.75000   0.00000  Uiso   1.00
N840   N     0.16667   0.04760   0.75000   0.00000  Uiso   1.00
N841   N     0.23922   0.07007   0.83986   0.00000  Uiso   1.00
N842   N     0.09411   0.26326   0.66014   0.00000  Uiso   1.00
N843   N     0.10345   0.06307   0.65160   0.00000  Uiso   1.00
N844   N     0.22989   0.27026   0.84840   0.00000  Uiso   1.00
O845   O     0.10559   0.20487   0.74999   0.00000  Uiso   1.00
O846   O     0.28091   0.16819   0.96307   0.00000  Uiso   1.00
O847   O     0.03758   0.11406   0.68640   0.00000  Uiso   1.00
O848   O     0.29576   0.21928   0.81360   0.00000  Uiso   1.00
O849   O     0.28495   0.10772   0.69349   0.00000  Uiso   1.00
O850   O     0.04839   0.22562   0.80651   0.00000  Uiso   1.00
O851   O     0.22774   0.12846   0.75000   0.00000  Uiso   1.00
O852   O     0.22774   0.20487   0.75000   0.00000  Uiso   1.00
O853   O     0.10559   0.12846   0.74999   0.00000  Uiso   1.00
O854   O     0.16666   0.20489   0.68392   0.00000  Uiso   1.00
O855   O     0.16667   0.12844   0.81607   0.00000  Uiso   1.00
O856   O     0.16667   0.20489   0.81607   0.00000  Uiso   1.00
O857   O     0.16666   0.12844   0.68392   0.00000  Uiso   1.00
O858   O     0.05242   0.16514   0.53693   0.00000  Uiso   1.00
Zn859  Zn    0.16667   0.21771   0.75000   0.00000  Uiso   1.00
Zn860  Zn    0.16667   0.11563   0.75000   0.00000  Uiso   1.00
C861   C     0.42005   0.16663   0.74895   0.00000  Uiso   1.00
C862   C     0.37586   0.16707   0.74889   0.00000  Uiso   1.00
C863   C     0.52399   0.02493   0.78159   0.00000  Uiso   1.00
C864   C     0.47601   0.30840   0.71841   0.00000  Uiso   1.00
C865   C     0.47660   0.02302   0.71791   0.00000  Uiso   1.00
C866   C     0.52340   0.31031   0.78208   0.00000  Uiso   1.00
C867   C     0.49965   0.16631   0.66355   0.00000  Uiso   1.00
C868   C     0.50035   0.16702   0.83645   0.00000  Uiso   1.00
C869   C     0.53812   0.16642   0.90965   0.00000  Uiso   1.00
C870   C     0.46188   0.16691   0.59034   0.00000  Uiso   1.00
C871   C     0.50034   0.16781   0.88412   0.00000  Uiso   1.00
C872   C     0.57995   0.16671   0.75104   0.00000  Uiso   1.00
C873   C     0.49966   0.16552   0.61588   0.00000  Uiso   1.00
C874   C     0.46249   0.16916   0.90375   0.00000  Uiso   1.00
C875   C     0.53751   0.16418   0.59625   0.00000  Uiso   1.00
C876   C     0.46209   0.16831   0.95017   0.00000  Uiso   1.00
C877   C     0.53791   0.16503   0.54983   0.00000  Uiso   1.00
C878   C     0.50020   0.16708   0.97665   0.00000  Uiso   1.00
C879   C     0.49980   0.16625   0.52335   0.00000  Uiso   1.00
C880   C     0.53867   0.16688   0.95633   0.00000  Uiso   1.00
C881   C     0.46133   0.16646   0.54367   0.00000  Uiso   1.00
C882   C     0.42419   0.16821   0.97028   0.00000  Uiso   1.00
C883   C     0.42339   0.16589   0.51703   0.00000  Uiso   1.00
C884   C     0.57581   0.16512   0.52972   0.00000  Uiso   1.00
C885   C     0.36511   0.12389   0.52594   0.00000  Uiso   1.00
C886   C     0.63489   0.20944   0.97407   0.00000  Uiso   1.00
C887   C     0.36254   0.13523   0.64479   0.00000  Uiso   1.00
C888   C     0.63746   0.19810   0.85521   0.00000  Uiso   1.00
C889   C     0.62289   0.06314   0.70849   0.00000  Uiso   1.00
C890   C     0.37711   0.27019   0.79151   0.00000  Uiso   1.00
C891   C     0.55083   0.05012   0.81393   0.00000  Uiso   1.00
C892   C     0.44917   0.28321   0.68607   0.00000  Uiso   1.00
C893   C     0.45432   0.04571   0.68159   0.00000  Uiso   1.00
C894   C     0.57661   0.16744   0.98297   0.00000  Uiso   1.00
C895   C     0.54568   0.28762   0.81841   0.00000  Uiso   1.00
C896   C     0.35216   0.13854   0.71908   0.00000  Uiso   1.00
C897   C     0.64784   0.19479   0.78091   0.00000  Uiso   1.00
C898   C     0.64264   0.13620   0.72197   0.00000  Uiso   1.00
C899   C     0.35736   0.19714   0.77803   0.00000  Uiso   1.00
C900   C     0.62414   0.16626   0.75111   0.00000  Uiso   1.00
H901   H     0.56670   0.16456   0.89289   0.00000  Uiso   1.00
H902   H     0.64556   0.21170   0.51029   0.00000  Uiso   1.00
H903   H     0.61490   0.23866   0.96464   0.00000  Uiso   1.00
H904   H     0.66306   0.21159   0.95480   0.00000  Uiso   1.00
H905   H     0.37993   0.11756   0.61920   0.00000  Uiso   1.00
H906   H     0.37278   0.17113   0.64636   0.00000  Uiso   1.00
H907   H     0.66239   0.13278   0.63308   0.00000  Uiso   1.00
H908   H     0.62721   0.16220   0.85363   0.00000  Uiso   1.00
H909   H     0.62008   0.21577   0.88080   0.00000  Uiso   1.00
H910   H     0.33760   0.20054   0.86692   0.00000  Uiso   1.00
H911   H     0.59902   0.04166   0.68972   0.00000  Uiso   1.00
H912   H     0.43329   0.16877   0.60711   0.00000  Uiso   1.00
H913   H     0.61779   0.06036   0.74493   0.00000  Uiso   1.00
H914   H     0.65394   0.04967   0.70153   0.00000  Uiso   1.00
H915   H     0.38221   0.27297   0.75507   0.00000  Uiso   1.00
H916   H     0.40098   0.29168   0.81028   0.00000  Uiso   1.00
H917   H     0.34606   0.28366   0.79846   0.00000  Uiso   1.00
H918   H     0.43355   0.17008   0.88278   0.00000  Uiso   1.00
H919   H     0.56645   0.16325   0.61722   0.00000  Uiso   1.00
H920   H     0.39520   0.16959   0.94962   0.00000  Uiso   1.00
H921   H     0.60480   0.16374   0.55038   0.00000  Uiso   1.00
H922   H     0.38510   0.09467   0.53537   0.00000  Uiso   1.00
H923   H     0.35444   0.12163   0.98971   0.00000  Uiso   1.00
H924   H     0.33694   0.12174   0.54520   0.00000  Uiso   1.00
N925   N     0.50000   0.28573   0.75000   0.00000  Uiso   1.00
N926   N     0.50000   0.04760   0.75000   0.00000  Uiso   1.00
N927   N     0.57256   0.07007   0.83986   0.00000  Uiso   1.00
N928   N     0.42744   0.26326   0.66014   0.00000  Uiso   1.00
N929   N     0.43678   0.06307   0.65160   0.00000  Uiso   1.00
N930   N     0.56322   0.27026   0.84840   0.00000  Uiso   1.00
O931   O     0.43892   0.20487   0.74999   0.00000  Uiso   1.00
O932   O     0.61424   0.16819   0.96307   0.00000  Uiso   1.00
O933   O     0.37091   0.11406   0.68640   0.00000  Uiso   1.00
O934   O     0.62909   0.21928   0.81360   0.00000  Uiso   1.00
O935   O     0.61828   0.10772   0.69349   0.00000  Uiso   1.00
O936   O     0.38172   0.22562   0.80651   0.00000  Uiso   1.00
O937   O     0.56108   0.12846   0.75000   0.00000  Uiso   1.00
O938   O     0.56108   0.20487   0.75000   0.00000  Uiso   1.00
O939   O     0.43892   0.12846   0.74999   0.00000  Uiso   1.00
O940   O     0.49999   0.20489   0.68392   0.00000  Uiso   1.00
O941   O     0.50001   0.12844   0.81607   0.00000  Uiso   1.00
O942   O     0.50001   0.20489   0.81607   0.00000  Uiso   1.00
O943   O     0.49999   0.12844   0.68392   0.00000  Uiso   1.00
O944   O     0.38576   0.16514   0.53693   0.00000  Uiso   1.00
Zn945  Zn    0.50000   0.21771   0.75000   0.00000  Uiso   1.00
Zn946  Zn    0.50000   0.11563   0.75000   0.00000  Uiso   1.00
C947   C     0.75339   0.16663   0.74895   0.00000  Uiso   1.00
C948   C     0.70920   0.16707   0.74889   0.00000  Uiso   1.00
C949   C     0.85732   0.02493   0.78159   0.00000  Uiso   1.00
C950   C     0.80934   0.30840   0.71841   0.00000  Uiso   1.00
C951   C     0.80993   0.02302   0.71791   0.00000  Uiso   1.00
C952   C     0.85674   0.31031   0.78208   0.00000  Uiso   1.00
C953   C     0.83298   0.16631   0.66355   0.00000  Uiso   1.00
C954   C     0.83368   0.16702   0.83645   0.00000  Uiso   1.00
C955   C     0.87145   0.16642   0.90965   0.00000  Uiso   1.00
C956   C     0.79521   0.16691   0.59034   0.00000  Uiso   1.00
C957   C     0.83367   0.16781   0.88412   0.00000  Uiso   1.00
C958   C     0.91328   0.16671   0.75104   0.00000  Uiso   1.00
C959   C     0.83299   0.16552   0.61588   0.00000  Uiso   1.00
C960   C     0.79582   0.16916   0.90375   0.00000  Uiso   1.00
C961   C     0.87084   0.16418   0.59625   0.00000  Uiso   1.00
C962   C     0.79542   0.16831   0.95017   0.00000  Uiso   1.00
C963   C     0.87124   0.16503   0.54983   0.00000  Uiso   1.00
C964   C     0.83354   0.16708   0.97665   0.00000  Uiso   1.00
C965   C     0.83313   0.16625   0.52335   0.00000  Uiso   1.00
C966   C     0.87200   0.16688   0.95633   0.00000  Uiso   1.00
C967   C     0.79466   0.16646   0.54367   0.00000  Uiso   1.00
C968   C     0.75753   0.16821   0.97028   0.00000  Uiso   1.00
C969   C     0.75672   0.16589   0.51703   0.00000  Uiso   1.00
C970   C     0.90914   0.16512   0.52972   0.00000  Uiso   1.00
C971   C     0.69844   0.12389   0.52594   0.00000  Uiso   1.00
C972   C     0.96822   0.20944   0.97407   0.00000  Uiso   1.00
C973   C     0.69587   0.13523   0.64479   0.00000  Uiso   1.00
C974   C     0.97079   0.19810   0.85521   0.00000  Uiso   1.00
C975   C     0.95622   0.06314   0.70849   0.00000  Uiso   1.00
C976   C     0.71044   0.27019   0.79151   0.00000  Uiso   1.00
C977   C     0.88416   0.05012   0.81393   0.00000  Uiso   1.00
C978   C     0.78250   0.28321   0.68607   0.00000  Uiso   1.00
C979   C     0.78765   0.04571   0.68159   0.00000  Uiso   1.00
C980   C     0.90994   0.16744   0.98297   0.00000  Uiso   1.00
C981   C     0.87902   0.28762   0.81841   0.00000  Uiso   1.00
C982   C     0.68550   0.13854   0.71908   0.00000  Uiso   1.00
C983   C     0.98117   0.19479   0.78091   0.00000  Uiso   1.00
C984   C     0.97597   0.13620   0.72197   0.00000  Uiso   1.00
C985   C     0.69069   0.19714   0.77803   0.00000  Uiso   1.00
C986   C     0.95747   0.16626   0.75111   0.00000  Uiso   1.00
H987   H     0.90004   0.16456   0.89289   0.00000  Uiso   1.00
H988   H     0.97889   0.21170   0.51029   0.00000  Uiso   1.00
H989   H     0.94823   0.23866   0.96464   0.00000  Uiso   1.00
H990   H     0.99639   0.21159   0.95480   0.00000  Uiso   1.00
H991   H     0.71326   0.11756   0.61920   0.00000  Uiso   1.00
H992   H     0.70611   0.17113   0.64636   0.00000  Uiso   1.00
H993   H     0.99573   0.13278   0.63308   0.00000  Uiso   1.00
H994   H     0.96054   0.16220   0.85363   0.00000  Uiso   1.00
H995   H     0.95341   0.21577   0.88080   0.00000  Uiso   1.00
H996   H     0.67094   0.20054   0.86692   0.00000  Uiso   1.00
H997   H     0.93235   0.04166   0.68972   0.00000  Uiso   1.00
H998   H     0.76663   0.16877   0.60711   0.00000  Uiso   1.00
H999   H     0.95112   0.06036   0.74493   0.00000  Uiso   1.00
H1000  H     0.98727   0.04967   0.70153   0.00000  Uiso   1.00
H1001  H     0.71555   0.27297   0.75507   0.00000  Uiso   1.00
H1002  H     0.73431   0.29168   0.81028   0.00000  Uiso   1.00
H1003  H     0.67939   0.28366   0.79846   0.00000  Uiso   1.00
H1004  H     0.76689   0.17008   0.88278   0.00000  Uiso   1.00
H1005  H     0.89978   0.16325   0.61722   0.00000  Uiso   1.00
H1006  H     0.72853   0.16959   0.94962   0.00000  Uiso   1.00
H1007  H     0.93813   0.16374   0.55038   0.00000  Uiso   1.00
H1008  H     0.71843   0.09467   0.53537   0.00000  Uiso   1.00
H1009  H     0.68778   0.12163   0.98971   0.00000  Uiso   1.00
H1010  H     0.67027   0.12174   0.54520   0.00000  Uiso   1.00
N1011  N     0.83333   0.28573   0.75000   0.00000  Uiso   1.00
N1012  N     0.83333   0.04760   0.75000   0.00000  Uiso   1.00
N1013  N     0.90589   0.07007   0.83986   0.00000  Uiso   1.00
N1014  N     0.76078   0.26326   0.66014   0.00000  Uiso   1.00
N1015  N     0.77011   0.06307   0.65160   0.00000  Uiso   1.00
N1016  N     0.89656   0.27026   0.84840   0.00000  Uiso   1.00
O1017  O     0.77226   0.20487   0.74999   0.00000  Uiso   1.00
O1018  O     0.94757   0.16819   0.96307   0.00000  Uiso   1.00
O1019  O     0.70424   0.11406   0.68640   0.00000  Uiso   1.00
O1020  O     0.96242   0.21928   0.81360   0.00000  Uiso   1.00
O1021  O     0.95161   0.10772   0.69349   0.00000  Uiso   1.00
O1022  O     0.71505   0.22562   0.80651   0.00000  Uiso   1.00
O1023  O     0.89441   0.12846   0.75000   0.00000  Uiso   1.00
O1024  O     0.89441   0.20487   0.75000   0.00000  Uiso   1.00
O1025  O     0.77226   0.12846   0.74999   0.00000  Uiso   1.00
O1026  O     0.83333   0.20489   0.68392   0.00000  Uiso   1.00
O1027  O     0.83334   0.12844   0.81607   0.00000  Uiso   1.00
O1028  O     0.83334   0.20489   0.81607   0.00000  Uiso   1.00
O1029  O     0.83333   0.12844   0.68392   0.00000  Uiso   1.00
O1030  O     0.71909   0.16514   0.53693   0.00000  Uiso   1.00
Zn1031 Zn    0.83333   0.21771   0.75000   0.00000  Uiso   1.00
Zn1032 Zn    0.83333   0.11563   0.75000   0.00000  Uiso   1.00
C1033  C     0.08672   0.49996   0.74895   0.00000  Uiso   1.00
C1034  C     0.04253   0.50041   0.74889   0.00000  Uiso   1.00
C1035  C     0.19066   0.35826   0.78159   0.00000  Uiso   1.00
C1036  C     0.14268   0.64174   0.71841   0.00000  Uiso   1.00
C1037  C     0.14326   0.35636   0.71791   0.00000  Uiso   1.00
C1038  C     0.19007   0.64364   0.78208   0.00000  Uiso   1.00
C1039  C     0.16632   0.49964   0.66355   0.00000  Uiso   1.00
C1040  C     0.16702   0.50036   0.83645   0.00000  Uiso   1.00
C1041  C     0.20479   0.49975   0.90965   0.00000  Uiso   1.00
C1042  C     0.12855   0.50024   0.59034   0.00000  Uiso   1.00
C1043  C     0.16701   0.50115   0.88412   0.00000  Uiso   1.00
C1044  C     0.24661   0.50004   0.75104   0.00000  Uiso   1.00
C1045  C     0.16633   0.49885   0.61588   0.00000  Uiso   1.00
C1046  C     0.12916   0.50249   0.90375   0.00000  Uiso   1.00
C1047  C     0.20418   0.49751   0.59625   0.00000  Uiso   1.00
C1048  C     0.12876   0.50164   0.95017   0.00000  Uiso   1.00
C1049  C     0.20457   0.49836   0.54983   0.00000  Uiso   1.00
C1050  C     0.16687   0.50041   0.97665   0.00000  Uiso   1.00
C1051  C     0.16646   0.49959   0.52335   0.00000  Uiso   1.00
C1052  C     0.20534   0.50021   0.95633   0.00000  Uiso   1.00
C1053  C     0.12800   0.49979   0.54367   0.00000  Uiso   1.00
C1054  C     0.09086   0.50155   0.97028   0.00000  Uiso   1.00
C1055  C     0.09006   0.49922   0.51703   0.00000  Uiso   1.00
C1056  C     0.24247   0.49845   0.52972   0.00000  Uiso   1.00
C1057  C     0.03178   0.45723   0.52594   0.00000  Uiso   1.00
C1058  C     0.30156   0.54277   0.97407   0.00000  Uiso   1.00
C1059  C     0.02921   0.46856   0.64479   0.00000  Uiso   1.00
C1060  C     0.30412   0.53143   0.85521   0.00000  Uiso   1.00
C1061  C     0.28956   0.39648   0.70849   0.00000  Uiso   1.00
C1062  C     0.04378   0.60352   0.79151   0.00000  Uiso   1.00
C1063  C     0.21750   0.38346   0.81393   0.00000  Uiso   1.00
C1064  C     0.11584   0.61654   0.68607   0.00000  Uiso   1.00
C1065  C     0.12098   0.37905   0.68159   0.00000  Uiso   1.00
C1066  C     0.24327   0.50078   0.98297   0.00000  Uiso   1.00
C1067  C     0.21235   0.62095   0.81841   0.00000  Uiso   1.00
C1068  C     0.01883   0.47188   0.71908   0.00000  Uiso   1.00
C1069  C     0.31450   0.52812   0.78091   0.00000  Uiso   1.00
C1070  C     0.30931   0.46953   0.72197   0.00000  Uiso   1.00
C1071  C     0.02403   0.53047   0.77803   0.00000  Uiso   1.00
C1072  C     0.29080   0.49959   0.75111   0.00000  Uiso   1.00
H1073  H     0.23337   0.49790   0.89289   0.00000  Uiso   1.00
H1074  H     0.31223   0.54503   0.51029   0.00000  Uiso   1.00
H1075  H     0.28157   0.57199   0.96464   0.00000  Uiso   1.00
H1076  H     0.32973   0.54492   0.95480   0.00000  Uiso   1.00
H1077  H     0.04659   0.45090   0.61920   0.00000  Uiso   1.00
H1078  H     0.03945   0.50447   0.64636   0.00000  Uiso   1.00
H1079  H     0.32906   0.46611   0.63308   0.00000  Uiso   1.00
H1080  H     0.29388   0.49553   0.85363   0.00000  Uiso   1.00
H1081  H     0.28674   0.54910   0.88080   0.00000  Uiso   1.00
H1082  H     0.00427   0.53387   0.86692   0.00000  Uiso   1.00
H1083  H     0.26569   0.37499   0.68972   0.00000  Uiso   1.00
H1084  H     0.09996   0.50210   0.60711   0.00000  Uiso   1.00
H1085  H     0.28446   0.39370   0.74493   0.00000  Uiso   1.00
H1086  H     0.32061   0.38300   0.70153   0.00000  Uiso   1.00
H1087  H     0.04888   0.60630   0.75507   0.00000  Uiso   1.00
H1088  H     0.06764   0.62501   0.81028   0.00000  Uiso   1.00
H1089  H     0.01273   0.61700   0.79846   0.00000  Uiso   1.00
H1090  H     0.10022   0.50342   0.88278   0.00000  Uiso   1.00
H1091  H     0.23311   0.49658   0.61722   0.00000  Uiso   1.00
H1092  H     0.06186   0.50292   0.94962   0.00000  Uiso   1.00
H1093  H     0.27147   0.49708   0.55038   0.00000  Uiso   1.00
H1094  H     0.05177   0.42800   0.53537   0.00000  Uiso   1.00
H1095  H     0.02111   0.45496   0.98971   0.00000  Uiso   1.00
H1096  H     0.00360   0.45508   0.54520   0.00000  Uiso   1.00
N1097  N     0.16667   0.61907   0.75000   0.00000  Uiso   1.00
N1098  N     0.16667   0.38093   0.75000   0.00000  Uiso   1.00
N1099  N     0.23922   0.40340   0.83986   0.00000  Uiso   1.00
N1100  N     0.09411   0.59660   0.66014   0.00000  Uiso   1.00
N1101  N     0.10345   0.39640   0.65160   0.00000  Uiso   1.00
N1102  N     0.22989   0.60360   0.84840   0.00000  Uiso   1.00
O1103  O     0.10559   0.53821   0.74999   0.00000  Uiso   1.00
O1104  O     0.28091   0.50152   0.96307   0.00000  Uiso   1.00
O1105  O     0.03758   0.44739   0.68640   0.00000  Uiso   1.00
O1106  O     0.29576   0.55261   0.81360   0.00000  Uiso   1.00
O1107  O     0.28495   0.44105   0.69349   0.00000  Uiso   1.00
O1108  O     0.04839   0.55895   0.80651   0.00000  Uiso   1.00
O1109  O     0.22774   0.46179   0.75000   0.00000  Uiso   1.00
O1110  O     0.22774   0.53821   0.75000   0.00000  Uiso   1.00
O1111  O     0.10559   0.46179   0.74999   0.00000  Uiso   1.00
O1112  O     0.16666   0.53823   0.68392   0.00000  Uiso   1.00
O1113  O     0.16667   0.46177   0.81607   0.00000  Uiso   1.00
O1114  O     0.16667   0.53823   0.81607   0.00000  Uiso   1.00
O1115  O     0.16666   0.46177   0.68392   0.00000  Uiso   1.00
O1116  O     0.05242   0.49848   0.53693   0.00000  Uiso   1.00
Zn1117 Zn    0.16667   0.55104   0.75000   0.00000  Uiso   1.00
Zn1118 Zn    0.16667   0.44896   0.75000   0.00000  Uiso   1.00
C1119  C     0.42005   0.49996   0.74895   0.00000  Uiso   1.00
C1120  C     0.37586   0.50041   0.74889   0.00000  Uiso   1.00
C1121  C     0.52399   0.35826   0.78159   0.00000  Uiso   1.00
C1122  C     0.47601   0.64174   0.71841   0.00000  Uiso   1.00
C1123  C     0.47660   0.35636   0.71791   0.00000  Uiso   1.00
C1124  C     0.52340   0.64364   0.78208   0.00000  Uiso   1.00
C1125  C     0.49965   0.49964   0.66355   0.00000  Uiso   1.00
C1126  C     0.50035   0.50036   0.83645   0.00000  Uiso   1.00
C1127  C     0.53812   0.49975   0.90965   0.00000  Uiso   1.00
C1128  C     0.46188   0.50024   0.59034   0.00000  Uiso   1.00
C1129  C     0.50034   0.50115   0.88412   0.00000  Uiso   1.00
C1130  C     0.57995   0.50004   0.75104   0.00000  Uiso   1.00
C1131  C     0.49966   0.49885   0.61588   0.00000  Uiso   1.00
C1132  C     0.46249   0.50249   0.90375   0.00000  Uiso   1.00
C1133  C     0.53751   0.49751   0.59625   0.00000  Uiso   1.00
C1134  C     0.46209   0.50164   0.95017   0.00000  Uiso   1.00
C1135  C     0.53791   0.49836   0.54983   0.00000  Uiso   1.00
C1136  C     0.50020   0.50041   0.97665   0.00000  Uiso   1.00
C1137  C     0.49980   0.49959   0.52335   0.00000  Uiso   1.00
C1138  C     0.53867   0.50021   0.95633   0.00000  Uiso   1.00
C1139  C     0.46133   0.49979   0.54367   0.00000  Uiso   1.00
C1140  C     0.42419   0.50155   0.97028   0.00000  Uiso   1.00
C1141  C     0.42339   0.49922   0.51703   0.00000  Uiso   1.00
C1142  C     0.57581   0.49845   0.52972   0.00000  Uiso   1.00
C1143  C     0.36511   0.45723   0.52594   0.00000  Uiso   1.00
C1144  C     0.63489   0.54277   0.97407   0.00000  Uiso   1.00
C1145  C     0.36254   0.46856   0.64479   0.00000  Uiso   1.00
C1146  C     0.63746   0.53143   0.85521   0.00000  Uiso   1.00
C1147  C     0.62289   0.39648   0.70849   0.00000  Uiso   1.00
C1148  C     0.37711   0.60352   0.79151   0.00000  Uiso   1.00
C1149  C     0.55083   0.38346   0.81393   0.00000  Uiso   1.00
C1150  C     0.44917   0.61654   0.68607   0.00000  Uiso   1.00
C1151  C     0.45432   0.37905   0.68159   0.00000  Uiso   1.00
C1152  C     0.57661   0.50078   0.98297   0.00000  Uiso   1.00
C1153  C     0.54568   0.62095   0.81841   0.00000  Uiso   1.00
C1154  C     0.35216   0.47188   0.71908   0.00000  Uiso   1.00
C1155  C     0.64784   0.52812   0.78091   0.00000  Uiso   1.00
C1156  C     0.64264   0.46953   0.72197   0.00000  Uiso   1.00
C1157  C     0.35736   0.53047   0.77803   0.00000  Uiso   1.00
C1158  C     0.62414   0.49959   0.75111   0.00000  Uiso   1.00
H1159  H     0.56670   0.49790   0.89289   0.00000  Uiso   1.00
H1160  H     0.64556   0.54503   0.51029   0.00000  Uiso   1.00
H1161  H     0.61490   0.57199   0.96464   0.00000  Uiso   1.00
H1162  H     0.66306   0.54492   0.95480   0.00000  Uiso   1.00
H1163  H     0.37993   0.45090   0.61920   0.00000  Uiso   1.00
H1164  H     0.37278   0.50447   0.64636   0.00000  Uiso   1.00
H1165  H     0.66239   0.46611   0.63308   0.00000  Uiso   1.00
H1166  H     0.62721   0.49553   0.85363   0.00000  Uiso   1.00
H1167  H     0.62008   0.54910   0.88080   0.00000  Uiso   1.00
H1168  H     0.33760   0.53387   0.86692   0.00000  Uiso   1.00
H1169  H     0.59902   0.37499   0.68972   0.00000  Uiso   1.00
H1170  H     0.43329   0.50210   0.60711   0.00000  Uiso   1.00
H1171  H     0.61779   0.39370   0.74493   0.00000  Uiso   1.00
H1172  H     0.65394   0.38300   0.70153   0.00000  Uiso   1.00
H1173  H     0.38221   0.60630   0.75507   0.00000  Uiso   1.00
H1174  H     0.40098   0.62501   0.81028   0.00000  Uiso   1.00
H1175  H     0.34606   0.61700   0.79846   0.00000  Uiso   1.00
H1176  H     0.43355   0.50342   0.88278   0.00000  Uiso   1.00
H1177  H     0.56645   0.49658   0.61722   0.00000  Uiso   1.00
H1178  H     0.39520   0.50292   0.94962   0.00000  Uiso   1.00
H1179  H     0.60480   0.49708   0.55038   0.00000  Uiso   1.00
H1180  H     0.38510   0.42800   0.53537   0.00000  Uiso   1.00
H1181  H     0.35444   0.45496   0.98971   0.00000  Uiso   1.00
H1182  H     0.33694   0.45508   0.54520   0.00000  Uiso   1.00
N1183  N     0.50000   0.61907   0.75000   0.00000  Uiso   1.00
N1184  N     0.50000   0.38093   0.75000   0.00000  Uiso   1.00
N1185  N     0.57256   0.40340   0.83986   0.00000  Uiso   1.00
N1186  N     0.42744   0.59660   0.66014   0.00000  Uiso   1.00
N1187  N     0.43678   0.39640   0.65160   0.00000  Uiso   1.00
N1188  N     0.56322   0.60360   0.84840   0.00000  Uiso   1.00
O1189  O     0.43892   0.53821   0.74999   0.00000  Uiso   1.00
O1190  O     0.61424   0.50152   0.96307   0.00000  Uiso   1.00
O1191  O     0.37091   0.44739   0.68640   0.00000  Uiso   1.00
O1192  O     0.62909   0.55261   0.81360   0.00000  Uiso   1.00
O1193  O     0.61828   0.44105   0.69349   0.00000  Uiso   1.00
O1194  O     0.38172   0.55895   0.80651   0.00000  Uiso   1.00
O1195  O     0.56108   0.46179   0.75000   0.00000  Uiso   1.00
O1196  O     0.56108   0.53821   0.75000   0.00000  Uiso   1.00
O1197  O     0.43892   0.46179   0.74999   0.00000  Uiso   1.00
O1198  O     0.49999   0.53823   0.68392   0.00000  Uiso   1.00
O1199  O     0.50001   0.46177   0.81607   0.00000  Uiso   1.00
O1200  O     0.50001   0.53823   0.81607   0.00000  Uiso   1.00
O1201  O     0.49999   0.46177   0.68392   0.00000  Uiso   1.00
O1202  O     0.38576   0.49848   0.53693   0.00000  Uiso   1.00
Zn1203 Zn    0.50000   0.55104   0.75000   0.00000  Uiso   1.00
Zn1204 Zn    0.50000   0.44896   0.75000   0.00000  Uiso   1.00
C1205  C     0.75339   0.49996   0.74895   0.00000  Uiso   1.00
C1206  C     0.70920   0.50041   0.74889   0.00000  Uiso   1.00
C1207  C     0.85732   0.35826   0.78159   0.00000  Uiso   1.00
C1208  C     0.80934   0.64174   0.71841   0.00000  Uiso   1.00
C1209  C     0.80993   0.35636   0.71791   0.00000  Uiso   1.00
C1210  C     0.85674   0.64364   0.78208   0.00000  Uiso   1.00
C1211  C     0.83298   0.49964   0.66355   0.00000  Uiso   1.00
C1212  C     0.83368   0.50036   0.83645   0.00000  Uiso   1.00
C1213  C     0.87145   0.49975   0.90965   0.00000  Uiso   1.00
C1214  C     0.79521   0.50024   0.59034   0.00000  Uiso   1.00
C1215  C     0.83367   0.50115   0.88412   0.00000  Uiso   1.00
C1216  C     0.91328   0.50004   0.75104   0.00000  Uiso   1.00
C1217  C     0.83299   0.49885   0.61588   0.00000  Uiso   1.00
C1218  C     0.79582   0.50249   0.90375   0.00000  Uiso   1.00
C1219  C     0.87084   0.49751   0.59625   0.00000  Uiso   1.00
C1220  C     0.79542   0.50164   0.95017   0.00000  Uiso   1.00
C1221  C     0.87124   0.49836   0.54983   0.00000  Uiso   1.00
C1222  C     0.83354   0.50041   0.97665   0.00000  Uiso   1.00
C1223  C     0.83313   0.49959   0.52335   0.00000  Uiso   1.00
C1224  C     0.87200   0.50021   0.95633   0.00000  Uiso   1.00
C1225  C     0.79466   0.49979   0.54367   0.00000  Uiso   1.00
C1226  C     0.75753   0.50155   0.97028   0.00000  Uiso   1.00
C1227  C     0.75672   0.49922   0.51703   0.00000  Uiso   1.00
C1228  C     0.90914   0.49845   0.52972   0.00000  Uiso   1.00
C1229  C     0.69844   0.45723   0.52594   0.00000  Uiso   1.00
C1230  C     0.96822   0.54277   0.97407   0.00000  Uiso   1.00
C1231  C     0.69587   0.46856   0.64479   0.00000  Uiso   1.00
C1232  C     0.97079   0.53143   0.85521   0.00000  Uiso   1.00
C1233  C     0.95622   0.39648   0.70849   0.00000  Uiso   1.00
C1234  C     0.71044   0.60352   0.79151   0.00000  Uiso   1.00
C1235  C     0.88416   0.38346   0.81393   0.00000  Uiso   1.00
C1236  C     0.78250   0.61654   0.68607   0.00000  Uiso   1.00
C1237  C     0.78765   0.37905   0.68159   0.00000  Uiso   1.00
C1238  C     0.90994   0.50078   0.98297   0.00000  Uiso   1.00
C1239  C     0.87902   0.62095   0.81841   0.00000  Uiso   1.00
C1240  C     0.68550   0.47188   0.71908   0.00000  Uiso   1.00
C1241  C     0.98117   0.52812   0.78091   0.00000  Uiso   1.00
C1242  C     0.97597   0.46953   0.72197   0.00000  Uiso   1.00
C1243  C     0.69069   0.53047   0.77803   0.00000  Uiso   1.00
C1244  C     0.95747   0.49959   0.75111   0.00000  Uiso   1.00
H1245  H     0.90004   0.49790   0.89289   0.00000  Uiso   1.00
H1246  H     0.97889   0.54503   0.51029   0.00000  Uiso   1.00
H1247  H     0.94823   0.57199   0.96464   0.00000  Uiso   1.00
H1248  H     0.99639   0.54492   0.95480   0.00000  Uiso   1.00
H1249  H     0.71326   0.45090   0.61920   0.00000  Uiso   1.00
H1250  H     0.70611   0.50447   0.64636   0.00000  Uiso   1.00
H1251  H     0.99573   0.46611   0.63308   0.00000  Uiso   1.00
H1252  H     0.96054   0.49553   0.85363   0.00000  Uiso   1.00
H1253  H     0.95341   0.54910   0.88080   0.00000  Uiso   1.00
H1254  H     0.67094   0.53387   0.86692   0.00000  Uiso   1.00
H1255  H     0.93235   0.37499   0.68972   0.00000  Uiso   1.00
H1256  H     0.76663   0.50210   0.60711   0.00000  Uiso   1.00
H1257  H     0.95112   0.39370   0.74493   0.00000  Uiso   1.00
H1258  H     0.98727   0.38300   0.70153   0.00000  Uiso   1.00
H1259  H     0.71555   0.60630   0.75507   0.00000  Uiso   1.00
H1260  H     0.73431   0.62501   0.81028   0.00000  Uiso   1.00
H1261  H     0.67939   0.61700   0.79846   0.00000  Uiso   1.00
H1262  H     0.76689   0.50342   0.88278   0.00000  Uiso   1.00
H1263  H     0.89978   0.49658   0.61722   0.00000  Uiso   1.00
H1264  H     0.72853   0.50292   0.94962   0.00000  Uiso   1.00
H1265  H     0.93813   0.49708   0.55038   0.00000  Uiso   1.00
H1266  H     0.71843   0.42800   0.53537   0.00000  Uiso   1.00
H1267  H     0.68778   0.45496   0.98971   0.00000  Uiso   1.00
H1268  H     0.67027   0.45508   0.54520   0.00000  Uiso   1.00
N1269  N     0.83333   0.61907   0.75000   0.00000  Uiso   1.00
N1270  N     0.83333   0.38093   0.75000   0.00000  Uiso   1.00
N1271  N     0.90589   0.40340   0.83986   0.00000  Uiso   1.00
N1272  N     0.76078   0.59660   0.66014   0.00000  Uiso   1.00
N1273  N     0.77011   0.39640   0.65160   0.00000  Uiso   1.00
N1274  N     0.89656   0.60360   0.84840   0.00000  Uiso   1.00
O1275  O     0.77226   0.53821   0.74999   0.00000  Uiso   1.00
O1276  O     0.94757   0.50152   0.96307   0.00000  Uiso   1.00
O1277  O     0.70424   0.44739   0.68640   0.00000  Uiso   1.00
O1278  O     0.96242   0.55261   0.81360   0.00000  Uiso   1.00
O1279  O     0.95161   0.44105   0.69349   0.00000  Uiso   1.00
O1280  O     0.71505   0.55895   0.80651   0.00000  Uiso   1.00
O1281  O     0.89441   0.46179   0.75000   0.00000  Uiso   1.00
O1282  O     0.89441   0.53821   0.75000   0.00000  Uiso   1.00
O1283  O     0.77226   0.46179   0.74999   0.00000  Uiso   1.00
O1284  O     0.83333   0.53823   0.68392   0.00000  Uiso   1.00
O1285  O     0.83334   0.46177   0.81607   0.00000  Uiso   1.00
O1286  O     0.83334   0.53823   0.81607   0.00000  Uiso   1.00
O1287  O     0.83333   0.46177   0.68392   0.00000  Uiso   1.00
O1288  O     0.71909   0.49848   0.53693   0.00000  Uiso   1.00
Zn1289 Zn    0.83333   0.55104   0.75000   0.00000  Uiso   1.00
Zn1290 Zn    0.83333   0.44896   0.75000   0.00000  Uiso   1.00
C1291  C     0.08672   0.83329   0.74895   0.00000  Uiso   1.00
C1292  C     0.04253   0.83374   0.74889   0.00000  Uiso   1.00
C1293  C     0.19066   0.69160   0.78159   0.00000  Uiso   1.00
C1294  C     0.14268   0.97507   0.71841   0.00000  Uiso   1.00
C1295  C     0.14326   0.68969   0.71791   0.00000  Uiso   1.00
C1296  C     0.19007   0.97698   0.78208   0.00000  Uiso   1.00
C1297  C     0.16632   0.83298   0.66355   0.00000  Uiso   1.00
C1298  C     0.16702   0.83369   0.83645   0.00000  Uiso   1.00
C1299  C     0.20479   0.83309   0.90965   0.00000  Uiso   1.00
C1300  C     0.12855   0.83358   0.59034   0.00000  Uiso   1.00
C1301  C     0.16701   0.83448   0.88412   0.00000  Uiso   1.00
C1302  C     0.24661   0.83337   0.75104   0.00000  Uiso   1.00
C1303  C     0.16633   0.83219   0.61588   0.00000  Uiso   1.00
C1304  C     0.12916   0.83582   0.90375   0.00000  Uiso   1.00
C1305  C     0.20418   0.83084   0.59625   0.00000  Uiso   1.00
C1306  C     0.12876   0.83497   0.95017   0.00000  Uiso   1.00
C1307  C     0.20457   0.83169   0.54983   0.00000  Uiso   1.00
C1308  C     0.16687   0.83375   0.97665   0.00000  Uiso   1.00
C1309  C     0.16646   0.83292   0.52335   0.00000  Uiso   1.00
C1310  C     0.20534   0.83354   0.95633   0.00000  Uiso   1.00
C1311  C     0.12800   0.83312   0.54367   0.00000  Uiso   1.00
C1312  C     0.09086   0.83488   0.97028   0.00000  Uiso   1.00
C1313  C     0.09006   0.83255   0.51703   0.00000  Uiso   1.00
C1314  C     0.24247   0.83179   0.52972   0.00000  Uiso   1.00
C1315  C     0.03178   0.79056   0.52594   0.00000  Uiso   1.00
C1316  C     0.30156   0.87611   0.97407   0.00000  Uiso   1.00
C1317  C     0.02921   0.80190   0.64479   0.00000  Uiso   1.00
C1318  C     0.30412   0.86477   0.85521   0.00000  Uiso   1.00
C1319  C     0.28956   0.72981   0.70849   0.00000  Uiso   1.00
C1320  C     0.04378   0.93686   0.79151   0.00000  Uiso   1.00
C1321  C     0.21750   0.71679   0.81393   0.00000  Uiso   1.00
C1322  C     0.11584   0.94988   0.68607   0.00000  Uiso   1.00
C1323  C     0.12098   0.71238   0.68159   0.00000  Uiso   1.00
C1324  C     0.24327   0.83411   0.98297   0.00000  Uiso   1.00
C1325  C     0.21235   0.95428   0.81841   0.00000  Uiso   1.00
C1326  C     0.01883   0.80521   0.71908   0.00000  Uiso   1.00
C1327  C     0.31450   0.86146   0.78091   0.00000  Uiso   1.00
C1328  C     0.30931   0.80286   0.72197   0.00000  Uiso   1.00
C1329  C     0.02403   0.86380   0.77803   0.00000  Uiso   1.00
C1330  C     0.29080   0.83293   0.75111   0.00000  Uiso   1.00
H1331  H     0.23337   0.83123   0.89289   0.00000  Uiso   1.00
H1332  H     0.31223   0.87836   0.51029   0.00000  Uiso   1.00
H1333  H     0.28157   0.90533   0.96464   0.00000  Uiso   1.00
H1334  H     0.32973   0.87826   0.95480   0.00000  Uiso   1.00
H1335  H     0.04659   0.78423   0.61920   0.00000  Uiso   1.00
H1336  H     0.03945   0.83780   0.64636   0.00000  Uiso   1.00
H1337  H     0.32906   0.79944   0.63308   0.00000  Uiso   1.00
H1338  H     0.29388   0.82886   0.85363   0.00000  Uiso   1.00
H1339  H     0.28674   0.88244   0.88080   0.00000  Uiso   1.00
H1340  H     0.00427   0.86721   0.86692   0.00000  Uiso   1.00
H1341  H     0.26569   0.70832   0.68972   0.00000  Uiso   1.00
H1342  H     0.09996   0.83544   0.60711   0.00000  Uiso   1.00
H1343  H     0.28446   0.72703   0.74493   0.00000  Uiso   1.00
H1344  H     0.32061   0.71634   0.70153   0.00000  Uiso   1.00
H1345  H     0.04888   0.93964   0.75507   0.00000  Uiso   1.00
H1346  H     0.06764   0.95834   0.81028   0.00000  Uiso   1.00
H1347  H     0.01273   0.95033   0.79846   0.00000  Uiso   1.00
H1348  H     0.10022   0.83675   0.88278   0.00000  Uiso   1.00
H1349  H     0.23311   0.82992   0.61722   0.00000  Uiso   1.00
H1350  H     0.06186   0.83626   0.94962   0.00000  Uiso   1.00
H1351  H     0.27147   0.83041   0.55038   0.00000  Uiso   1.00
H1352  H     0.05177   0.76134   0.53537   0.00000  Uiso   1.00
H1353  H     0.02111   0.78829   0.98971   0.00000  Uiso   1.00
H1354  H     0.00360   0.78841   0.54520   0.00000  Uiso   1.00
N1355  N     0.16667   0.95240   0.75000   0.00000  Uiso   1.00
N1356  N     0.16667   0.71427   0.75000   0.00000  Uiso   1.00
N1357  N     0.23922   0.73674   0.83986   0.00000  Uiso   1.00
N1358  N     0.09411   0.92993   0.66014   0.00000  Uiso   1.00
N1359  N     0.10345   0.72974   0.65160   0.00000  Uiso   1.00
N1360  N     0.22989   0.93693   0.84840   0.00000  Uiso   1.00
O1361  O     0.10559   0.87154   0.74999   0.00000  Uiso   1.00
O1362  O     0.28091   0.83486   0.96307   0.00000  Uiso   1.00
O1363  O     0.03758   0.78072   0.68640   0.00000  Uiso   1.00
O1364  O     0.29576   0.88594   0.81360   0.00000  Uiso   1.00
O1365  O     0.28495   0.77438   0.69349   0.00000  Uiso   1.00
O1366  O     0.04839   0.89229   0.80651   0.00000  Uiso   1.00
O1367  O     0.22774   0.79513   0.75000   0.00000  Uiso   1.00
O1368  O     0.22774   0.87154   0.75000   0.00000  Uiso   1.00
O1369  O     0.10559   0.79513   0.74999   0.00000  Uiso   1.00
O1370  O     0.16666   0.87156   0.68392   0.00000  Uiso   1.00
O1371  O     0.16667   0.79511   0.81607   0.00000  Uiso   1.00
O1372  O     0.16667   0.87156   0.81607   0.00000  Uiso   1.00
O1373  O     0.16666   0.79511   0.68392   0.00000  Uiso   1.00
O1374  O     0.05242   0.83181   0.53693   0.00000  Uiso   1.00
Zn1375 Zn    0.16667   0.88437   0.75000   0.00000  Uiso   1.00
Zn1376 Zn    0.16667   0.78229   0.75000   0.00000  Uiso   1.00
C1377  C     0.42005   0.83329   0.74895   0.00000  Uiso   1.00
C1378  C     0.37586   0.83374   0.74889   0.00000  Uiso   1.00
C1379  C     0.52399   0.69160   0.78159   0.00000  Uiso   1.00
C1380  C     0.47601   0.97507   0.71841   0.00000  Uiso   1.00
C1381  C     0.47660   0.68969   0.71791   0.00000  Uiso   1.00
C1382  C     0.52340   0.97698   0.78208   0.00000  Uiso   1.00
C1383  C     0.49965   0.83298   0.66355   0.00000  Uiso   1.00
C1384  C     0.50035   0.83369   0.83645   0.00000  Uiso   1.00
C1385  C     0.53812   0.83309   0.90965   0.00000  Uiso   1.00
C1386  C     0.46188   0.83358   0.59034   0.00000  Uiso   1.00
C1387  C     0.50034   0.83448   0.88412   0.00000  Uiso   1.00
C1388  C     0.57995   0.83337   0.75104   0.00000  Uiso   1.00
C1389  C     0.49966   0.83219   0.61588   0.00000  Uiso   1.00
C1390  C     0.46249   0.83582   0.90375   0.00000  Uiso   1.00
C1391  C     0.53751   0.83084   0.59625   0.00000  Uiso   1.00
C1392  C     0.46209   0.83497   0.95017   0.00000  Uiso   1.00
C1393  C     0.53791   0.83169   0.54983   0.00000  Uiso   1.00
C1394  C     0.50020   0.83375   0.97665   0.00000  Uiso   1.00
C1395  C     0.49980   0.83292   0.52335   0.00000  Uiso   1.00
C1396  C     0.53867   0.83354   0.95633   0.00000  Uiso   1.00
C1397  C     0.46133   0.83312   0.54367   0.00000  Uiso   1.00
C1398  C     0.42419   0.83488   0.97028   0.00000  Uiso   1.00
C1399  C     0.42339   0.83255   0.51703   0.00000  Uiso   1.00
C1400  C     0.57581   0.83179   0.52972   0.00000  Uiso   1.00
C1401  C     0.36511   0.79056   0.52594   0.00000  Uiso   1.00
C1402  C     0.63489   0.87611   0.97407   0.00000  Uiso   1.00
C1403  C     0.36254   0.80190   0.64479   0.00000  Uiso   1.00
C1404  C     0.63746   0.86477   0.85521   0.00000  Uiso   1.00
C1405  C     0.62289   0.72981   0.70849   0.00000  Uiso   1.00
C1406  C     0.37711   0.93686   0.79151   0.00000  Uiso   1.00
C1407  C     0.55083   0.71679   0.81393   0.00000  Uiso   1.00
C1408  C     0.44917   0.94988   0.68607   0.00000  Uiso   1.00
C1409  C     0.45432   0.71238   0.68159   0.00000  Uiso   1.00
C1410  C     0.57661   0.83411   0.98297   0.00000  Uiso   1.00
C1411  C     0.54568   0.95428   0.81841   0.00000  Uiso   1.00
C1412  C     0.35216   0.80521   0.71908   0.00000  Uiso   1.00
C1413  C     0.64784   0.86146   0.78091   0.00000  Uiso   1.00
C1414  C     0.64264   0.80286   0.72197   0.00000  Uiso   1.00
C1415  C     0.35736   0.86380   0.77803   0.00000  Uiso   1.00
C1416  C     0.62414   0.83293   0.75111   0.00000  Uiso   1.00
H1417  H     0.56670   0.83123   0.89289   0.00000  Uiso   1.00
H1418  H     0.64556   0.87836   0.51029   0.00000  Uiso   1.00
H1419  H     0.61490   0.90533   0.96464   0.00000  Uiso   1.00
H1420  H     0.66306   0.87826   0.95480   0.00000  Uiso   1.00
H1421  H     0.37993   0.78423   0.61920   0.00000  Uiso   1.00
H1422  H     0.37278   0.83780   0.64636   0.00000  Uiso   1.00
H1423  H     0.66239   0.79944   0.63308   0.00000  Uiso   1.00
H1424  H     0.62721   0.82886   0.85363   0.00000  Uiso   1.00
H1425  H     0.62008   0.88244   0.88080   0.00000  Uiso   1.00
H1426  H     0.33760   0.86721   0.86692   0.00000  Uiso   1.00
H1427  H     0.59902   0.70832   0.68972   0.00000  Uiso   1.00
H1428  H     0.43329   0.83544   0.60711   0.00000  Uiso   1.00
H1429  H     0.61779   0.72703   0.74493   0.00000  Uiso   1.00
H1430  H     0.65394   0.71634   0.70153   0.00000  Uiso   1.00
H1431  H     0.38221   0.93964   0.75507   0.00000  Uiso   1.00
H1432  H     0.40098   0.95834   0.81028   0.00000  Uiso   1.00
H1433  H     0.34606   0.95033   0.79846   0.00000  Uiso   1.00
H1434  H     0.43355   0.83675   0.88278   0.00000  Uiso   1.00
H1435  H     0.56645   0.82992   0.61722   0.00000  Uiso   1.00
H1436  H     0.39520   0.83626   0.94962   0.00000  Uiso   1.00
H1437  H     0.60480   0.83041   0.55038   0.00000  Uiso   1.00
H1438  H     0.38510   0.76134   0.53537   0.00000  Uiso   1.00
H1439  H     0.35444   0.78829   0.98971   0.00000  Uiso   1.00
H1440  H     0.33694   0.78841   0.54520   0.00000  Uiso   1.00
N1441  N     0.50000   0.95240   0.75000   0.00000  Uiso   1.00
N1442  N     0.50000   0.71427   0.75000   0.00000  Uiso   1.00
N1443  N     0.57256   0.73674   0.83986   0.00000  Uiso   1.00
N1444  N     0.42744   0.92993   0.66014   0.00000  Uiso   1.00
N1445  N     0.43678   0.72974   0.65160   0.00000  Uiso   1.00
N1446  N     0.56322   0.93693   0.84840   0.00000  Uiso   1.00
O1447  O     0.43892   0.87154   0.74999   0.00000  Uiso   1.00
O1448  O     0.61424   0.83486   0.96307   0.00000  Uiso   1.00
O1449  O     0.37091   0.78072   0.68640   0.00000  Uiso   1.00
O1450  O     0.62909   0.88594   0.81360   0.00000  Uiso   1.00
O1451  O     0.61828   0.77438   0.69349   0.00000  Uiso   1.00
O1452  O     0.38172   0.89229   0.80651   0.00000  Uiso   1.00
O1453  O     0.56108   0.79513   0.75000   0.00000  Uiso   1.00
O1454  O     0.56108   0.87154   0.75000   0.00000  Uiso   1.00
O1455  O     0.43892   0.79513   0.74999   0.00000  Uiso   1.00
O1456  O     0.49999   0.87156   0.68392   0.00000  Uiso   1.00
O1457  O     0.50001   0.79511   0.81607   0.00000  Uiso   1.00
O1458  O     0.50001   0.87156   0.81607   0.00000  Uiso   1.00
O1459  O     0.49999   0.79511   0.68392   0.00000  Uiso   1.00
O1460  O     0.38576   0.83181   0.53693   0.00000  Uiso   1.00
Zn1461 Zn    0.50000   0.88437   0.75000   0.00000  Uiso   1.00
Zn1462 Zn    0.50000   0.78229   0.75000   0.00000  Uiso   1.00
C1463  C     0.75339   0.83329   0.74895   0.00000  Uiso   1.00
C1464  C     0.70920   0.83374   0.74889   0.00000  Uiso   1.00
C1465  C     0.85732   0.69160   0.78159   0.00000  Uiso   1.00
C1466  C     0.80934   0.97507   0.71841   0.00000  Uiso   1.00
C1467  C     0.80993   0.68969   0.71791   0.00000  Uiso   1.00
C1468  C     0.85674   0.97698   0.78208   0.00000  Uiso   1.00
C1469  C     0.83298   0.83298   0.66355   0.00000  Uiso   1.00
C1470  C     0.83368   0.83369   0.83645   0.00000  Uiso   1.00
C1471  C     0.87145   0.83309   0.90965   0.00000  Uiso   1.00
C1472  C     0.79521   0.83358   0.59034   0.00000  Uiso   1.00
C1473  C     0.83367   0.83448   0.88412   0.00000  Uiso   1.00
C1474  C     0.91328   0.83337   0.75104   0.00000  Uiso   1.00
C1475  C     0.83299   0.83219   0.61588   0.00000  Uiso   1.00
C1476  C     0.79582   0.83582   0.90375   0.00000  Uiso   1.00
C1477  C     0.87084   0.83084   0.59625   0.00000  Uiso   1.00
C1478  C     0.79542   0.83497   0.95017   0.00000  Uiso   1.00
C1479  C     0.87124   0.83169   0.54983   0.00000  Uiso   1.00
C1480  C     0.83354   0.83375   0.97665   0.00000  Uiso   1.00
C1481  C     0.83313   0.83292   0.52335   0.00000  Uiso   1.00
C1482  C     0.87200   0.83354   0.95633   0.00000  Uiso   1.00
C1483  C     0.79466   0.83312   0.54367   0.00000  Uiso   1.00
C1484  C     0.75753   0.83488   0.97028   0.00000  Uiso   1.00
C1485  C     0.75672   0.83255   0.51703   0.00000  Uiso   1.00
C1486  C     0.90914   0.83179   0.52972   0.00000  Uiso   1.00
C1487  C     0.69844   0.79056   0.52594   0.00000  Uiso   1.00
C1488  C     0.96822   0.87611   0.97407   0.00000  Uiso   1.00
C1489  C     0.69587   0.80190   0.64479   0.00000  Uiso   1.00
C1490  C     0.97079   0.86477   0.85521   0.00000  Uiso   1.00
C1491  C     0.95622   0.72981   0.70849   0.00000  Uiso   1.00
C1492  C     0.71044   0.93686   0.79151   0.00000  Uiso   1.00
C1493  C     0.88416   0.71679   0.81393   0.00000  Uiso   1.00
C1494  C     0.78250   0.94988   0.68607   0.00000  Uiso   1.00
C1495  C     0.78765   0.71238   0.68159   0.00000  Uiso   1.00
C1496  C     0.90994   0.83411   0.98297   0.00000  Uiso   1.00
C1497  C     0.87902   0.95428   0.81841   0.00000  Uiso   1.00
C1498  C     0.68550   0.80521   0.71908   0.00000  Uiso   1.00
C1499  C     0.98117   0.86146   0.78091   0.00000  Uiso   1.00
C1500  C     0.97597   0.80286   0.72197   0.00000  Uiso   1.00
C1501  C     0.69069   0.86380   0.77803   0.00000  Uiso   1.00
C1502  C     0.95747   0.83293   0.75111   0.00000  Uiso   1.00
H1503  H     0.90004   0.83123   0.89289   0.00000  Uiso   1.00
H1504  H     0.97889   0.87836   0.51029   0.00000  Uiso   1.00
H1505  H     0.94823   0.90533   0.96464   0.00000  Uiso   1.00
H1506  H     0.99639   0.87826   0.95480   0.00000  Uiso   1.00
H1507  H     0.71326   0.78423   0.61920   0.00000  Uiso   1.00
H1508  H     0.70611   0.83780   0.64636   0.00000  Uiso   1.00
H1509  H     0.99573   0.79944   0.63308   0.00000  Uiso   1.00
H1510  H     0.96054   0.82886   0.85363   0.00000  Uiso   1.00
H1511  H     0.95341   0.88244   0.88080   0.00000  Uiso   1.00
H1512  H     0.67094   0.86721   0.86692   0.00000  Uiso   1.00
H1513  H     0.93235   0.70832   0.68972   0.00000  Uiso   1.00
H1514  H     0.76663   0.83544   0.60711   0.00000  Uiso   1.00
H1515  H     0.95112   0.72703   0.74493   0.00000  Uiso   1.00
H1516  H     0.98727   0.71634   0.70153   0.00000  Uiso   1.00
H1517  H     0.71555   0.93964   0.75507   0.00000  Uiso   1.00
H1518  H     0.73431   0.95834   0.81028   0.00000  Uiso   1.00
H1519  H     0.67939   0.95033   0.79846   0.00000  Uiso   1.00
H1520  H     0.76689   0.83675   0.88278   0.00000  Uiso   1.00
H1521  H     0.89978   0.82992   0.61722   0.00000  Uiso   1.00
H1522  H     0.72853   0.83626   0.94962   0.00000  Uiso   1.00
H1523  H     0.93813   0.83041   0.55038   0.00000  Uiso   1.00
H1524  H     0.71843   0.76134   0.53537   0.00000  Uiso   1.00
H1525  H     0.68778   0.78829   0.98971   0.00000  Uiso   1.00
H1526  H     0.67027   0.78841   0.54520   0.00000  Uiso   1.00
N1527  N     0.83333   0.95240   0.75000   0.00000  Uiso   1.00
N1528  N     0.83333   0.71427   0.75000   0.00000  Uiso   1.00
N1529  N     0.90589   0.73674   0.83986   0.00000  Uiso   1.00
N1530  N     0.76078   0.92993   0.66014   0.00000  Uiso   1.00
N1531  N     0.77011   0.72974   0.65160   0.00000  Uiso   1.00
N1532  N     0.89656   0.93693   0.84840   0.00000  Uiso   1.00
O1533  O     0.77226   0.87154   0.74999   0.00000  Uiso   1.00
O1534  O     0.94757   0.83486   0.96307   0.00000  Uiso   1.00
O1535  O     0.70424   0.78072   0.68640   0.00000  Uiso   1.00
O1536  O     0.96242   0.88594   0.81360   0.00000  Uiso   1.00
O1537  O     0.95161   0.77438   0.69349   0.00000  Uiso   1.00
O1538  O     0.71505   0.89229   0.80651   0.00000  Uiso   1.00
O1539  O     0.89441   0.79513   0.75000   0.00000  Uiso   1.00
O1540  O     0.89441   0.87154   0.75000   0.00000  Uiso   1.00
O1541  O     0.77226   0.79513   0.74999   0.00000  Uiso   1.00
O1542  O     0.83333   0.87156   0.68392   0.00000  Uiso   1.00
O1543  O     0.83334   0.79511   0.81607   0.00000  Uiso   1.00
O1544  O     0.83334   0.87156   0.81607   0.00000  Uiso   1.00
O1545  O     0.83333   0.79511   0.68392   0.00000  Uiso   1.00
O1546  O     0.71909   0.83181   0.53693   0.00000  Uiso   1.00
Zn1547 Zn    0.83333   0.88437   0.75000   0.00000  Uiso   1.00
Zn1548 Zn    0.83333   0.78229   0.75000   0.00000  Uiso   1.00
loop_
_geom_bond_atom_site_label_1
_geom_bond_atom_site_label_2
_geom_bond_distance
_geom_bond_site_symmetry_2
_ccdc_geom_bond_type
C1     O71     1.284   .     A
C1     C2      1.422   .     S
C1     O79     1.291   .     A
C2     C39     1.400   .     A
C2     C36     1.400   .     A
C3     C31     1.444   .     S
C3     N66     1.367   .     A
C3     C522    1.426   1_545 S
C4     N65     1.367   .     A
C4     C32     1.444   .     S
C4     C263    1.426   .     S
C5     C33     1.438   .     S
C5     N66     1.372   .     A
C5     C520    1.426   1_545 S
C6     C35     1.438   .     S
C6     N65     1.372   .     A
C6     C261    1.426   .     S
C7     O83     1.289   .     A
C7     C13     1.421   .     S
C7     O80     1.288   .     A
C8     O82     1.289   .     A
C8     O81     1.288   .     A
C8     C11     1.421   .     S
C9     C20     1.390   .     A
C9     C11     1.390   .     A
C9     H41     1.078   .     S
C10    H52     1.078   .     S
C10    C21     1.390   .     A
C10    C13     1.390   .     A
C11    C14     1.388   .     A
C12    O78     1.291   .     A
C12    C40     1.422   .     S
C12    O77     1.284   .     A
C13    C15     1.388   .     A
C14    H58     1.086   .     S
C14    C16     1.385   .     A
C15    C17     1.385   .     A
C15    H59     1.086   .     S
C16    C22     1.395   .     A
C16    C18     1.413   .     A
C17    C24     1.395   .     A
C17    C19     1.413   .     A
C18    C20     1.415   .     A
C18    C793    1.393   .     S
C19    C21     1.415   .     A
C19    C792    1.393   1_554 S
C20    C34     1.409   .     A
C21    C23     1.409   .     A
C22    H60     1.083   .     S
C22    C797    1.399   .     S
C23    O84     1.385   .     S
C23    C796    1.399   1_554 S
C24    H61     1.083   .     S
C24    C808    1.399   1_554 S
C25    O84     1.412   .     S
C25    H64     1.108   .     S
C25    H62     1.114   .     S
C25    H837    1.111   1_554 S
C26    O72     1.412   .     S
C26    H44     1.108   .     S
C26    H43     1.114   .     S
C26    H816    1.111   .     S
C27    H45     1.105   .     S
C27    H46     1.114   .     S
C27    O73     1.411   .     S
C27    H219    1.111   1_455 S
C28    O74     1.411   .     S
C28    H49     1.105   .     S
C28    H48     1.114   .     S
C28    H136    1.111   .     S
C29    H54     1.111   .     S
C29    H51     1.109   .     S
C29    O75     1.412   .     S
C29    H53     1.114   .     S
C30    H57     1.111   .     S
C30    H56     1.109   .     S
C30    O76     1.412   .     S
C30    H55     1.114   .     S
C31    N67     1.158   .     T
C32    N68     1.158   .     T
C33    N69     1.156   .     T
C34    O72     1.385   .     S
C34    C798    1.399   .     S
C35    N70     1.156   .     T
C36    O73     1.381   .     S
C36    C210    1.389   1_455 S
C37    O74     1.381   .     S
C37    C40     1.400   .     A
C37    C125    1.389   .     S
C38    O75     1.387   .     S
C38    C40     1.400   .     A
C38    C122    1.389   .     S
C39    O76     1.387   .     S
C39    C209    1.389   1_455 S
H42    C800    1.111   1_554 S
H47    C113    1.111   .     S
H50    C200    1.111   1_455 S
H63    C799    1.111   .     S
N65    Zn85    2.023   .     S
N66    Zn86    2.023   .     S
O71    Zn85    1.999   .     S
O77    Zn86    1.999   .     S
O78    Zn85    2.005   .     S
O79    Zn86    2.005   .     S
O80    Zn85    1.999   .     S
O81    Zn86    1.999   .     S
O82    Zn85    2.013   .     S
O83    Zn86    2.013   .     S
C87    O157    1.284   .     A
C87    C88     1.422   .     S
C87    O165    1.291   .     A
C88    C125    1.400   .     A
C88    C122    1.400   .     A
C89    C117    1.444   .     S
C89    N152    1.367   .     A
C89    C608    1.426   1_545 S
C90    N151    1.367   .     A
C90    C118    1.444   .     S
C90    C349    1.426   .     S
C91    C119    1.438   .     S
C91    N152    1.372   .     A
C91    C606    1.426   1_545 S
C92    C121    1.438   .     S
C92    N151    1.372   .     A
C92    C347    1.426   .     S
C93    O169    1.289   .     A
C93    C99     1.421   .     S
C93    O166    1.288   .     A
C94    O168    1.289   .     A
C94    O167    1.288   .     A
C94    C97     1.421   .     S
C95    C106    1.390   .     A
C95    C97     1.390   .     A
C95    H127    1.078   .     S
C96    H138    1.078   .     S
C96    C107    1.390   .     A
C96    C99     1.390   .     A
C97    C100    1.388   .     A
C98    O164    1.291   .     A
C98    C126    1.422   .     S
C98    O163    1.284   .     A
C99    C101    1.388   .     A
C100   H144    1.086   .     S
C100   C102    1.385   .     A
C101   C103    1.385   .     A
C101   H145    1.086   .     S
C102   C108    1.395   .     A
C102   C104    1.413   .     A
C103   C110    1.395   .     A
C103   C105    1.413   .     A
C104   C106    1.415   .     A
C104   C879    1.393   .     S
C105   C107    1.415   .     A
C105   C878    1.393   1_554 S
C106   C120    1.409   .     A
C107   C109    1.409   .     A
C108   H146    1.083   .     S
C108   C883    1.399   .     S
C109   O170    1.385   .     S
C109   C882    1.399   1_554 S
C110   H147    1.083   .     S
C110   C894    1.399   1_554 S
C111   O170    1.412   .     S
C111   H150    1.108   .     S
C111   H148    1.114   .     S
C111   H923    1.111   1_554 S
C112   O158    1.412   .     S
C112   H130    1.108   .     S
C112   H129    1.114   .     S
C112   H902    1.111   .     S
C113   H131    1.105   .     S
C113   H132    1.114   .     S
C113   O159    1.411   .     S
C114   O160    1.411   .     S
C114   H135    1.105   .     S
C114   H134    1.114   .     S
C114   H222    1.111   .     S
C115   H140    1.111   .     S
C115   H137    1.109   .     S
C115   O161    1.412   .     S
C115   H139    1.114   .     S
C116   H143    1.111   .     S
C116   H142    1.109   .     S
C116   O162    1.412   .     S
C116   H141    1.114   .     S
C117   N153    1.158   .     T
C118   N154    1.158   .     T
C119   N155    1.156   .     T
C120   O158    1.385   .     S
C120   C884    1.399   .     S
C121   N156    1.156   .     T
C122   O159    1.381   .     S
C123   O160    1.381   .     S
C123   C126    1.400   .     A
C123   C211    1.389   .     S
C124   O161    1.387   .     S
C124   C126    1.400   .     A
C124   C208    1.389   .     S
C125   O162    1.387   .     S
H128   C886    1.111   1_554 S
H133   C199    1.111   .     S
H149   C885    1.111   .     S
N151   Zn171   2.023   .     S
N152   Zn172   2.023   .     S
O157   Zn171   1.999   .     S
O163   Zn172   1.999   .     S
O164   Zn171   2.005   .     S
O165   Zn172   2.005   .     S
O166   Zn171   1.999   .     S
O167   Zn172   1.999   .     S
O168   Zn171   2.013   .     S
O169   Zn172   2.013   .     S
C173   O243    1.284   .     A
C173   C174    1.422   .     S
C173   O251    1.291   .     A
C174   C211    1.400   .     A
C174   C208    1.400   .     A
C175   C203    1.444   .     S
C175   N238    1.367   .     A
C175   C694    1.426   1_545 S
C176   N237    1.367   .     A
C176   C204    1.444   .     S
C176   C435    1.426   .     S
C177   C205    1.438   .     S
C177   N238    1.372   .     A
C177   C692    1.426   1_545 S
C178   C207    1.438   .     S
C178   N237    1.372   .     A
C178   C433    1.426   .     S
C179   O255    1.289   .     A
C179   C185    1.421   .     S
C179   O252    1.288   .     A
C180   O254    1.289   .     A
C180   O253    1.288   .     A
C180   C183    1.421   .     S
C181   C192    1.390   .     A
C181   C183    1.390   .     A
C181   H213    1.078   .     S
C182   H224    1.078   .     S
C182   C193    1.390   .     A
C182   C185    1.390   .     A
C183   C186    1.388   .     A
C184   O250    1.291   .     A
C184   C212    1.422   .     S
C184   O249    1.284   .     A
C185   C187    1.388   .     A
C186   H230    1.086   .     S
C186   C188    1.385   .     A
C187   C189    1.385   .     A
C187   H231    1.086   .     S
C188   C194    1.395   .     A
C188   C190    1.413   .     A
C189   C196    1.395   .     A
C189   C191    1.413   .     A
C190   C192    1.415   .     A
C190   C965    1.393   .     S
C191   C193    1.415   .     A
C191   C964    1.393   1_554 S
C192   C206    1.409   .     A
C193   C195    1.409   .     A
C194   H232    1.083   .     S
C194   C969    1.399   .     S
C195   O256    1.385   .     S
C195   C968    1.399   1_554 S
C196   H233    1.083   .     S
C196   C980    1.399   1_554 S
C197   O256    1.412   .     S
C197   H236    1.108   .     S
C197   H234    1.114   .     S
C197   H1009   1.111   1_554 S
C198   O244    1.412   .     S
C198   H216    1.108   .     S
C198   H215    1.114   .     S
C198   H988    1.111   .     S
C199   H217    1.105   .     S
C199   H218    1.114   .     S
C199   O245    1.411   .     S
C200   O246    1.411   .     S
C200   H221    1.105   .     S
C200   H220    1.114   .     S
C200   H50     1.111   1_655 S
C201   H226    1.111   .     S
C201   H223    1.109   .     S
C201   O247    1.412   .     S
C201   H225    1.114   .     S
C202   H229    1.111   .     S
C202   H228    1.109   .     S
C202   O248    1.412   .     S
C202   H227    1.114   .     S
C203   N239    1.158   .     T
C204   N240    1.158   .     T
C205   N241    1.156   .     T
C206   O244    1.385   .     S
C206   C970    1.399   .     S
C207   N242    1.156   .     T
C208   O245    1.381   .     S
C209   O246    1.381   .     S
C209   C212    1.400   .     A
C209   C39     1.389   1_655 S
C210   O247    1.387   .     S
C210   C212    1.400   .     A
C210   C36     1.389   1_655 S
C211   O248    1.387   .     S
H214   C972    1.111   1_554 S
H219   C27     1.111   1_655 S
H235   C971    1.111   .     S
N237   Zn257   2.023   .     S
N238   Zn258   2.023   .     S
O243   Zn257   1.999   .     S
O249   Zn258   1.999   .     S
O250   Zn257   2.005   .     S
O251   Zn258   2.005   .     S
O252   Zn257   1.999   .     S
O253   Zn258   1.999   .     S
O254   Zn257   2.013   .     S
O255   Zn258   2.013   .     S
C259   O329    1.284   .     A
C259   C260    1.422   .     S
C259   O337    1.291   .     A
C260   C297    1.400   .     A
C260   C294    1.400   .     A
C261   C289    1.444   .     S
C261   N324    1.367   .     A
C262   N323    1.367   .     A
C262   C290    1.444   .     S
C262   C521    1.426   .     S
C263   C291    1.438   .     S
C263   N324    1.372   .     A
C264   C293    1.438   .     S
C264   N323    1.372   .     A
C264   C519    1.426   .     S
C265   O341    1.289   .     A
C265   C271    1.421   .     S
C265   O338    1.288   .     A
C266   O340    1.289   .     A
C266   O339    1.288   .     A
C266   C269    1.421   .     S
C267   C278    1.390   .     A
C267   C269    1.390   .     A
C267   H299    1.078   .     S
C268   H310    1.078   .     S
C268   C279    1.390   .     A
C268   C271    1.390   .     A
C269   C272    1.388   .     A
C270   O336    1.291   .     A
C270   C298    1.422   .     S
C270   O335    1.284   .     A
C271   C273    1.388   .     A
C272   H316    1.086   .     S
C272   C274    1.385   .     A
C273   C275    1.385   .     A
C273   H317    1.086   .     S
C274   C280    1.395   .     A
C274   C276    1.413   .     A
C275   C282    1.395   .     A
C275   C277    1.413   .     A
C276   C278    1.415   .     A
C276   C1051   1.393   .     S
C277   C279    1.415   .     A
C277   C1050   1.393   1_554 S
C278   C292    1.409   .     A
C279   C281    1.409   .     A
C280   H318    1.083   .     S
C280   C1055   1.399   .     S
C281   O342    1.385   .     S
C281   C1054   1.399   1_554 S
C282   H319    1.083   .     S
C282   C1066   1.399   1_554 S
C283   O342    1.412   .     S
C283   H322    1.108   .     S
C283   H320    1.114   .     S
C283   H1095   1.111   1_554 S
C284   O330    1.412   .     S
C284   H302    1.108   .     S
C284   H301    1.114   .     S
C284   H1074   1.111   .     S
C285   H303    1.105   .     S
C285   H304    1.114   .     S
C285   O331    1.411   .     S
C285   H477    1.111   1_455 S
C286   O332    1.411   .     S
C286   H307    1.105   .     S
C286   H306    1.114   .     S
C286   H394    1.111   .     S
C287   H312    1.111   .     S
C287   H309    1.109   .     S
C287   O333    1.412   .     S
C287   H311    1.114   .     S
C288   H315    1.111   .     S
C288   H314    1.109   .     S
C288   O334    1.412   .     S
C288   H313    1.114   .     S
C289   N325    1.158   .     T
C290   N326    1.158   .     T
C291   N327    1.156   .     T
C292   O330    1.385   .     S
C292   C1056   1.399   .     S
C293   N328    1.156   .     T
C294   O331    1.381   .     S
C294   C468    1.389   1_455 S
C295   O332    1.381   .     S
C295   C298    1.400   .     A
C295   C383    1.389   .     S
C296   O333    1.387   .     S
C296   C298    1.400   .     A
C296   C380    1.389   .     S
C297   O334    1.387   .     S
C297   C467    1.389   1_455 S
H300   C1058   1.111   1_554 S
H305   C371    1.111   .     S
H308   C458    1.111   1_455 S
H321   C1057   1.111   .     S
N323   Zn343   2.023   .     S
N324   Zn344   2.023   .     S
O329   Zn343   1.999   .     S
O335   Zn344   1.999   .     S
O336   Zn343   2.005   .     S
O337   Zn344   2.005   .     S
O338   Zn343   1.999   .     S
O339   Zn344   1.999   .     S
O340   Zn343   2.013   .     S
O341   Zn344   2.013   .     S
C345   O415    1.284   .     A
C345   C346    1.422   .     S
C345   O423    1.291   .     A
C346   C383    1.400   .     A
C346   C380    1.400   .     A
C347   C375    1.444   .     S
C347   N410    1.367   .     A
C348   N409    1.367   .     A
C348   C376    1.444   .     S
C348   C607    1.426   .     S
C349   C377    1.438   .     S
C349   N410    1.372   .     A
C350   C379    1.438   .     S
C350   N409    1.372   .     A
C350   C605    1.426   .     S
C351   O427    1.289   .     A
C351   C357    1.421   .     S
C351   O424    1.288   .     A
C352   O426    1.289   .     A
C352   O425    1.288   .     A
C352   C355    1.421   .     S
C353   C364    1.390   .     A
C353   C355    1.390   .     A
C353   H385    1.078   .     S
C354   H396    1.078   .     S
C354   C365    1.390   .     A
C354   C357    1.390   .     A
C355   C358    1.388   .     A
C356   O422    1.291   .     A
C356   C384    1.422   .     S
C356   O421    1.284   .     A
C357   C359    1.388   .     A
C358   H402    1.086   .     S
C358   C360    1.385   .     A
C359   C361    1.385   .     A
C359   H403    1.086   .     S
C360   C366    1.395   .     A
C360   C362    1.413   .     A
C361   C368    1.395   .     A
C361   C363    1.413   .     A
C362   C364    1.415   .     A
C362   C1137   1.393   .     S
C363   C365    1.415   .     A
C363   C1136   1.393   1_554 S
C364   C378    1.409   .     A
C365   C367    1.409   .     A
C366   H404    1.083   .     S
C366   C1141   1.399   .     S
C367   O428    1.385   .     S
C367   C1140   1.399   1_554 S
C368   H405    1.083   .     S
C368   C1152   1.399   1_554 S
C369   O428    1.412   .     S
C369   H408    1.108   .     S
C369   H406    1.114   .     S
C369   H1181   1.111   1_554 S
C370   O416    1.412   .     S
C370   H388    1.108   .     S
C370   H387    1.114   .     S
C370   H1160   1.111   .     S
C371   H389    1.105   .     S
C371   H390    1.114   .     S
C371   O417    1.411   .     S
C372   O418    1.411   .     S
C372   H393    1.105   .     S
C372   H392    1.114   .     S
C372   H480    1.111   .     S
C373   H398    1.111   .     S
C373   H395    1.109   .     S
C373   O419    1.412   .     S
C373   H397    1.114   .     S
C374   H401    1.111   .     S
C374   H400    1.109   .     S
C374   O420    1.412   .     S
C374   H399    1.114   .     S
C375   N411    1.158   .     T
C376   N412    1.158   .     T
C377   N413    1.156   .     T
C378   O416    1.385   .     S
C378   C1142   1.399   .     S
C379   N414    1.156   .     T
C380   O417    1.381   .     S
C381   O418    1.381   .     S
C381   C384    1.400   .     A
C381   C469    1.389   .     S
C382   O419    1.387   .     S
C382   C384    1.400   .     A
C382   C466    1.389   .     S
C383   O420    1.387   .     S
H386   C1144   1.111   1_554 S
H391   C457    1.111   .     S
H407   C1143   1.111   .     S
N409   Zn429   2.023   .     S
N410   Zn430   2.023   .     S
O415   Zn429   1.999   .     S
O421   Zn430   1.999   .     S
O422   Zn429   2.005   .     S
O423   Zn430   2.005   .     S
O424   Zn429   1.999   .     S
O425   Zn430   1.999   .     S
O426   Zn429   2.013   .     S
O427   Zn430   2.013   .     S
C431   O501    1.284   .     A
C431   C432    1.422   .     S
C431   O509    1.291   .     A
C432   C469    1.400   .     A
C432   C466    1.400   .     A
C433   C461    1.444   .     S
C433   N496    1.367   .     A
C434   N495    1.367   .     A
C434   C462    1.444   .     S
C434   C693    1.426   .     S
C435   C463    1.438   .     S
C435   N496    1.372   .     A
C436   C465    1.438   .     S
C436   N495    1.372   .     A
C436   C691    1.426   .     S
C437   O513    1.289   .     A
C437   C443    1.421   .     S
C437   O510    1.288   .     A
C438   O512    1.289   .     A
C438   O511    1.288   .     A
C438   C441    1.421   .     S
C439   C450    1.390   .     A
C439   C441    1.390   .     A
C439   H471    1.078   .     S
C440   H482    1.078   .     S
C440   C451    1.390   .     A
C440   C443    1.390   .     A
C441   C444    1.388   .     A
C442   O508    1.291   .     A
C442   C470    1.422   .     S
C442   O507    1.284   .     A
C443   C445    1.388   .     A
C444   H488    1.086   .     S
C444   C446    1.385   .     A
C445   C447    1.385   .     A
C445   H489    1.086   .     S
C446   C452    1.395   .     A
C446   C448    1.413   .     A
C447   C454    1.395   .     A
C447   C449    1.413   .     A
C448   C450    1.415   .     A
C448   C1223   1.393   .     S
C449   C451    1.415   .     A
C449   C1222   1.393   1_554 S
C450   C464    1.409   .     A
C451   C453    1.409   .     A
C452   H490    1.083   .     S
C452   C1227   1.399   .     S
C453   O514    1.385   .     S
C453   C1226   1.399   1_554 S
C454   H491    1.083   .     S
C454   C1238   1.399   1_554 S
C455   O514    1.412   .     S
C455   H494    1.108   .     S
C455   H492    1.114   .     S
C455   H1267   1.111   1_554 S
C456   O502    1.412   .     S
C456   H474    1.108   .     S
C456   H473    1.114   .     S
C456   H1246   1.111   .     S
C457   H475    1.105   .     S
C457   H476    1.114   .     S
C457   O503    1.411   .     S
C458   O504    1.411   .     S
C458   H479    1.105   .     S
C458   H478    1.114   .     S
C458   H308    1.111   1_655 S
C459   H484    1.111   .     S
C459   H481    1.109   .     S
C459   O505    1.412   .     S
C459   H483    1.114   .     S
C460   H487    1.111   .     S
C460   H486    1.109   .     S
C460   O506    1.412   .     S
C460   H485    1.114   .     S
C461   N497    1.158   .     T
C462   N498    1.158   .     T
C463   N499    1.156   .     T
C464   O502    1.385   .     S
C464   C1228   1.399   .     S
C465   N500    1.156   .     T
C466   O503    1.381   .     S
C467   O504    1.381   .     S
C467   C470    1.400   .     A
C467   C297    1.389   1_655 S
C468   O505    1.387   .     S
C468   C470    1.400   .     A
C468   C294    1.389   1_655 S
C469   O506    1.387   .     S
H472   C1230   1.111   1_554 S
H477   C285    1.111   1_655 S
H493   C1229   1.111   .     S
N495   Zn515   2.023   .     S
N496   Zn516   2.023   .     S
O501   Zn515   1.999   .     S
O507   Zn516   1.999   .     S
O508   Zn515   2.005   .     S
O509   Zn516   2.005   .     S
O510   Zn515   1.999   .     S
O511   Zn516   1.999   .     S
O512   Zn515   2.013   .     S
O513   Zn516   2.013   .     S
C517   O587    1.284   .     A
C517   C518    1.422   .     S
C517   O595    1.291   .     A
C518   C555    1.400   .     A
C518   C552    1.400   .     A
C519   C547    1.444   .     S
C519   N582    1.367   .     A
C520   N581    1.367   .     A
C520   C548    1.444   .     S
C520   C5      1.426   1_565 S
C521   C549    1.438   .     S
C521   N582    1.372   .     A
C522   C551    1.438   .     S
C522   N581    1.372   .     A
C522   C3      1.426   1_565 S
C523   O599    1.289   .     A
C523   C529    1.421   .     S
C523   O596    1.288   .     A
C524   O598    1.289   .     A
C524   O597    1.288   .     A
C524   C527    1.421   .     S
C525   C536    1.390   .     A
C525   C527    1.390   .     A
C525   H557    1.078   .     S
C526   H568    1.078   .     S
C526   C537    1.390   .     A
C526   C529    1.390   .     A
C527   C530    1.388   .     A
C528   O594    1.291   .     A
C528   C556    1.422   .     S
C528   O593    1.284   .     A
C529   C531    1.388   .     A
C530   H574    1.086   .     S
C530   C532    1.385   .     A
C531   C533    1.385   .     A
C531   H575    1.086   .     S
C532   C538    1.395   .     A
C532   C534    1.413   .     A
C533   C540    1.395   .     A
C533   C535    1.413   .     A
C534   C536    1.415   .     A
C534   C1309   1.393   .     S
C535   C537    1.415   .     A
C535   C1308   1.393   1_554 S
C536   C550    1.409   .     A
C537   C539    1.409   .     A
C538   H576    1.083   .     S
C538   C1313   1.399   .     S
C539   O600    1.385   .     S
C539   C1312   1.399   1_554 S
C540   H577    1.083   .     S
C540   C1324   1.399   1_554 S
C541   O600    1.412   .     S
C541   H580    1.108   .     S
C541   H578    1.114   .     S
C541   H1353   1.111   1_554 S
C542   O588    1.412   .     S
C542   H560    1.108   .     S
C542   H559    1.114   .     S
C542   H1332   1.111   .     S
C543   H561    1.105   .     S
C543   H562    1.114   .     S
C543   O589    1.411   .     S
C543   H735    1.111   1_455 S
C544   O590    1.411   .     S
C544   H565    1.105   .     S
C544   H564    1.114   .     S
C544   H652    1.111   .     S
C545   H570    1.111   .     S
C545   H567    1.109   .     S
C545   O591    1.412   .     S
C545   H569    1.114   .     S
C546   H573    1.111   .     S
C546   H572    1.109   .     S
C546   O592    1.412   .     S
C546   H571    1.114   .     S
C547   N583    1.158   .     T
C548   N584    1.158   .     T
C549   N585    1.156   .     T
C550   O588    1.385   .     S
C550   C1314   1.399   .     S
C551   N586    1.156   .     T
C552   O589    1.381   .     S
C552   C726    1.389   1_455 S
C553   O590    1.381   .     S
C553   C556    1.400   .     A
C553   C641    1.389   .     S
C554   O591    1.387   .     S
C554   C556    1.400   .     A
C554   C638    1.389   .     S
C555   O592    1.387   .     S
C555   C725    1.389   1_455 S
H558   C1316   1.111   1_554 S
H563   C629    1.111   .     S
H566   C716    1.111   1_455 S
H579   C1315   1.111   .     S
N581   Zn601   2.023   .     S
N582   Zn602   2.023   .     S
O587   Zn601   1.999   .     S
O593   Zn602   1.999   .     S
O594   Zn601   2.005   .     S
O595   Zn602   2.005   .     S
O596   Zn601   1.999   .     S
O597   Zn602   1.999   .     S
O598   Zn601   2.013   .     S
O599   Zn602   2.013   .     S
C603   O673    1.284   .     A
C603   C604    1.422   .     S
C603   O681    1.291   .     A
C604   C641    1.400   .     A
C604   C638    1.400   .     A
C605   C633    1.444   .     S
C605   N668    1.367   .     A
C606   N667    1.367   .     A
C606   C634    1.444   .     S
C606   C91     1.426   1_565 S
C607   C635    1.438   .     S
C607   N668    1.372   .     A
C608   C637    1.438   .     S
C608   N667    1.372   .     A
C608   C89     1.426   1_565 S
C609   O685    1.289   .     A
C609   C615    1.421   .     S
C609   O682    1.288   .     A
C610   O684    1.289   .     A
C610   O683    1.288   .     A
C610   C613    1.421   .     S
C611   C622    1.390   .     A
C611   C613    1.390   .     A
C611   H643    1.078   .     S
C612   H654    1.078   .     S
C612   C623    1.390   .     A
C612   C615    1.390   .     A
C613   C616    1.388   .     A
C614   O680    1.291   .     A
C614   C642    1.422   .     S
C614   O679    1.284   .     A
C615   C617    1.388   .     A
C616   H660    1.086   .     S
C616   C618    1.385   .     A
C617   C619    1.385   .     A
C617   H661    1.086   .     S
C618   C624    1.395   .     A
C618   C620    1.413   .     A
C619   C626    1.395   .     A
C619   C621    1.413   .     A
C620   C622    1.415   .     A
C620   C1395   1.393   .     S
C621   C623    1.415   .     A
C621   C1394   1.393   1_554 S
C622   C636    1.409   .     A
C623   C625    1.409   .     A
C624   H662    1.083   .     S
C624   C1399   1.399   .     S
C625   O686    1.385   .     S
C625   C1398   1.399   1_554 S
C626   H663    1.083   .     S
C626   C1410   1.399   1_554 S
C627   O686    1.412   .     S
C627   H666    1.108   .     S
C627   H664    1.114   .     S
C627   H1439   1.111   1_554 S
C628   O674    1.412   .     S
C628   H646    1.108   .     S
C628   H645    1.114   .     S
C628   H1418   1.111   .     S
C629   H647    1.105   .     S
C629   H648    1.114   .     S
C629   O675    1.411   .     S
C630   O676    1.411   .     S
C630   H651    1.105   .     S
C630   H650    1.114   .     S
C630   H738    1.111   .     S
C631   H656    1.111   .     S
C631   H653    1.109   .     S
C631   O677    1.412   .     S
C631   H655    1.114   .     S
C632   H659    1.111   .     S
C632   H658    1.109   .     S
C632   O678    1.412   .     S
C632   H657    1.114   .     S
C633   N669    1.158   .     T
C634   N670    1.158   .     T
C635   N671    1.156   .     T
C636   O674    1.385   .     S
C636   C1400   1.399   .     S
C637   N672    1.156   .     T
C638   O675    1.381   .     S
C639   O676    1.381   .     S
C639   C642    1.400   .     A
C639   C727    1.389   .     S
C640   O677    1.387   .     S
C640   C642    1.400   .     A
C640   C724    1.389   .     S
C641   O678    1.387   .     S
H644   C1402   1.111   1_554 S
H649   C715    1.111   .     S
H665   C1401   1.111   .     S
N667   Zn687   2.023   .     S
N668   Zn688   2.023   .     S
O673   Zn687   1.999   .     S
O679   Zn688   1.999   .     S
O680   Zn687   2.005   .     S
O681   Zn688   2.005   .     S
O682   Zn687   1.999   .     S
O683   Zn688   1.999   .     S
O684   Zn687   2.013   .     S
O685   Zn688   2.013   .     S
C689   O759    1.284   .     A
C689   C690    1.422   .     S
C689   O767    1.291   .     A
C690   C727    1.400   .     A
C690   C724    1.400   .     A
C691   C719    1.444   .     S
C691   N754    1.367   .     A
C692   N753    1.367   .     A
C692   C720    1.444   .     S
C692   C177    1.426   1_565 S
C693   C721    1.438   .     S
C693   N754    1.372   .     A
C694   C723    1.438   .     S
C694   N753    1.372   .     A
C694   C175    1.426   1_565 S
C695   O771    1.289   .     A
C695   C701    1.421   .     S
C695   O768    1.288   .     A
C696   O770    1.289   .     A
C696   O769    1.288   .     A
C696   C699    1.421   .     S
C697   C708    1.390   .     A
C697   C699    1.390   .     A
C697   H729    1.078   .     S
C698   H740    1.078   .     S
C698   C709    1.390   .     A
C698   C701    1.390   .     A
C699   C702    1.388   .     A
C700   O766    1.291   .     A
C700   C728    1.422   .     S
C700   O765    1.284   .     A
C701   C703    1.388   .     A
C702   H746    1.086   .     S
C702   C704    1.385   .     A
C703   C705    1.385   .     A
C703   H747    1.086   .     S
C704   C710    1.395   .     A
C704   C706    1.413   .     A
C705   C712    1.395   .     A
C705   C707    1.413   .     A
C706   C708    1.415   .     A
C706   C1481   1.393   .     S
C707   C709    1.415   .     A
C707   C1480   1.393   1_554 S
C708   C722    1.409   .     A
C709   C711    1.409   .     A
C710   H748    1.083   .     S
C710   C1485   1.399   .     S
C711   O772    1.385   .     S
C711   C1484   1.399   1_554 S
C712   H749    1.083   .     S
C712   C1496   1.399   1_554 S
C713   O772    1.412   .     S
C713   H752    1.108   .     S
C713   H750    1.114   .     S
C713   H1525   1.111   1_554 S
C714   O760    1.412   .     S
C714   H732    1.108   .     S
C714   H731    1.114   .     S
C714   H1504   1.111   .     S
C715   H733    1.105   .     S
C715   H734    1.114   .     S
C715   O761    1.411   .     S
C716   O762    1.411   .     S
C716   H737    1.105   .     S
C716   H736    1.114   .     S
C716   H566    1.111   1_655 S
C717   H742    1.111   .     S
C717   H739    1.109   .     S
C717   O763    1.412   .     S
C717   H741    1.114   .     S
C718   H745    1.111   .     S
C718   H744    1.109   .     S
C718   O764    1.412   .     S
C718   H743    1.114   .     S
C719   N755    1.158   .     T
C720   N756    1.158   .     T
C721   N757    1.156   .     T
C722   O760    1.385   .     S
C722   C1486   1.399   .     S
C723   N758    1.156   .     T
C724   O761    1.381   .     S
C725   O762    1.381   .     S
C725   C728    1.400   .     A
C725   C555    1.389   1_655 S
C726   O763    1.387   .     S
C726   C728    1.400   .     A
C726   C552    1.389   1_655 S
C727   O764    1.387   .     S
H730   C1488   1.111   1_554 S
H735   C543    1.111   1_655 S
H751   C1487   1.111   .     S
N753   Zn773   2.023   .     S
N754   Zn774   2.023   .     S
O759   Zn773   1.999   .     S
O765   Zn774   1.999   .     S
O766   Zn773   2.005   .     S
O767   Zn774   2.005   .     S
O768   Zn773   1.999   .     S
O769   Zn774   1.999   .     S
O770   Zn773   2.013   .     S
O771   Zn774   2.013   .     S
C775   O845    1.284   .     A
C775   C776    1.422   .     S
C775   O853    1.291   .     A
C776   C813    1.400   .     A
C776   C810    1.400   .     A
C777   C805    1.444   .     S
C777   N840    1.367   .     A
C777   C1296   1.426   1_545 S
C778   N839    1.367   .     A
C778   C806    1.444   .     S
C778   C1037   1.426   .     S
C779   C807    1.438   .     S
C779   N840    1.372   .     A
C779   C1294   1.426   1_545 S
C780   C809    1.438   .     S
C780   N839    1.372   .     A
C780   C1035   1.426   .     S
C781   O857    1.289   .     A
C781   C787    1.421   .     S
C781   O854    1.288   .     A
C782   O856    1.289   .     A
C782   O855    1.288   .     A
C782   C785    1.421   .     S
C783   C794    1.390   .     A
C783   C785    1.390   .     A
C783   H815    1.078   .     S
C784   H826    1.078   .     S
C784   C795    1.390   .     A
C784   C787    1.390   .     A
C785   C788    1.388   .     A
C786   O852    1.291   .     A
C786   C814    1.422   .     S
C786   O851    1.284   .     A
C787   C789    1.388   .     A
C788   H832    1.086   .     S
C788   C790    1.385   .     A
C789   C791    1.385   .     A
C789   H833    1.086   .     S
C790   C796    1.395   .     A
C790   C792    1.413   .     A
C791   C798    1.395   .     A
C791   C793    1.413   .     A
C792   C794    1.415   .     A
C792   C19     1.393   1_556 S
C793   C795    1.415   .     A
C794   C808    1.409   .     A
C795   C797    1.409   .     A
C796   H834    1.083   .     S
C796   C23     1.399   1_556 S
C797   O858    1.385   .     S
C798   H835    1.083   .     S
C799   O858    1.412   .     S
C799   H838    1.108   .     S
C799   H836    1.114   .     S
C800   O846    1.412   .     S
C800   H818    1.108   .     S
C800   H817    1.114   .     S
C800   H42     1.111   1_556 S
C801   H819    1.105   .     S
C801   H820    1.114   .     S
C801   O847    1.411   .     S
C801   H993    1.111   1_455 S
C802   O848    1.411   .     S
C802   H823    1.105   .     S
C802   H822    1.114   .     S
C802   H910    1.111   .     S
C803   H828    1.111   .     S
C803   H825    1.109   .     S
C803   O849    1.412   .     S
C803   H827    1.114   .     S
C804   H831    1.111   .     S
C804   H830    1.109   .     S
C804   O850    1.412   .     S
C804   H829    1.114   .     S
C805   N841    1.158   .     T
C806   N842    1.158   .     T
C807   N843    1.156   .     T
C808   O846    1.385   .     S
C808   C24     1.399   1_556 S
C809   N844    1.156   .     T
C810   O847    1.381   .     S
C810   C984    1.389   1_455 S
C811   O848    1.381   .     S
C811   C814    1.400   .     A
C811   C899    1.389   .     S
C812   O849    1.387   .     S
C812   C814    1.400   .     A
C812   C896    1.389   .     S
C813   O850    1.387   .     S
C813   C983    1.389   1_455 S
H821   C887    1.111   .     S
H824   C974    1.111   1_455 S
H837   C25     1.111   1_556 S
N839   Zn859   2.023   .     S
N840   Zn860   2.023   .     S
O845   Zn859   1.999   .     S
O851   Zn860   1.999   .     S
O852   Zn859   2.005   .     S
O853   Zn860   2.005   .     S
O854   Zn859   1.999   .     S
O855   Zn860   1.999   .     S
O856   Zn859   2.013   .     S
O857   Zn860   2.013   .     S
C861   O931    1.284   .     A
C861   C862    1.422   .     S
C861   O939    1.291   .     A
C862   C899    1.400   .     A
C862   C896    1.400   .     A
C863   C891    1.444   .     S
C863   N926    1.367   .     A
C863   C1382   1.426   1_545 S
C864   N925    1.367   .     A
C864   C892    1.444   .     S
C864   C1123   1.426   .     S
C865   C893    1.438   .     S
C865   N926    1.372   .     A
C865   C1380   1.426   1_545 S
C866   C895    1.438   .     S
C866   N925    1.372   .     A
C866   C1121   1.426   .     S
C867   O943    1.289   .     A
C867   C873    1.421   .     S
C867   O940    1.288   .     A
C868   O942    1.289   .     A
C868   O941    1.288   .     A
C868   C871    1.421   .     S
C869   C880    1.390   .     A
C869   C871    1.390   .     A
C869   H901    1.078   .     S
C870   H912    1.078   .     S
C870   C881    1.390   .     A
C870   C873    1.390   .     A
C871   C874    1.388   .     A
C872   O938    1.291   .     A
C872   C900    1.422   .     S
C872   O937    1.284   .     A
C873   C875    1.388   .     A
C874   H918    1.086   .     S
C874   C876    1.385   .     A
C875   C877    1.385   .     A
C875   H919    1.086   .     S
C876   C882    1.395   .     A
C876   C878    1.413   .     A
C877   C884    1.395   .     A
C877   C879    1.413   .     A
C878   C880    1.415   .     A
C878   C105    1.393   1_556 S
C879   C881    1.415   .     A
C880   C894    1.409   .     A
C881   C883    1.409   .     A
C882   H920    1.083   .     S
C882   C109    1.399   1_556 S
C883   O944    1.385   .     S
C884   H921    1.083   .     S
C885   O944    1.412   .     S
C885   H924    1.108   .     S
C885   H922    1.114   .     S
C886   O932    1.412   .     S
C886   H904    1.108   .     S
C886   H903    1.114   .     S
C886   H128    1.111   1_556 S
C887   H905    1.105   .     S
C887   H906    1.114   .     S
C887   O933    1.411   .     S
C888   O934    1.411   .     S
C888   H909    1.105   .     S
C888   H908    1.114   .     S
C888   H996    1.111   .     S
C889   H914    1.111   .     S
C889   H911    1.109   .     S
C889   O935    1.412   .     S
C889   H913    1.114   .     S
C890   H917    1.111   .     S
C890   H916    1.109   .     S
C890   O936    1.412   .     S
C890   H915    1.114   .     S
C891   N927    1.158   .     T
C892   N928    1.158   .     T
C893   N929    1.156   .     T
C894   O932    1.385   .     S
C894   C110    1.399   1_556 S
C895   N930    1.156   .     T
C896   O933    1.381   .     S
C897   O934    1.381   .     S
C897   C900    1.400   .     A
C897   C985    1.389   .     S
C898   O935    1.387   .     S
C898   C900    1.400   .     A
C898   C982    1.389   .     S
C899   O936    1.387   .     S
H907   C973    1.111   .     S
H923   C111    1.111   1_556 S
N925   Zn945   2.023   .     S
N926   Zn946   2.023   .     S
O931   Zn945   1.999   .     S
O937   Zn946   1.999   .     S
O938   Zn945   2.005   .     S
O939   Zn946   2.005   .     S
O940   Zn945   1.999   .     S
O941   Zn946   1.999   .     S
O942   Zn945   2.013   .     S
O943   Zn946   2.013   .     S
C947   O1017   1.284   .     A
C947   C948    1.422   .     S
C947   O1025   1.291   .     A
C948   C985    1.400   .     A
C948   C982    1.400   .     A
C949   C977    1.444   .     S
C949   N1012   1.367   .     A
C949   C1468   1.426   1_545 S
C950   N1011   1.367   .     A
C950   C978    1.444   .     S
C950   C1209   1.426   .     S
C951   C979    1.438   .     S
C951   N1012   1.372   .     A
C951   C1466   1.426   1_545 S
C952   C981    1.438   .     S
C952   N1011   1.372   .     A
C952   C1207   1.426   .     S
C953   O1029   1.289   .     A
C953   C959    1.421   .     S
C953   O1026   1.288   .     A
C954   O1028   1.289   .     A
C954   O1027   1.288   .     A
C954   C957    1.421   .     S
C955   C966    1.390   .     A
C955   C957    1.390   .     A
C955   H987    1.078   .     S
C956   H998    1.078   .     S
C956   C967    1.390   .     A
C956   C959    1.390   .     A
C957   C960    1.388   .     A
C958   O1024   1.291   .     A
C958   C986    1.422   .     S
C958   O1023   1.284   .     A
C959   C961    1.388   .     A
C960   H1004   1.086   .     S
C960   C962    1.385   .     A
C961   C963    1.385   .     A
C961   H1005   1.086   .     S
C962   C968    1.395   .     A
C962   C964    1.413   .     A
C963   C970    1.395   .     A
C963   C965    1.413   .     A
C964   C966    1.415   .     A
C964   C191    1.393   1_556 S
C965   C967    1.415   .     A
C966   C980    1.409   .     A
C967   C969    1.409   .     A
C968   H1006   1.083   .     S
C968   C195    1.399   1_556 S
C969   O1030   1.385   .     S
C970   H1007   1.083   .     S
C971   O1030   1.412   .     S
C971   H1010   1.108   .     S
C971   H1008   1.114   .     S
C972   O1018   1.412   .     S
C972   H990    1.108   .     S
C972   H989    1.114   .     S
C972   H214    1.111   1_556 S
C973   H991    1.105   .     S
C973   H992    1.114   .     S
C973   O1019   1.411   .     S
C974   O1020   1.411   .     S
C974   H995    1.105   .     S
C974   H994    1.114   .     S
C974   H824    1.111   1_655 S
C975   H1000   1.111   .     S
C975   H997    1.109   .     S
C975   O1021   1.412   .     S
C975   H999    1.114   .     S
C976   H1003   1.111   .     S
C976   H1002   1.109   .     S
C976   O1022   1.412   .     S
C976   H1001   1.114   .     S
C977   N1013   1.158   .     T
C978   N1014   1.158   .     T
C979   N1015   1.156   .     T
C980   O1018   1.385   .     S
C980   C196    1.399   1_556 S
C981   N1016   1.156   .     T
C982   O1019   1.381   .     S
C983   O1020   1.381   .     S
C983   C986    1.400   .     A
C983   C813    1.389   1_655 S
C984   O1021   1.387   .     S
C984   C986    1.400   .     A
C984   C810    1.389   1_655 S
C985   O1022   1.387   .     S
H993   C801    1.111   1_655 S
H1009  C197    1.111   1_556 S
N1011  Zn1031  2.023   .     S
N1012  Zn1032  2.023   .     S
O1017  Zn1031  1.999   .     S
O1023  Zn1032  1.999   .     S
O1024  Zn1031  2.005   .     S
O1025  Zn1032  2.005   .     S
O1026  Zn1031  1.999   .     S
O1027  Zn1032  1.999   .     S
O1028  Zn1031  2.013   .     S
O1029  Zn1032  2.013   .     S
C1033  O1103   1.284   .     A
C1033  C1034   1.422   .     S
C1033  O1111   1.291   .     A
C1034  C1071   1.400   .     A
C1034  C1068   1.400   .     A
C1035  C1063   1.444   .     S
C1035  N1098   1.367   .     A
C1036  N1097   1.367   .     A
C1036  C1064   1.444   .     S
C1036  C1295   1.426   .     S
C1037  C1065   1.438   .     S
C1037  N1098   1.372   .     A
C1038  C1067   1.438   .     S
C1038  N1097   1.372   .     A
C1038  C1293   1.426   .     S
C1039  O1115   1.289   .     A
C1039  C1045   1.421   .     S
C1039  O1112   1.288   .     A
C1040  O1114   1.289   .     A
C1040  O1113   1.288   .     A
C1040  C1043   1.421   .     S
C1041  C1052   1.390   .     A
C1041  C1043   1.390   .     A
C1041  H1073   1.078   .     S
C1042  H1084   1.078   .     S
C1042  C1053   1.390   .     A
C1042  C1045   1.390   .     A
C1043  C1046   1.388   .     A
C1044  O1110   1.291   .     A
C1044  C1072   1.422   .     S
C1044  O1109   1.284   .     A
C1045  C1047   1.388   .     A
C1046  H1090   1.086   .     S
C1046  C1048   1.385   .     A
C1047  C1049   1.385   .     A
C1047  H1091   1.086   .     S
C1048  C1054   1.395   .     A
C1048  C1050   1.413   .     A
C1049  C1056   1.395   .     A
C1049  C1051   1.413   .     A
C1050  C1052   1.415   .     A
C1050  C277    1.393   1_556 S
C1051  C1053   1.415   .     A
C1052  C1066   1.409   .     A
C1053  C1055   1.409   .     A
C1054  H1092   1.083   .     S
C1054  C281    1.399   1_556 S
C1055  O1116   1.385   .     S
C1056  H1093   1.083   .     S
C1057  O1116   1.412   .     S
C1057  H1096   1.108   .     S
C1057  H1094   1.114   .     S
C1058  O1104   1.412   .     S
C1058  H1076   1.108   .     S
C1058  H1075   1.114   .     S
C1058  H300    1.111   1_556 S
C1059  H1077   1.105   .     S
C1059  H1078   1.114   .     S
C1059  O1105   1.411   .     S
C1059  H1251   1.111   1_455 S
C1060  O1106   1.411   .     S
C1060  H1081   1.105   .     S
C1060  H1080   1.114   .     S
C1060  H1168   1.111   .     S
C1061  H1086   1.111   .     S
C1061  H1083   1.109   .     S
C1061  O1107   1.412   .     S
C1061  H1085   1.114   .     S
C1062  H1089   1.111   .     S
C1062  H1088   1.109   .     S
C1062  O1108   1.412   .     S
C1062  H1087   1.114   .     S
C1063  N1099   1.158   .     T
C1064  N1100   1.158   .     T
C1065  N1101   1.156   .     T
C1066  O1104   1.385   .     S
C1066  C282    1.399   1_556 S
C1067  N1102   1.156   .     T
C1068  O1105   1.381   .     S
C1068  C1242   1.389   1_455 S
C1069  O1106   1.381   .     S
C1069  C1072   1.400   .     A
C1069  C1157   1.389   .     S
C1070  O1107   1.387   .     S
C1070  C1072   1.400   .     A
C1070  C1154   1.389   .     S
C1071  O1108   1.387   .     S
C1071  C1241   1.389   1_455 S
H1079  C1145   1.111   .     S
H1082  C1232   1.111   1_455 S
H1095  C283    1.111   1_556 S
N1097  Zn1117  2.023   .     S
N1098  Zn1118  2.023   .     S
O1103  Zn1117  1.999   .     S
O1109  Zn1118  1.999   .     S
O1110  Zn1117  2.005   .     S
O1111  Zn1118  2.005   .     S
O1112  Zn1117  1.999   .     S
O1113  Zn1118  1.999   .     S
O1114  Zn1117  2.013   .     S
O1115  Zn1118  2.013   .     S
C1119  O1189   1.284   .     A
C1119  C1120   1.422   .     S
C1119  O1197   1.291   .     A
C1120  C1157   1.400   .     A
C1120  C1154   1.400   .     A
C1121  C1149   1.444   .     S
C1121  N1184   1.367   .     A
C1122  N1183   1.367   .     A
C1122  C1150   1.444   .     S
C1122  C1381   1.426   .     S
C1123  C1151   1.438   .     S
C1123  N1184   1.372   .     A
C1124  C1153   1.438   .     S
C1124  N1183   1.372   .     A
C1124  C1379   1.426   .     S
C1125  O1201   1.289   .     A
C1125  C1131   1.421   .     S
C1125  O1198   1.288   .     A
C1126  O1200   1.289   .     A
C1126  O1199   1.288   .     A
C1126  C1129   1.421   .     S
C1127  C1138   1.390   .     A
C1127  C1129   1.390   .     A
C1127  H1159   1.078   .     S
C1128  H1170   1.078   .     S
C1128  C1139   1.390   .     A
C1128  C1131   1.390   .     A
C1129  C1132   1.388   .     A
C1130  O1196   1.291   .     A
C1130  C1158   1.422   .     S
C1130  O1195   1.284   .     A
C1131  C1133   1.388   .     A
C1132  H1176   1.086   .     S
C1132  C1134   1.385   .     A
C1133  C1135   1.385   .     A
C1133  H1177   1.086   .     S
C1134  C1140   1.395   .     A
C1134  C1136   1.413   .     A
C1135  C1142   1.395   .     A
C1135  C1137   1.413   .     A
C1136  C1138   1.415   .     A
C1136  C363    1.393   1_556 S
C1137  C1139   1.415   .     A
C1138  C1152   1.409   .     A
C1139  C1141   1.409   .     A
C1140  H1178   1.083   .     S
C1140  C367    1.399   1_556 S
C1141  O1202   1.385   .     S
C1142  H1179   1.083   .     S
C1143  O1202   1.412   .     S
C1143  H1182   1.108   .     S
C1143  H1180   1.114   .     S
C1144  O1190   1.412   .     S
C1144  H1162   1.108   .     S
C1144  H1161   1.114   .     S
C1144  H386    1.111   1_556 S
C1145  H1163   1.105   .     S
C1145  H1164   1.114   .     S
C1145  O1191   1.411   .     S
C1146  O1192   1.411   .     S
C1146  H1167   1.105   .     S
C1146  H1166   1.114   .     S
C1146  H1254   1.111   .     S
C1147  H1172   1.111   .     S
C1147  H1169   1.109   .     S
C1147  O1193   1.412   .     S
C1147  H1171   1.114   .     S
C1148  H1175   1.111   .     S
C1148  H1174   1.109   .     S
C1148  O1194   1.412   .     S
C1148  H1173   1.114   .     S
C1149  N1185   1.158   .     T
C1150  N1186   1.158   .     T
C1151  N1187   1.156   .     T
C1152  O1190   1.385   .     S
C1152  C368    1.399   1_556 S
C1153  N1188   1.156   .     T
C1154  O1191   1.381   .     S
C1155  O1192   1.381   .     S
C1155  C1158   1.400   .     A
C1155  C1243   1.389   .     S
C1156  O1193   1.387   .     S
C1156  C1158   1.400   .     A
C1156  C1240   1.389   .     S
C1157  O1194   1.387   .     S
H1165  C1231   1.111   .     S
H1181  C369    1.111   1_556 S
N1183  Zn1203  2.023   .     S
N1184  Zn1204  2.023   .     S
O1189  Zn1203  1.999   .     S
O1195  Zn1204  1.999   .     S
O1196  Zn1203  2.005   .     S
O1197  Zn1204  2.005   .     S
O1198  Zn1203  1.999   .     S
O1199  Zn1204  1.999   .     S
O1200  Zn1203  2.013   .     S
O1201  Zn1204  2.013   .     S
C1205  O1275   1.284   .     A
C1205  C1206   1.422   .     S
C1205  O1283   1.291   .     A
C1206  C1243   1.400   .     A
C1206  C1240   1.400   .     A
C1207  C1235   1.444   .     S
C1207  N1270   1.367   .     A
C1208  N1269   1.367   .     A
C1208  C1236   1.444   .     S
C1208  C1467   1.426   .     S
C1209  C1237   1.438   .     S
C1209  N1270   1.372   .     A
C1210  C1239   1.438   .     S
C1210  N1269   1.372   .     A
C1210  C1465   1.426   .     S
C1211  O1287   1.289   .     A
C1211  C1217   1.421   .     S
C1211  O1284   1.288   .     A
C1212  O1286   1.289   .     A
C1212  O1285   1.288   .     A
C1212  C1215   1.421   .     S
C1213  C1224   1.390   .     A
C1213  C1215   1.390   .     A
C1213  H1245   1.078   .     S
C1214  H1256   1.078   .     S
C1214  C1225   1.390   .     A
C1214  C1217   1.390   .     A
C1215  C1218   1.388   .     A
C1216  O1282   1.291   .     A
C1216  C1244   1.422   .     S
C1216  O1281   1.284   .     A
C1217  C1219   1.388   .     A
C1218  H1262   1.086   .     S
C1218  C1220   1.385   .     A
C1219  C1221   1.385   .     A
C1219  H1263   1.086   .     S
C1220  C1226   1.395   .     A
C1220  C1222   1.413   .     A
C1221  C1228   1.395   .     A
C1221  C1223   1.413   .     A
C1222  C1224   1.415   .     A
C1222  C449    1.393   1_556 S
C1223  C1225   1.415   .     A
C1224  C1238   1.409   .     A
C1225  C1227   1.409   .     A
C1226  H1264   1.083   .     S
C1226  C453    1.399   1_556 S
C1227  O1288   1.385   .     S
C1228  H1265   1.083   .     S
C1229  O1288   1.412   .     S
C1229  H1268   1.108   .     S
C1229  H1266   1.114   .     S
C1230  O1276   1.412   .     S
C1230  H1248   1.108   .     S
C1230  H1247   1.114   .     S
C1230  H472    1.111   1_556 S
C1231  H1249   1.105   .     S
C1231  H1250   1.114   .     S
C1231  O1277   1.411   .     S
C1232  O1278   1.411   .     S
C1232  H1253   1.105   .     S
C1232  H1252   1.114   .     S
C1232  H1082   1.111   1_655 S
C1233  H1258   1.111   .     S
C1233  H1255   1.109   .     S
C1233  O1279   1.412   .     S
C1233  H1257   1.114   .     S
C1234  H1261   1.111   .     S
C1234  H1260   1.109   .     S
C1234  O1280   1.412   .     S
C1234  H1259   1.114   .     S
C1235  N1271   1.158   .     T
C1236  N1272   1.158   .     T
C1237  N1273   1.156   .     T
C1238  O1276   1.385   .     S
C1238  C454    1.399   1_556 S
C1239  N1274   1.156   .     T
C1240  O1277   1.381   .     S
C1241  O1278   1.381   .     S
C1241  C1244   1.400   .     A
C1241  C1071   1.389   1_655 S
C1242  O1279   1.387   .     S
C1242  C1244   1.400   .     A
C1242  C1068   1.389   1_655 S
C1243  O1280   1.387   .     S
H1251  C1059   1.111   1_655 S
H1267  C455    1.111   1_556 S
N1269  Zn1289  2.023   .     S
N1270  Zn1290  2.023   .     S
O1275  Zn1289  1.999   .     S
O1281  Zn1290  1.999   .     S
O1282  Zn1289  2.005   .     S
O1283  Zn1290  2.005   .     S
O1284  Zn1289  1.999   .     S
O1285  Zn1290  1.999   .     S
O1286  Zn1289  2.013   .     S
O1287  Zn1290  2.013   .     S
C1291  O1361   1.284   .     A
C1291  C1292   1.422   .     S
C1291  O1369   1.291   .     A
C1292  C1329   1.400   .     A
C1292  C1326   1.400   .     A
C1293  C1321   1.444   .     S
C1293  N1356   1.367   .     A
C1294  N1355   1.367   .     A
C1294  C1322   1.444   .     S
C1294  C779    1.426   1_565 S
C1295  C1323   1.438   .     S
C1295  N1356   1.372   .     A
C1296  C1325   1.438   .     S
C1296  N1355   1.372   .     A
C1296  C777    1.426   1_565 S
C1297  O1373   1.289   .     A
C1297  C1303   1.421   .     S
C1297  O1370   1.288   .     A
C1298  O1372   1.289   .     A
C1298  O1371   1.288   .     A
C1298  C1301   1.421   .     S
C1299  C1310   1.390   .     A
C1299  C1301   1.390   .     A
C1299  H1331   1.078   .     S
C1300  H1342   1.078   .     S
C1300  C1311   1.390   .     A
C1300  C1303   1.390   .     A
C1301  C1304   1.388   .     A
C1302  O1368   1.291   .     A
C1302  C1330   1.422   .     S
C1302  O1367   1.284   .     A
C1303  C1305   1.388   .     A
C1304  H1348   1.086   .     S
C1304  C1306   1.385   .     A
C1305  C1307   1.385   .     A
C1305  H1349   1.086   .     S
C1306  C1312   1.395   .     A
C1306  C1308   1.413   .     A
C1307  C1314   1.395   .     A
C1307  C1309   1.413   .     A
C1308  C1310   1.415   .     A
C1308  C535    1.393   1_556 S
C1309  C1311   1.415   .     A
C1310  C1324   1.409   .     A
C1311  C1313   1.409   .     A
C1312  H1350   1.083   .     S
C1312  C539    1.399   1_556 S
C1313  O1374   1.385   .     S
C1314  H1351   1.083   .     S
C1315  O1374   1.412   .     S
C1315  H1354   1.108   .     S
C1315  H1352   1.114   .     S
C1316  O1362   1.412   .     S
C1316  H1334   1.108   .     S
C1316  H1333   1.114   .     S
C1316  H558    1.111   1_556 S
C1317  H1335   1.105   .     S
C1317  H1336   1.114   .     S
C1317  O1363   1.411   .     S
C1317  H1509   1.111   1_455 S
C1318  O1364   1.411   .     S
C1318  H1339   1.105   .     S
C1318  H1338   1.114   .     S
C1318  H1426   1.111   .     S
C1319  H1344   1.111   .     S
C1319  H1341   1.109   .     S
C1319  O1365   1.412   .     S
C1319  H1343   1.114   .     S
C1320  H1347   1.111   .     S
C1320  H1346   1.109   .     S
C1320  O1366   1.412   .     S
C1320  H1345   1.114   .     S
C1321  N1357   1.158   .     T
C1322  N1358   1.158   .     T
C1323  N1359   1.156   .     T
C1324  O1362   1.385   .     S
C1324  C540    1.399   1_556 S
C1325  N1360   1.156   .     T
C1326  O1363   1.381   .     S
C1326  C1500   1.389   1_455 S
C1327  O1364   1.381   .     S
C1327  C1330   1.400   .     A
C1327  C1415   1.389   .     S
C1328  O1365   1.387   .     S
C1328  C1330   1.400   .     A
C1328  C1412   1.389   .     S
C1329  O1366   1.387   .     S
C1329  C1499   1.389   1_455 S
H1337  C1403   1.111   .     S
H1340  C1490   1.111   1_455 S
H1353  C541    1.111   1_556 S
N1355  Zn1375  2.023   .     S
N1356  Zn1376  2.023   .     S
O1361  Zn1375  1.999   .     S
O1367  Zn1376  1.999   .     S
O1368  Zn1375  2.005   .     S
O1369  Zn1376  2.005   .     S
O1370  Zn1375  1.999   .     S
O1371  Zn1376  1.999   .     S
O1372  Zn1375  2.013   .     S
O1373  Zn1376  2.013   .     S
C1377  O1447   1.284   .     A
C1377  C1378   1.422   .     S
C1377  O1455   1.291   .     A
C1378  C1415   1.400   .     A
C1378  C1412   1.400   .     A
C1379  C1407   1.444   .     S
C1379  N1442   1.367   .     A
C1380  N1441   1.367   .     A
C1380  C1408   1.444   .     S
C1380  C865    1.426   1_565 S
C1381  C1409   1.438   .     S
C1381  N1442   1.372   .     A
C1382  C1411   1.438   .     S
C1382  N1441   1.372   .     A
C1382  C863    1.426   1_565 S
C1383  O1459   1.289   .     A
C1383  C1389   1.421   .     S
C1383  O1456   1.288   .     A
C1384  O1458   1.289   .     A
C1384  O1457   1.288   .     A
C1384  C1387   1.421   .     S
C1385  C1396   1.390   .     A
C1385  C1387   1.390   .     A
C1385  H1417   1.078   .     S
C1386  H1428   1.078   .     S
C1386  C1397   1.390   .     A
C1386  C1389   1.390   .     A
C1387  C1390   1.388   .     A
C1388  O1454   1.291   .     A
C1388  C1416   1.422   .     S
C1388  O1453   1.284   .     A
C1389  C1391   1.388   .     A
C1390  H1434   1.086   .     S
C1390  C1392   1.385   .     A
C1391  C1393   1.385   .     A
C1391  H1435   1.086   .     S
C1392  C1398   1.395   .     A
C1392  C1394   1.413   .     A
C1393  C1400   1.395   .     A
C1393  C1395   1.413   .     A
C1394  C1396   1.415   .     A
C1394  C621    1.393   1_556 S
C1395  C1397   1.415   .     A
C1396  C1410   1.409   .     A
C1397  C1399   1.409   .     A
C1398  H1436   1.083   .     S
C1398  C625    1.399   1_556 S
C1399  O1460   1.385   .     S
C1400  H1437   1.083   .     S
C1401  O1460   1.412   .     S
C1401  H1440   1.108   .     S
C1401  H1438   1.114   .     S
C1402  O1448   1.412   .     S
C1402  H1420   1.108   .     S
C1402  H1419   1.114   .     S
C1402  H644    1.111   1_556 S
C1403  H1421   1.105   .     S
C1403  H1422   1.114   .     S
C1403  O1449   1.411   .     S
C1404  O1450   1.411   .     S
C1404  H1425   1.105   .     S
C1404  H1424   1.114   .     S
C1404  H1512   1.111   .     S
C1405  H1430   1.111   .     S
C1405  H1427   1.109   .     S
C1405  O1451   1.412   .     S
C1405  H1429   1.114   .     S
C1406  H1433   1.111   .     S
C1406  H1432   1.109   .     S
C1406  O1452   1.412   .     S
C1406  H1431   1.114   .     S
C1407  N1443   1.158   .     T
C1408  N1444   1.158   .     T
C1409  N1445   1.156   .     T
C1410  O1448   1.385   .     S
C1410  C626    1.399   1_556 S
C1411  N1446   1.156   .     T
C1412  O1449   1.381   .     S
C1413  O1450   1.381   .     S
C1413  C1416   1.400   .     A
C1413  C1501   1.389   .     S
C1414  O1451   1.387   .     S
C1414  C1416   1.400   .     A
C1414  C1498   1.389   .     S
C1415  O1452   1.387   .     S
H1423  C1489   1.111   .     S
H1439  C627    1.111   1_556 S
N1441  Zn1461  2.023   .     S
N1442  Zn1462  2.023   .     S
O1447  Zn1461  1.999   .     S
O1453  Zn1462  1.999   .     S
O1454  Zn1461  2.005   .     S
O1455  Zn1462  2.005   .     S
O1456  Zn1461  1.999   .     S
O1457  Zn1462  1.999   .     S
O1458  Zn1461  2.013   .     S
O1459  Zn1462  2.013   .     S
C1463  O1533   1.284   .     A
C1463  C1464   1.422   .     S
C1463  O1541   1.291   .     A
C1464  C1501   1.400   .     A
C1464  C1498   1.400   .     A
C1465  C1493   1.444   .     S
C1465  N1528   1.367   .     A
C1466  N1527   1.367   .     A
C1466  C1494   1.444   .     S
C1466  C951    1.426   1_565 S
C1467  C1495   1.438   .     S
C1467  N1528   1.372   .     A
C1468  C1497   1.438   .     S
C1468  N1527   1.372   .     A
C1468  C949    1.426   1_565 S
C1469  O1545   1.289   .     A
C1469  C1475   1.421   .     S
C1469  O1542   1.288   .     A
C1470  O1544   1.289   .     A
C1470  O1543   1.288   .     A
C1470  C1473   1.421   .     S
C1471  C1482   1.390   .     A
C1471  C1473   1.390   .     A
C1471  H1503   1.078   .     S
C1472  H1514   1.078   .     S
C1472  C1483   1.390   .     A
C1472  C1475   1.390   .     A
C1473  C1476   1.388   .     A
C1474  O1540   1.291   .     A
C1474  C1502   1.422   .     S
C1474  O1539   1.284   .     A
C1475  C1477   1.388   .     A
C1476  H1520   1.086   .     S
C1476  C1478   1.385   .     A
C1477  C1479   1.385   .     A
C1477  H1521   1.086   .     S
C1478  C1484   1.395   .     A
C1478  C1480   1.413   .     A
C1479  C1486   1.395   .     A
C1479  C1481   1.413   .     A
C1480  C1482   1.415   .     A
C1480  C707    1.393   1_556 S
C1481  C1483   1.415   .     A
C1482  C1496   1.409   .     A
C1483  C1485   1.409   .     A
C1484  H1522   1.083   .     S
C1484  C711    1.399   1_556 S
C1485  O1546   1.385   .     S
C1486  H1523   1.083   .     S
C1487  O1546   1.412   .     S
C1487  H1526   1.108   .     S
C1487  H1524   1.114   .     S
C1488  O1534   1.412   .     S
C1488  H1506   1.108   .     S
C1488  H1505   1.114   .     S
C1488  H730    1.111   1_556 S
C1489  H1507   1.105   .     S
C1489  H1508   1.114   .     S
C1489  O1535   1.411   .     S
C1490  O1536   1.411   .     S
C1490  H1511   1.105   .     S
C1490  H1510   1.114   .     S
C1490  H1340   1.111   1_655 S
C1491  H1516   1.111   .     S
C1491  H1513   1.109   .     S
C1491  O1537   1.412   .     S
C1491  H1515   1.114   .     S
C1492  H1519   1.111   .     S
C1492  H1518   1.109   .     S
C1492  O1538   1.412   .     S
C1492  H1517   1.114   .     S
C1493  N1529   1.158   .     T
C1494  N1530   1.158   .     T
C1495  N1531   1.156   .     T
C1496  O1534   1.385   .     S
C1496  C712    1.399   1_556 S
C1497  N1532   1.156   .     T
C1498  O1535   1.381   .     S
C1499  O1536   1.381   .     S
C1499  C1502   1.400   .     A
C1499  C1329   1.389   1_655 S
C1500  O1537   1.387   .     S
C1500  C1502   1.400   .     A
C1500  C1326   1.389   1_655 S
C1501  O1538   1.387   .     S
H1509  C1317   1.111   1_655 S
H1525  C713    1.111   1_556 S
N1527  Zn1547  2.023   .     S
N1528  Zn1548  2.023   .     S
O1533  Zn1547  1.999   .     S
O1539  Zn1548  1.999   .     S
O1540  Zn1547  2.005   .     S
O1541  Zn1548  2.005   .     S
O1542  Zn1547  1.999   .     S
O1543  Zn1548  1.999   .     S
O1544  Zn1547  2.013   .     S
O1545  Zn1548  2.013   .     S
