data_str_m2_o10_o17_pcu_sym.168
_audit_creation_date              2020-01-03
_audit_creation_method            'Materials Studio'
_symmetry_space_group_name_H-M    'P1'
_symmetry_Int_Tables_number       1
_symmetry_cell_setting            triclinic
loop_
_symmetry_equiv_pos_as_xyz
  x,y,z
_cell_length_a                    29.9635
_cell_length_b                    26.1278
_cell_length_c                    22.5123
_cell_angle_alpha                 102.7233
_cell_angle_beta                  94.6551
_cell_angle_gamma                 93.4844
loop_
_atom_site_label
_atom_site_type_symbol
_atom_site_fract_x
_atom_site_fract_y
_atom_site_fract_z
_atom_site_U_iso_or_equiv
_atom_site_adp_type
_atom_site_occupancy
C1     C     0.24795   0.06681   0.15153   0.00000  Uiso   1.00
C2     C     0.25205   0.26652   0.18180   0.00000  Uiso   1.00
C3     C     0.01600   0.07636   0.10626   0.00000  Uiso   1.00
C4     C     0.48400   0.25697   0.22707   0.00000  Uiso   1.00
C5     C     0.24073   0.01138   0.14502   0.00000  Uiso   1.00
C6     C     0.25927   0.32195   0.18831   0.00000  Uiso   1.00
C7     C     0.16471   0.16722   0.16731   0.00000  Uiso   1.00
C8     C     0.33529   0.16612   0.16603   0.00000  Uiso   1.00
C9     C     0.41009   0.21000   0.19593   0.00000  Uiso   1.00
C10    C     0.08990   0.12333   0.13740   0.00000  Uiso   1.00
C11    C     0.38333   0.16526   0.16469   0.00000  Uiso   1.00
C12    C     0.11667   0.16807   0.16864   0.00000  Uiso   1.00
C13    C     0.40219   0.12040   0.13362   0.00000  Uiso   1.00
C14    C     0.09781   0.21293   0.19972   0.00000  Uiso   1.00
C15    C     0.44918   0.12062   0.13459   0.00000  Uiso   1.00
C16    C     0.05082   0.21271   0.19875   0.00000  Uiso   1.00
C17    C     0.47646   0.16637   0.16612   0.00000  Uiso   1.00
C18    C     0.02353   0.16697   0.16721   0.00000  Uiso   1.00
C19    C     0.45671   0.21150   0.19661   0.00000  Uiso   1.00
C20    C     0.04329   0.12184   0.13673   0.00000  Uiso   1.00
C21    C     0.46951   0.07613   0.10522   0.00000  Uiso   1.00
C22    C     0.03049   0.25720   0.22811   0.00000  Uiso   1.00
Cu23   Cu    0.25500   0.17246   0.22813   0.00000  Uiso   1.00
Cu24   Cu    0.24499   0.16087   0.10521   0.00000  Uiso   1.00
H25    H     0.39390   0.24366   0.21923   0.00000  Uiso   1.00
H26    H     0.10610   0.08968   0.11410   0.00000  Uiso   1.00
N27    N     0.23744   0.15214   0.01284   0.00000  Uiso   1.00
N28    N     0.26255   0.18119   0.32049   0.00000  Uiso   1.00
O29    O     0.25325   0.09538   0.20659   0.00000  Uiso   1.00
O30    O     0.24674   0.23796   0.12674   0.00000  Uiso   1.00
O31    O     0.24480   0.08559   0.10279   0.00000  Uiso   1.00
O32    O     0.25520   0.24774   0.23055   0.00000  Uiso   1.00
O33    O     0.18935   0.17155   0.21857   0.00000  Uiso   1.00
O34    O     0.31064   0.16179   0.11476   0.00000  Uiso   1.00
O35    O     0.18090   0.16176   0.11477   0.00000  Uiso   1.00
O36    O     0.31910   0.17157   0.21857   0.00000  Uiso   1.00
Cl37   Cl    0.36653   0.06386   0.09605   0.00000  Uiso   1.00
Cl38   Cl    0.13347   0.26948   0.23729   0.00000  Uiso   1.00
H39    H     0.44963   0.04056   0.08122   0.00000  Uiso   1.00
H40    H     0.05037   0.29277   0.25211   0.00000  Uiso   1.00
Cl41   Cl    0.03841   0.01813   0.06921   0.00000  Uiso   1.00
Cl42   Cl    0.46159   0.31520   0.26413   0.00000  Uiso   1.00
Cl43   Cl    0.20063   0.31200   0.08377   0.00000  Uiso   1.00
Cl44   Cl    0.29937   0.02133   0.24957   0.00000  Uiso   1.00
Cl45   Cl    0.19714   0.10605   0.30267   0.00000  Uiso   1.00
Cl46   Cl    0.30286   0.22729   0.03066   0.00000  Uiso   1.00
C47    C     0.74795   0.06681   0.15153   0.00000  Uiso   1.00
C48    C     0.75205   0.26652   0.18180   0.00000  Uiso   1.00
C49    C     0.51600   0.07636   0.10626   0.00000  Uiso   1.00
C50    C     0.98400   0.25697   0.22707   0.00000  Uiso   1.00
C51    C     0.74073   0.01138   0.14502   0.00000  Uiso   1.00
C52    C     0.75927   0.32195   0.18831   0.00000  Uiso   1.00
C53    C     0.66471   0.16722   0.16731   0.00000  Uiso   1.00
C54    C     0.83529   0.16612   0.16603   0.00000  Uiso   1.00
C55    C     0.91009   0.21000   0.19593   0.00000  Uiso   1.00
C56    C     0.58990   0.12333   0.13740   0.00000  Uiso   1.00
C57    C     0.88333   0.16526   0.16469   0.00000  Uiso   1.00
C58    C     0.61667   0.16807   0.16864   0.00000  Uiso   1.00
C59    C     0.90219   0.12040   0.13362   0.00000  Uiso   1.00
C60    C     0.59781   0.21293   0.19972   0.00000  Uiso   1.00
C61    C     0.94918   0.12062   0.13459   0.00000  Uiso   1.00
C62    C     0.55082   0.21271   0.19875   0.00000  Uiso   1.00
C63    C     0.97646   0.16637   0.16612   0.00000  Uiso   1.00
C64    C     0.52353   0.16697   0.16721   0.00000  Uiso   1.00
C65    C     0.95671   0.21150   0.19661   0.00000  Uiso   1.00
C66    C     0.54329   0.12184   0.13673   0.00000  Uiso   1.00
C67    C     0.96951   0.07613   0.10522   0.00000  Uiso   1.00
C68    C     0.53049   0.25720   0.22811   0.00000  Uiso   1.00
Cu69   Cu    0.75500   0.17246   0.22813   0.00000  Uiso   1.00
Cu70   Cu    0.74499   0.16087   0.10521   0.00000  Uiso   1.00
H71    H     0.89390   0.24366   0.21923   0.00000  Uiso   1.00
H72    H     0.60610   0.08968   0.11410   0.00000  Uiso   1.00
N73    N     0.73744   0.15214   0.01284   0.00000  Uiso   1.00
N74    N     0.76255   0.18119   0.32049   0.00000  Uiso   1.00
O75    O     0.75325   0.09538   0.20659   0.00000  Uiso   1.00
O76    O     0.74674   0.23796   0.12674   0.00000  Uiso   1.00
O77    O     0.74480   0.08559   0.10279   0.00000  Uiso   1.00
O78    O     0.75520   0.24774   0.23055   0.00000  Uiso   1.00
O79    O     0.68935   0.17155   0.21857   0.00000  Uiso   1.00
O80    O     0.81064   0.16179   0.11476   0.00000  Uiso   1.00
O81    O     0.68090   0.16176   0.11477   0.00000  Uiso   1.00
O82    O     0.81910   0.17157   0.21857   0.00000  Uiso   1.00
Cl83   Cl    0.86653   0.06386   0.09605   0.00000  Uiso   1.00
Cl84   Cl    0.63347   0.26948   0.23729   0.00000  Uiso   1.00
H85    H     0.94963   0.04056   0.08122   0.00000  Uiso   1.00
H86    H     0.55037   0.29277   0.25211   0.00000  Uiso   1.00
Cl87   Cl    0.53841   0.01813   0.06921   0.00000  Uiso   1.00
Cl88   Cl    0.96159   0.31520   0.26413   0.00000  Uiso   1.00
Cl89   Cl    0.70063   0.31200   0.08377   0.00000  Uiso   1.00
Cl90   Cl    0.79937   0.02133   0.24957   0.00000  Uiso   1.00
Cl91   Cl    0.69714   0.10605   0.30267   0.00000  Uiso   1.00
Cl92   Cl    0.80286   0.22729   0.03066   0.00000  Uiso   1.00
C93    C     0.24795   0.40014   0.15153   0.00000  Uiso   1.00
C94    C     0.25205   0.59986   0.18180   0.00000  Uiso   1.00
C95    C     0.01600   0.40970   0.10626   0.00000  Uiso   1.00
C96    C     0.48400   0.59030   0.22707   0.00000  Uiso   1.00
C97    C     0.24073   0.34471   0.14502   0.00000  Uiso   1.00
C98    C     0.25927   0.65529   0.18831   0.00000  Uiso   1.00
C99    C     0.16471   0.50055   0.16731   0.00000  Uiso   1.00
C100   C     0.33529   0.49945   0.16603   0.00000  Uiso   1.00
C101   C     0.41009   0.54333   0.19593   0.00000  Uiso   1.00
C102   C     0.08990   0.45667   0.13740   0.00000  Uiso   1.00
C103   C     0.38333   0.49860   0.16469   0.00000  Uiso   1.00
C104   C     0.11667   0.50140   0.16864   0.00000  Uiso   1.00
C105   C     0.40219   0.45373   0.13362   0.00000  Uiso   1.00
C106   C     0.09781   0.54627   0.19972   0.00000  Uiso   1.00
C107   C     0.44918   0.45395   0.13459   0.00000  Uiso   1.00
C108   C     0.05082   0.54605   0.19875   0.00000  Uiso   1.00
C109   C     0.47646   0.49970   0.16612   0.00000  Uiso   1.00
C110   C     0.02353   0.50030   0.16721   0.00000  Uiso   1.00
C111   C     0.45671   0.54483   0.19661   0.00000  Uiso   1.00
C112   C     0.04329   0.45517   0.13673   0.00000  Uiso   1.00
C113   C     0.46951   0.40947   0.10522   0.00000  Uiso   1.00
C114   C     0.03049   0.59053   0.22811   0.00000  Uiso   1.00
Cu115  Cu    0.25500   0.50579   0.22813   0.00000  Uiso   1.00
Cu116  Cu    0.24499   0.49421   0.10521   0.00000  Uiso   1.00
H117   H     0.39390   0.57699   0.21923   0.00000  Uiso   1.00
H118   H     0.10610   0.42301   0.11410   0.00000  Uiso   1.00
N119   N     0.23744   0.48547   0.01284   0.00000  Uiso   1.00
N120   N     0.26255   0.51453   0.32049   0.00000  Uiso   1.00
O121   O     0.25325   0.42871   0.20659   0.00000  Uiso   1.00
O122   O     0.24674   0.57129   0.12674   0.00000  Uiso   1.00
O123   O     0.24480   0.41892   0.10279   0.00000  Uiso   1.00
O124   O     0.25520   0.58108   0.23055   0.00000  Uiso   1.00
O125   O     0.18935   0.50488   0.21857   0.00000  Uiso   1.00
O126   O     0.31064   0.49512   0.11476   0.00000  Uiso   1.00
O127   O     0.18090   0.49510   0.11477   0.00000  Uiso   1.00
O128   O     0.31910   0.50490   0.21857   0.00000  Uiso   1.00
Cl129  Cl    0.36653   0.39719   0.09605   0.00000  Uiso   1.00
Cl130  Cl    0.13347   0.60281   0.23729   0.00000  Uiso   1.00
H131   H     0.44963   0.37390   0.08122   0.00000  Uiso   1.00
H132   H     0.05037   0.62610   0.25211   0.00000  Uiso   1.00
Cl133  Cl    0.03841   0.35147   0.06921   0.00000  Uiso   1.00
Cl134  Cl    0.46159   0.64853   0.26413   0.00000  Uiso   1.00
Cl135  Cl    0.20063   0.64534   0.08377   0.00000  Uiso   1.00
Cl136  Cl    0.29937   0.35466   0.24957   0.00000  Uiso   1.00
Cl137  Cl    0.19714   0.43938   0.30267   0.00000  Uiso   1.00
Cl138  Cl    0.30286   0.56062   0.03066   0.00000  Uiso   1.00
C139   C     0.74795   0.40014   0.15153   0.00000  Uiso   1.00
C140   C     0.75205   0.59986   0.18180   0.00000  Uiso   1.00
C141   C     0.51600   0.40970   0.10626   0.00000  Uiso   1.00
C142   C     0.98400   0.59030   0.22707   0.00000  Uiso   1.00
C143   C     0.74073   0.34471   0.14502   0.00000  Uiso   1.00
C144   C     0.75927   0.65529   0.18831   0.00000  Uiso   1.00
C145   C     0.66471   0.50055   0.16731   0.00000  Uiso   1.00
C146   C     0.83529   0.49945   0.16603   0.00000  Uiso   1.00
C147   C     0.91009   0.54333   0.19593   0.00000  Uiso   1.00
C148   C     0.58990   0.45667   0.13740   0.00000  Uiso   1.00
C149   C     0.88333   0.49860   0.16469   0.00000  Uiso   1.00
C150   C     0.61667   0.50140   0.16864   0.00000  Uiso   1.00
C151   C     0.90219   0.45373   0.13362   0.00000  Uiso   1.00
C152   C     0.59781   0.54627   0.19972   0.00000  Uiso   1.00
C153   C     0.94918   0.45395   0.13459   0.00000  Uiso   1.00
C154   C     0.55082   0.54605   0.19875   0.00000  Uiso   1.00
C155   C     0.97646   0.49970   0.16612   0.00000  Uiso   1.00
C156   C     0.52353   0.50030   0.16721   0.00000  Uiso   1.00
C157   C     0.95671   0.54483   0.19661   0.00000  Uiso   1.00
C158   C     0.54329   0.45517   0.13673   0.00000  Uiso   1.00
C159   C     0.96951   0.40947   0.10522   0.00000  Uiso   1.00
C160   C     0.53049   0.59053   0.22811   0.00000  Uiso   1.00
Cu161  Cu    0.75500   0.50579   0.22813   0.00000  Uiso   1.00
Cu162  Cu    0.74499   0.49421   0.10521   0.00000  Uiso   1.00
H163   H     0.89390   0.57699   0.21923   0.00000  Uiso   1.00
H164   H     0.60610   0.42301   0.11410   0.00000  Uiso   1.00
N165   N     0.73744   0.48547   0.01284   0.00000  Uiso   1.00
N166   N     0.76255   0.51453   0.32049   0.00000  Uiso   1.00
O167   O     0.75325   0.42871   0.20659   0.00000  Uiso   1.00
O168   O     0.74674   0.57129   0.12674   0.00000  Uiso   1.00
O169   O     0.74480   0.41892   0.10279   0.00000  Uiso   1.00
O170   O     0.75520   0.58108   0.23055   0.00000  Uiso   1.00
O171   O     0.68935   0.50488   0.21857   0.00000  Uiso   1.00
O172   O     0.81064   0.49512   0.11476   0.00000  Uiso   1.00
O173   O     0.68090   0.49510   0.11477   0.00000  Uiso   1.00
O174   O     0.81910   0.50490   0.21857   0.00000  Uiso   1.00
Cl175  Cl    0.86653   0.39719   0.09605   0.00000  Uiso   1.00
Cl176  Cl    0.63347   0.60281   0.23729   0.00000  Uiso   1.00
H177   H     0.94963   0.37390   0.08122   0.00000  Uiso   1.00
H178   H     0.55037   0.62610   0.25211   0.00000  Uiso   1.00
Cl179  Cl    0.53841   0.35147   0.06921   0.00000  Uiso   1.00
Cl180  Cl    0.96159   0.64853   0.26413   0.00000  Uiso   1.00
Cl181  Cl    0.70063   0.64534   0.08377   0.00000  Uiso   1.00
Cl182  Cl    0.79937   0.35466   0.24957   0.00000  Uiso   1.00
Cl183  Cl    0.69714   0.43938   0.30267   0.00000  Uiso   1.00
Cl184  Cl    0.80286   0.56062   0.03066   0.00000  Uiso   1.00
C185   C     0.24795   0.73348   0.15153   0.00000  Uiso   1.00
C186   C     0.25205   0.93319   0.18180   0.00000  Uiso   1.00
C187   C     0.01600   0.74303   0.10626   0.00000  Uiso   1.00
C188   C     0.48400   0.92364   0.22707   0.00000  Uiso   1.00
C189   C     0.24073   0.67805   0.14502   0.00000  Uiso   1.00
C190   C     0.25927   0.98862   0.18831   0.00000  Uiso   1.00
C191   C     0.16471   0.83388   0.16731   0.00000  Uiso   1.00
C192   C     0.33529   0.83279   0.16603   0.00000  Uiso   1.00
C193   C     0.41009   0.87667   0.19593   0.00000  Uiso   1.00
C194   C     0.08990   0.79000   0.13740   0.00000  Uiso   1.00
C195   C     0.38333   0.83193   0.16469   0.00000  Uiso   1.00
C196   C     0.11667   0.83474   0.16864   0.00000  Uiso   1.00
C197   C     0.40219   0.78707   0.13362   0.00000  Uiso   1.00
C198   C     0.09781   0.87960   0.19972   0.00000  Uiso   1.00
C199   C     0.44918   0.78729   0.13459   0.00000  Uiso   1.00
C200   C     0.05082   0.87938   0.19875   0.00000  Uiso   1.00
C201   C     0.47646   0.83303   0.16612   0.00000  Uiso   1.00
C202   C     0.02353   0.83363   0.16721   0.00000  Uiso   1.00
C203   C     0.45671   0.87816   0.19661   0.00000  Uiso   1.00
C204   C     0.04329   0.78850   0.13673   0.00000  Uiso   1.00
C205   C     0.46951   0.74280   0.10522   0.00000  Uiso   1.00
C206   C     0.03049   0.92387   0.22811   0.00000  Uiso   1.00
Cu207  Cu    0.25500   0.83913   0.22813   0.00000  Uiso   1.00
Cu208  Cu    0.24499   0.82754   0.10521   0.00000  Uiso   1.00
H209   H     0.39390   0.91032   0.21923   0.00000  Uiso   1.00
H210   H     0.10610   0.75635   0.11410   0.00000  Uiso   1.00
N211   N     0.23744   0.81881   0.01284   0.00000  Uiso   1.00
N212   N     0.26255   0.84786   0.32049   0.00000  Uiso   1.00
O213   O     0.25325   0.76204   0.20659   0.00000  Uiso   1.00
O214   O     0.24674   0.90462   0.12674   0.00000  Uiso   1.00
O215   O     0.24480   0.75226   0.10279   0.00000  Uiso   1.00
O216   O     0.25520   0.91441   0.23055   0.00000  Uiso   1.00
O217   O     0.18935   0.83821   0.21857   0.00000  Uiso   1.00
O218   O     0.31064   0.82845   0.11476   0.00000  Uiso   1.00
O219   O     0.18090   0.82843   0.11477   0.00000  Uiso   1.00
O220   O     0.31910   0.83824   0.21857   0.00000  Uiso   1.00
Cl221  Cl    0.36653   0.73052   0.09605   0.00000  Uiso   1.00
Cl222  Cl    0.13347   0.93614   0.23729   0.00000  Uiso   1.00
H223   H     0.44963   0.70723   0.08122   0.00000  Uiso   1.00
H224   H     0.05037   0.95944   0.25211   0.00000  Uiso   1.00
Cl225  Cl    0.03841   0.68480   0.06921   0.00000  Uiso   1.00
Cl226  Cl    0.46159   0.98187   0.26413   0.00000  Uiso   1.00
Cl227  Cl    0.20063   0.97867   0.08377   0.00000  Uiso   1.00
Cl228  Cl    0.29937   0.68800   0.24957   0.00000  Uiso   1.00
Cl229  Cl    0.19714   0.77272   0.30267   0.00000  Uiso   1.00
Cl230  Cl    0.30286   0.89395   0.03066   0.00000  Uiso   1.00
C231   C     0.74795   0.73348   0.15153   0.00000  Uiso   1.00
C232   C     0.75205   0.93319   0.18180   0.00000  Uiso   1.00
C233   C     0.51600   0.74303   0.10626   0.00000  Uiso   1.00
C234   C     0.98400   0.92364   0.22707   0.00000  Uiso   1.00
C235   C     0.74073   0.67805   0.14502   0.00000  Uiso   1.00
C236   C     0.75927   0.98862   0.18831   0.00000  Uiso   1.00
C237   C     0.66471   0.83388   0.16731   0.00000  Uiso   1.00
C238   C     0.83529   0.83279   0.16603   0.00000  Uiso   1.00
C239   C     0.91009   0.87667   0.19593   0.00000  Uiso   1.00
C240   C     0.58990   0.79000   0.13740   0.00000  Uiso   1.00
C241   C     0.88333   0.83193   0.16469   0.00000  Uiso   1.00
C242   C     0.61667   0.83474   0.16864   0.00000  Uiso   1.00
C243   C     0.90219   0.78707   0.13362   0.00000  Uiso   1.00
C244   C     0.59781   0.87960   0.19972   0.00000  Uiso   1.00
C245   C     0.94918   0.78729   0.13459   0.00000  Uiso   1.00
C246   C     0.55082   0.87938   0.19875   0.00000  Uiso   1.00
C247   C     0.97646   0.83303   0.16612   0.00000  Uiso   1.00
C248   C     0.52353   0.83363   0.16721   0.00000  Uiso   1.00
C249   C     0.95671   0.87816   0.19661   0.00000  Uiso   1.00
C250   C     0.54329   0.78850   0.13673   0.00000  Uiso   1.00
C251   C     0.96951   0.74280   0.10522   0.00000  Uiso   1.00
C252   C     0.53049   0.92387   0.22811   0.00000  Uiso   1.00
Cu253  Cu    0.75500   0.83913   0.22813   0.00000  Uiso   1.00
Cu254  Cu    0.74499   0.82754   0.10521   0.00000  Uiso   1.00
H255   H     0.89390   0.91032   0.21923   0.00000  Uiso   1.00
H256   H     0.60610   0.75635   0.11410   0.00000  Uiso   1.00
N257   N     0.73744   0.81881   0.01284   0.00000  Uiso   1.00
N258   N     0.76255   0.84786   0.32049   0.00000  Uiso   1.00
O259   O     0.75325   0.76204   0.20659   0.00000  Uiso   1.00
O260   O     0.74674   0.90462   0.12674   0.00000  Uiso   1.00
O261   O     0.74480   0.75226   0.10279   0.00000  Uiso   1.00
O262   O     0.75520   0.91441   0.23055   0.00000  Uiso   1.00
O263   O     0.68935   0.83821   0.21857   0.00000  Uiso   1.00
O264   O     0.81064   0.82845   0.11476   0.00000  Uiso   1.00
O265   O     0.68090   0.82843   0.11477   0.00000  Uiso   1.00
O266   O     0.81910   0.83824   0.21857   0.00000  Uiso   1.00
Cl267  Cl    0.86653   0.73052   0.09605   0.00000  Uiso   1.00
Cl268  Cl    0.63347   0.93614   0.23729   0.00000  Uiso   1.00
H269   H     0.94963   0.70723   0.08122   0.00000  Uiso   1.00
H270   H     0.55037   0.95944   0.25211   0.00000  Uiso   1.00
Cl271  Cl    0.53841   0.68480   0.06921   0.00000  Uiso   1.00
Cl272  Cl    0.96159   0.98187   0.26413   0.00000  Uiso   1.00
Cl273  Cl    0.70063   0.97867   0.08377   0.00000  Uiso   1.00
Cl274  Cl    0.79937   0.68800   0.24957   0.00000  Uiso   1.00
Cl275  Cl    0.69714   0.77272   0.30267   0.00000  Uiso   1.00
Cl276  Cl    0.80286   0.89395   0.03066   0.00000  Uiso   1.00
C277   C     0.24795   0.06681   0.48486   0.00000  Uiso   1.00
C278   C     0.25205   0.26652   0.51514   0.00000  Uiso   1.00
C279   C     0.01600   0.07636   0.43960   0.00000  Uiso   1.00
C280   C     0.48400   0.25697   0.56040   0.00000  Uiso   1.00
C281   C     0.24073   0.01138   0.47835   0.00000  Uiso   1.00
C282   C     0.25927   0.32195   0.52165   0.00000  Uiso   1.00
C283   C     0.16471   0.16722   0.50064   0.00000  Uiso   1.00
C284   C     0.33529   0.16612   0.49936   0.00000  Uiso   1.00
C285   C     0.41009   0.21000   0.52926   0.00000  Uiso   1.00
C286   C     0.08990   0.12333   0.47074   0.00000  Uiso   1.00
C287   C     0.38333   0.16526   0.49802   0.00000  Uiso   1.00
C288   C     0.11667   0.16807   0.50198   0.00000  Uiso   1.00
C289   C     0.40219   0.12040   0.46695   0.00000  Uiso   1.00
C290   C     0.09781   0.21293   0.53305   0.00000  Uiso   1.00
C291   C     0.44918   0.12062   0.46792   0.00000  Uiso   1.00
C292   C     0.05082   0.21271   0.53208   0.00000  Uiso   1.00
C293   C     0.47646   0.16637   0.49945   0.00000  Uiso   1.00
C294   C     0.02353   0.16697   0.50055   0.00000  Uiso   1.00
C295   C     0.45671   0.21150   0.52994   0.00000  Uiso   1.00
C296   C     0.04329   0.12184   0.47006   0.00000  Uiso   1.00
C297   C     0.46951   0.07613   0.43855   0.00000  Uiso   1.00
C298   C     0.03049   0.25720   0.56145   0.00000  Uiso   1.00
Cu299  Cu    0.25500   0.17246   0.56146   0.00000  Uiso   1.00
Cu300  Cu    0.24499   0.16087   0.43854   0.00000  Uiso   1.00
H301   H     0.39390   0.24366   0.55256   0.00000  Uiso   1.00
H302   H     0.10610   0.08968   0.44744   0.00000  Uiso   1.00
N303   N     0.23744   0.15214   0.34617   0.00000  Uiso   1.00
N304   N     0.26255   0.18119   0.65383   0.00000  Uiso   1.00
O305   O     0.25325   0.09538   0.53992   0.00000  Uiso   1.00
O306   O     0.24674   0.23796   0.46008   0.00000  Uiso   1.00
O307   O     0.24480   0.08559   0.43612   0.00000  Uiso   1.00
O308   O     0.25520   0.24774   0.56388   0.00000  Uiso   1.00
O309   O     0.18935   0.17155   0.55191   0.00000  Uiso   1.00
O310   O     0.31064   0.16179   0.44809   0.00000  Uiso   1.00
O311   O     0.18090   0.16176   0.44810   0.00000  Uiso   1.00
O312   O     0.31910   0.17157   0.55190   0.00000  Uiso   1.00
Cl313  Cl    0.36653   0.06386   0.42938   0.00000  Uiso   1.00
Cl314  Cl    0.13347   0.26948   0.57062   0.00000  Uiso   1.00
H315   H     0.44963   0.04056   0.41456   0.00000  Uiso   1.00
H316   H     0.05037   0.29277   0.58544   0.00000  Uiso   1.00
Cl317  Cl    0.03841   0.01813   0.40254   0.00000  Uiso   1.00
Cl318  Cl    0.46159   0.31520   0.59746   0.00000  Uiso   1.00
Cl319  Cl    0.20063   0.31200   0.41710   0.00000  Uiso   1.00
Cl320  Cl    0.29937   0.02133   0.58290   0.00000  Uiso   1.00
Cl321  Cl    0.19714   0.10605   0.63601   0.00000  Uiso   1.00
Cl322  Cl    0.30286   0.22729   0.36399   0.00000  Uiso   1.00
C323   C     0.74795   0.06681   0.48486   0.00000  Uiso   1.00
C324   C     0.75205   0.26652   0.51514   0.00000  Uiso   1.00
C325   C     0.51600   0.07636   0.43960   0.00000  Uiso   1.00
C326   C     0.98400   0.25697   0.56040   0.00000  Uiso   1.00
C327   C     0.74073   0.01138   0.47835   0.00000  Uiso   1.00
C328   C     0.75927   0.32195   0.52165   0.00000  Uiso   1.00
C329   C     0.66471   0.16722   0.50064   0.00000  Uiso   1.00
C330   C     0.83529   0.16612   0.49936   0.00000  Uiso   1.00
C331   C     0.91009   0.21000   0.52926   0.00000  Uiso   1.00
C332   C     0.58990   0.12333   0.47074   0.00000  Uiso   1.00
C333   C     0.88333   0.16526   0.49802   0.00000  Uiso   1.00
C334   C     0.61667   0.16807   0.50198   0.00000  Uiso   1.00
C335   C     0.90219   0.12040   0.46695   0.00000  Uiso   1.00
C336   C     0.59781   0.21293   0.53305   0.00000  Uiso   1.00
C337   C     0.94918   0.12062   0.46792   0.00000  Uiso   1.00
C338   C     0.55082   0.21271   0.53208   0.00000  Uiso   1.00
C339   C     0.97646   0.16637   0.49945   0.00000  Uiso   1.00
C340   C     0.52353   0.16697   0.50055   0.00000  Uiso   1.00
C341   C     0.95671   0.21150   0.52994   0.00000  Uiso   1.00
C342   C     0.54329   0.12184   0.47006   0.00000  Uiso   1.00
C343   C     0.96951   0.07613   0.43855   0.00000  Uiso   1.00
C344   C     0.53049   0.25720   0.56145   0.00000  Uiso   1.00
Cu345  Cu    0.75500   0.17246   0.56146   0.00000  Uiso   1.00
Cu346  Cu    0.74499   0.16087   0.43854   0.00000  Uiso   1.00
H347   H     0.89390   0.24366   0.55256   0.00000  Uiso   1.00
H348   H     0.60610   0.08968   0.44744   0.00000  Uiso   1.00
N349   N     0.73744   0.15214   0.34617   0.00000  Uiso   1.00
N350   N     0.76255   0.18119   0.65383   0.00000  Uiso   1.00
O351   O     0.75325   0.09538   0.53992   0.00000  Uiso   1.00
O352   O     0.74674   0.23796   0.46008   0.00000  Uiso   1.00
O353   O     0.74480   0.08559   0.43612   0.00000  Uiso   1.00
O354   O     0.75520   0.24774   0.56388   0.00000  Uiso   1.00
O355   O     0.68935   0.17155   0.55191   0.00000  Uiso   1.00
O356   O     0.81064   0.16179   0.44809   0.00000  Uiso   1.00
O357   O     0.68090   0.16176   0.44810   0.00000  Uiso   1.00
O358   O     0.81910   0.17157   0.55190   0.00000  Uiso   1.00
Cl359  Cl    0.86653   0.06386   0.42938   0.00000  Uiso   1.00
Cl360  Cl    0.63347   0.26948   0.57062   0.00000  Uiso   1.00
H361   H     0.94963   0.04056   0.41456   0.00000  Uiso   1.00
H362   H     0.55037   0.29277   0.58544   0.00000  Uiso   1.00
Cl363  Cl    0.53841   0.01813   0.40254   0.00000  Uiso   1.00
Cl364  Cl    0.96159   0.31520   0.59746   0.00000  Uiso   1.00
Cl365  Cl    0.70063   0.31200   0.41710   0.00000  Uiso   1.00
Cl366  Cl    0.79937   0.02133   0.58290   0.00000  Uiso   1.00
Cl367  Cl    0.69714   0.10605   0.63601   0.00000  Uiso   1.00
Cl368  Cl    0.80286   0.22729   0.36399   0.00000  Uiso   1.00
C369   C     0.24795   0.40014   0.48486   0.00000  Uiso   1.00
C370   C     0.25205   0.59986   0.51514   0.00000  Uiso   1.00
C371   C     0.01600   0.40970   0.43960   0.00000  Uiso   1.00
C372   C     0.48400   0.59030   0.56040   0.00000  Uiso   1.00
C373   C     0.24073   0.34471   0.47835   0.00000  Uiso   1.00
C374   C     0.25927   0.65529   0.52165   0.00000  Uiso   1.00
C375   C     0.16471   0.50055   0.50064   0.00000  Uiso   1.00
C376   C     0.33529   0.49945   0.49936   0.00000  Uiso   1.00
C377   C     0.41009   0.54333   0.52926   0.00000  Uiso   1.00
C378   C     0.08990   0.45667   0.47074   0.00000  Uiso   1.00
C379   C     0.38333   0.49860   0.49802   0.00000  Uiso   1.00
C380   C     0.11667   0.50140   0.50198   0.00000  Uiso   1.00
C381   C     0.40219   0.45373   0.46695   0.00000  Uiso   1.00
C382   C     0.09781   0.54627   0.53305   0.00000  Uiso   1.00
C383   C     0.44918   0.45395   0.46792   0.00000  Uiso   1.00
C384   C     0.05082   0.54605   0.53208   0.00000  Uiso   1.00
C385   C     0.47646   0.49970   0.49945   0.00000  Uiso   1.00
C386   C     0.02353   0.50030   0.50055   0.00000  Uiso   1.00
C387   C     0.45671   0.54483   0.52994   0.00000  Uiso   1.00
C388   C     0.04329   0.45517   0.47006   0.00000  Uiso   1.00
C389   C     0.46951   0.40947   0.43855   0.00000  Uiso   1.00
C390   C     0.03049   0.59053   0.56145   0.00000  Uiso   1.00
Cu391  Cu    0.25500   0.50579   0.56146   0.00000  Uiso   1.00
Cu392  Cu    0.24499   0.49421   0.43854   0.00000  Uiso   1.00
H393   H     0.39390   0.57699   0.55256   0.00000  Uiso   1.00
H394   H     0.10610   0.42301   0.44744   0.00000  Uiso   1.00
N395   N     0.23744   0.48547   0.34617   0.00000  Uiso   1.00
N396   N     0.26255   0.51453   0.65383   0.00000  Uiso   1.00
O397   O     0.25325   0.42871   0.53992   0.00000  Uiso   1.00
O398   O     0.24674   0.57129   0.46008   0.00000  Uiso   1.00
O399   O     0.24480   0.41892   0.43612   0.00000  Uiso   1.00
O400   O     0.25520   0.58108   0.56388   0.00000  Uiso   1.00
O401   O     0.18935   0.50488   0.55191   0.00000  Uiso   1.00
O402   O     0.31064   0.49512   0.44809   0.00000  Uiso   1.00
O403   O     0.18090   0.49510   0.44810   0.00000  Uiso   1.00
O404   O     0.31910   0.50490   0.55190   0.00000  Uiso   1.00
Cl405  Cl    0.36653   0.39719   0.42938   0.00000  Uiso   1.00
Cl406  Cl    0.13347   0.60281   0.57062   0.00000  Uiso   1.00
H407   H     0.44963   0.37390   0.41456   0.00000  Uiso   1.00
H408   H     0.05037   0.62610   0.58544   0.00000  Uiso   1.00
Cl409  Cl    0.03841   0.35147   0.40254   0.00000  Uiso   1.00
Cl410  Cl    0.46159   0.64853   0.59746   0.00000  Uiso   1.00
Cl411  Cl    0.20063   0.64534   0.41710   0.00000  Uiso   1.00
Cl412  Cl    0.29937   0.35466   0.58290   0.00000  Uiso   1.00
Cl413  Cl    0.19714   0.43938   0.63601   0.00000  Uiso   1.00
Cl414  Cl    0.30286   0.56062   0.36399   0.00000  Uiso   1.00
C415   C     0.74795   0.40014   0.48486   0.00000  Uiso   1.00
C416   C     0.75205   0.59986   0.51514   0.00000  Uiso   1.00
C417   C     0.51600   0.40970   0.43960   0.00000  Uiso   1.00
C418   C     0.98400   0.59030   0.56040   0.00000  Uiso   1.00
C419   C     0.74073   0.34471   0.47835   0.00000  Uiso   1.00
C420   C     0.75927   0.65529   0.52165   0.00000  Uiso   1.00
C421   C     0.66471   0.50055   0.50064   0.00000  Uiso   1.00
C422   C     0.83529   0.49945   0.49936   0.00000  Uiso   1.00
C423   C     0.91009   0.54333   0.52926   0.00000  Uiso   1.00
C424   C     0.58990   0.45667   0.47074   0.00000  Uiso   1.00
C425   C     0.88333   0.49860   0.49802   0.00000  Uiso   1.00
C426   C     0.61667   0.50140   0.50198   0.00000  Uiso   1.00
C427   C     0.90219   0.45373   0.46695   0.00000  Uiso   1.00
C428   C     0.59781   0.54627   0.53305   0.00000  Uiso   1.00
C429   C     0.94918   0.45395   0.46792   0.00000  Uiso   1.00
C430   C     0.55082   0.54605   0.53208   0.00000  Uiso   1.00
C431   C     0.97646   0.49970   0.49945   0.00000  Uiso   1.00
C432   C     0.52353   0.50030   0.50055   0.00000  Uiso   1.00
C433   C     0.95671   0.54483   0.52994   0.00000  Uiso   1.00
C434   C     0.54329   0.45517   0.47006   0.00000  Uiso   1.00
C435   C     0.96951   0.40947   0.43855   0.00000  Uiso   1.00
C436   C     0.53049   0.59053   0.56145   0.00000  Uiso   1.00
Cu437  Cu    0.75500   0.50579   0.56146   0.00000  Uiso   1.00
Cu438  Cu    0.74499   0.49421   0.43854   0.00000  Uiso   1.00
H439   H     0.89390   0.57699   0.55256   0.00000  Uiso   1.00
H440   H     0.60610   0.42301   0.44744   0.00000  Uiso   1.00
N441   N     0.73744   0.48547   0.34617   0.00000  Uiso   1.00
N442   N     0.76255   0.51453   0.65383   0.00000  Uiso   1.00
O443   O     0.75325   0.42871   0.53992   0.00000  Uiso   1.00
O444   O     0.74674   0.57129   0.46008   0.00000  Uiso   1.00
O445   O     0.74480   0.41892   0.43612   0.00000  Uiso   1.00
O446   O     0.75520   0.58108   0.56388   0.00000  Uiso   1.00
O447   O     0.68935   0.50488   0.55191   0.00000  Uiso   1.00
O448   O     0.81064   0.49512   0.44809   0.00000  Uiso   1.00
O449   O     0.68090   0.49510   0.44810   0.00000  Uiso   1.00
O450   O     0.81910   0.50490   0.55190   0.00000  Uiso   1.00
Cl451  Cl    0.86653   0.39719   0.42938   0.00000  Uiso   1.00
Cl452  Cl    0.63347   0.60281   0.57062   0.00000  Uiso   1.00
H453   H     0.94963   0.37390   0.41456   0.00000  Uiso   1.00
H454   H     0.55037   0.62610   0.58544   0.00000  Uiso   1.00
Cl455  Cl    0.53841   0.35147   0.40254   0.00000  Uiso   1.00
Cl456  Cl    0.96159   0.64853   0.59746   0.00000  Uiso   1.00
Cl457  Cl    0.70063   0.64534   0.41710   0.00000  Uiso   1.00
Cl458  Cl    0.79937   0.35466   0.58290   0.00000  Uiso   1.00
Cl459  Cl    0.69714   0.43938   0.63601   0.00000  Uiso   1.00
Cl460  Cl    0.80286   0.56062   0.36399   0.00000  Uiso   1.00
C461   C     0.24795   0.73348   0.48486   0.00000  Uiso   1.00
C462   C     0.25205   0.93319   0.51514   0.00000  Uiso   1.00
C463   C     0.01600   0.74303   0.43960   0.00000  Uiso   1.00
C464   C     0.48400   0.92364   0.56040   0.00000  Uiso   1.00
C465   C     0.24073   0.67805   0.47835   0.00000  Uiso   1.00
C466   C     0.25927   0.98862   0.52165   0.00000  Uiso   1.00
C467   C     0.16471   0.83388   0.50064   0.00000  Uiso   1.00
C468   C     0.33529   0.83279   0.49936   0.00000  Uiso   1.00
C469   C     0.41009   0.87667   0.52926   0.00000  Uiso   1.00
C470   C     0.08990   0.79000   0.47074   0.00000  Uiso   1.00
C471   C     0.38333   0.83193   0.49802   0.00000  Uiso   1.00
C472   C     0.11667   0.83474   0.50198   0.00000  Uiso   1.00
C473   C     0.40219   0.78707   0.46695   0.00000  Uiso   1.00
C474   C     0.09781   0.87960   0.53305   0.00000  Uiso   1.00
C475   C     0.44918   0.78729   0.46792   0.00000  Uiso   1.00
C476   C     0.05082   0.87938   0.53208   0.00000  Uiso   1.00
C477   C     0.47646   0.83303   0.49945   0.00000  Uiso   1.00
C478   C     0.02353   0.83363   0.50055   0.00000  Uiso   1.00
C479   C     0.45671   0.87816   0.52994   0.00000  Uiso   1.00
C480   C     0.04329   0.78850   0.47006   0.00000  Uiso   1.00
C481   C     0.46951   0.74280   0.43855   0.00000  Uiso   1.00
C482   C     0.03049   0.92387   0.56145   0.00000  Uiso   1.00
Cu483  Cu    0.25500   0.83913   0.56146   0.00000  Uiso   1.00
Cu484  Cu    0.24499   0.82754   0.43854   0.00000  Uiso   1.00
H485   H     0.39390   0.91032   0.55256   0.00000  Uiso   1.00
H486   H     0.10610   0.75635   0.44744   0.00000  Uiso   1.00
N487   N     0.23744   0.81881   0.34617   0.00000  Uiso   1.00
N488   N     0.26255   0.84786   0.65383   0.00000  Uiso   1.00
O489   O     0.25325   0.76204   0.53992   0.00000  Uiso   1.00
O490   O     0.24674   0.90462   0.46008   0.00000  Uiso   1.00
O491   O     0.24480   0.75226   0.43612   0.00000  Uiso   1.00
O492   O     0.25520   0.91441   0.56388   0.00000  Uiso   1.00
O493   O     0.18935   0.83821   0.55191   0.00000  Uiso   1.00
O494   O     0.31064   0.82845   0.44809   0.00000  Uiso   1.00
O495   O     0.18090   0.82843   0.44810   0.00000  Uiso   1.00
O496   O     0.31910   0.83824   0.55190   0.00000  Uiso   1.00
Cl497  Cl    0.36653   0.73052   0.42938   0.00000  Uiso   1.00
Cl498  Cl    0.13347   0.93614   0.57062   0.00000  Uiso   1.00
H499   H     0.44963   0.70723   0.41456   0.00000  Uiso   1.00
H500   H     0.05037   0.95944   0.58544   0.00000  Uiso   1.00
Cl501  Cl    0.03841   0.68480   0.40254   0.00000  Uiso   1.00
Cl502  Cl    0.46159   0.98187   0.59746   0.00000  Uiso   1.00
Cl503  Cl    0.20063   0.97867   0.41710   0.00000  Uiso   1.00
Cl504  Cl    0.29937   0.68800   0.58290   0.00000  Uiso   1.00
Cl505  Cl    0.19714   0.77272   0.63601   0.00000  Uiso   1.00
Cl506  Cl    0.30286   0.89395   0.36399   0.00000  Uiso   1.00
C507   C     0.74795   0.73348   0.48486   0.00000  Uiso   1.00
C508   C     0.75205   0.93319   0.51514   0.00000  Uiso   1.00
C509   C     0.51600   0.74303   0.43960   0.00000  Uiso   1.00
C510   C     0.98400   0.92364   0.56040   0.00000  Uiso   1.00
C511   C     0.74073   0.67805   0.47835   0.00000  Uiso   1.00
C512   C     0.75927   0.98862   0.52165   0.00000  Uiso   1.00
C513   C     0.66471   0.83388   0.50064   0.00000  Uiso   1.00
C514   C     0.83529   0.83279   0.49936   0.00000  Uiso   1.00
C515   C     0.91009   0.87667   0.52926   0.00000  Uiso   1.00
C516   C     0.58990   0.79000   0.47074   0.00000  Uiso   1.00
C517   C     0.88333   0.83193   0.49802   0.00000  Uiso   1.00
C518   C     0.61667   0.83474   0.50198   0.00000  Uiso   1.00
C519   C     0.90219   0.78707   0.46695   0.00000  Uiso   1.00
C520   C     0.59781   0.87960   0.53305   0.00000  Uiso   1.00
C521   C     0.94918   0.78729   0.46792   0.00000  Uiso   1.00
C522   C     0.55082   0.87938   0.53208   0.00000  Uiso   1.00
C523   C     0.97646   0.83303   0.49945   0.00000  Uiso   1.00
C524   C     0.52353   0.83363   0.50055   0.00000  Uiso   1.00
C525   C     0.95671   0.87816   0.52994   0.00000  Uiso   1.00
C526   C     0.54329   0.78850   0.47006   0.00000  Uiso   1.00
C527   C     0.96951   0.74280   0.43855   0.00000  Uiso   1.00
C528   C     0.53049   0.92387   0.56145   0.00000  Uiso   1.00
Cu529  Cu    0.75500   0.83913   0.56146   0.00000  Uiso   1.00
Cu530  Cu    0.74499   0.82754   0.43854   0.00000  Uiso   1.00
H531   H     0.89390   0.91032   0.55256   0.00000  Uiso   1.00
H532   H     0.60610   0.75635   0.44744   0.00000  Uiso   1.00
N533   N     0.73744   0.81881   0.34617   0.00000  Uiso   1.00
N534   N     0.76255   0.84786   0.65383   0.00000  Uiso   1.00
O535   O     0.75325   0.76204   0.53992   0.00000  Uiso   1.00
O536   O     0.74674   0.90462   0.46008   0.00000  Uiso   1.00
O537   O     0.74480   0.75226   0.43612   0.00000  Uiso   1.00
O538   O     0.75520   0.91441   0.56388   0.00000  Uiso   1.00
O539   O     0.68935   0.83821   0.55191   0.00000  Uiso   1.00
O540   O     0.81064   0.82845   0.44809   0.00000  Uiso   1.00
O541   O     0.68090   0.82843   0.44810   0.00000  Uiso   1.00
O542   O     0.81910   0.83824   0.55190   0.00000  Uiso   1.00
Cl543  Cl    0.86653   0.73052   0.42938   0.00000  Uiso   1.00
Cl544  Cl    0.63347   0.93614   0.57062   0.00000  Uiso   1.00
H545   H     0.94963   0.70723   0.41456   0.00000  Uiso   1.00
H546   H     0.55037   0.95944   0.58544   0.00000  Uiso   1.00
Cl547  Cl    0.53841   0.68480   0.40254   0.00000  Uiso   1.00
Cl548  Cl    0.96159   0.98187   0.59746   0.00000  Uiso   1.00
Cl549  Cl    0.70063   0.97867   0.41710   0.00000  Uiso   1.00
Cl550  Cl    0.79937   0.68800   0.58290   0.00000  Uiso   1.00
Cl551  Cl    0.69714   0.77272   0.63601   0.00000  Uiso   1.00
Cl552  Cl    0.80286   0.89395   0.36399   0.00000  Uiso   1.00
C553   C     0.24795   0.06681   0.81820   0.00000  Uiso   1.00
C554   C     0.25205   0.26652   0.84847   0.00000  Uiso   1.00
C555   C     0.01600   0.07636   0.77293   0.00000  Uiso   1.00
C556   C     0.48400   0.25697   0.89374   0.00000  Uiso   1.00
C557   C     0.24073   0.01138   0.81169   0.00000  Uiso   1.00
C558   C     0.25927   0.32195   0.85498   0.00000  Uiso   1.00
C559   C     0.16471   0.16722   0.83397   0.00000  Uiso   1.00
C560   C     0.33529   0.16612   0.83269   0.00000  Uiso   1.00
C561   C     0.41009   0.21000   0.86260   0.00000  Uiso   1.00
C562   C     0.08990   0.12333   0.80407   0.00000  Uiso   1.00
C563   C     0.38333   0.16526   0.83136   0.00000  Uiso   1.00
C564   C     0.11667   0.16807   0.83531   0.00000  Uiso   1.00
C565   C     0.40219   0.12040   0.80028   0.00000  Uiso   1.00
C566   C     0.09781   0.21293   0.86639   0.00000  Uiso   1.00
C567   C     0.44918   0.12062   0.80126   0.00000  Uiso   1.00
C568   C     0.05082   0.21271   0.86541   0.00000  Uiso   1.00
C569   C     0.47646   0.16637   0.83279   0.00000  Uiso   1.00
C570   C     0.02353   0.16697   0.83388   0.00000  Uiso   1.00
C571   C     0.45671   0.21150   0.86327   0.00000  Uiso   1.00
C572   C     0.04329   0.12184   0.80339   0.00000  Uiso   1.00
C573   C     0.46951   0.07613   0.77189   0.00000  Uiso   1.00
C574   C     0.03049   0.25720   0.89478   0.00000  Uiso   1.00
Cu575  Cu    0.25500   0.17246   0.89479   0.00000  Uiso   1.00
Cu576  Cu    0.24499   0.16087   0.77187   0.00000  Uiso   1.00
H577   H     0.39390   0.24366   0.88590   0.00000  Uiso   1.00
H578   H     0.10610   0.08968   0.78077   0.00000  Uiso   1.00
N579   N     0.23744   0.15214   0.67951   0.00000  Uiso   1.00
N580   N     0.26255   0.18119   0.98716   0.00000  Uiso   1.00
O581   O     0.25325   0.09538   0.87326   0.00000  Uiso   1.00
O582   O     0.24674   0.23796   0.79341   0.00000  Uiso   1.00
O583   O     0.24480   0.08559   0.76945   0.00000  Uiso   1.00
O584   O     0.25520   0.24774   0.89721   0.00000  Uiso   1.00
O585   O     0.18935   0.17155   0.88524   0.00000  Uiso   1.00
O586   O     0.31064   0.16179   0.78143   0.00000  Uiso   1.00
O587   O     0.18090   0.16176   0.78143   0.00000  Uiso   1.00
O588   O     0.31910   0.17157   0.88523   0.00000  Uiso   1.00
Cl589  Cl    0.36653   0.06386   0.76271   0.00000  Uiso   1.00
Cl590  Cl    0.13347   0.26948   0.90395   0.00000  Uiso   1.00
H591   H     0.44963   0.04056   0.74789   0.00000  Uiso   1.00
H592   H     0.05037   0.29277   0.91878   0.00000  Uiso   1.00
Cl593  Cl    0.03841   0.01813   0.73587   0.00000  Uiso   1.00
Cl594  Cl    0.46159   0.31520   0.93079   0.00000  Uiso   1.00
Cl595  Cl    0.20063   0.31200   0.75043   0.00000  Uiso   1.00
Cl596  Cl    0.29937   0.02133   0.91623   0.00000  Uiso   1.00
Cl597  Cl    0.19714   0.10605   0.96934   0.00000  Uiso   1.00
Cl598  Cl    0.30286   0.22729   0.69733   0.00000  Uiso   1.00
C599   C     0.74795   0.06681   0.81820   0.00000  Uiso   1.00
C600   C     0.75205   0.26652   0.84847   0.00000  Uiso   1.00
C601   C     0.51600   0.07636   0.77293   0.00000  Uiso   1.00
C602   C     0.98400   0.25697   0.89374   0.00000  Uiso   1.00
C603   C     0.74073   0.01138   0.81169   0.00000  Uiso   1.00
C604   C     0.75927   0.32195   0.85498   0.00000  Uiso   1.00
C605   C     0.66471   0.16722   0.83397   0.00000  Uiso   1.00
C606   C     0.83529   0.16612   0.83269   0.00000  Uiso   1.00
C607   C     0.91009   0.21000   0.86260   0.00000  Uiso   1.00
C608   C     0.58990   0.12333   0.80407   0.00000  Uiso   1.00
C609   C     0.88333   0.16526   0.83136   0.00000  Uiso   1.00
C610   C     0.61667   0.16807   0.83531   0.00000  Uiso   1.00
C611   C     0.90219   0.12040   0.80028   0.00000  Uiso   1.00
C612   C     0.59781   0.21293   0.86639   0.00000  Uiso   1.00
C613   C     0.94918   0.12062   0.80126   0.00000  Uiso   1.00
C614   C     0.55082   0.21271   0.86541   0.00000  Uiso   1.00
C615   C     0.97646   0.16637   0.83279   0.00000  Uiso   1.00
C616   C     0.52353   0.16697   0.83388   0.00000  Uiso   1.00
C617   C     0.95671   0.21150   0.86327   0.00000  Uiso   1.00
C618   C     0.54329   0.12184   0.80339   0.00000  Uiso   1.00
C619   C     0.96951   0.07613   0.77189   0.00000  Uiso   1.00
C620   C     0.53049   0.25720   0.89478   0.00000  Uiso   1.00
Cu621  Cu    0.75500   0.17246   0.89479   0.00000  Uiso   1.00
Cu622  Cu    0.74499   0.16087   0.77187   0.00000  Uiso   1.00
H623   H     0.89390   0.24366   0.88590   0.00000  Uiso   1.00
H624   H     0.60610   0.08968   0.78077   0.00000  Uiso   1.00
N625   N     0.73744   0.15214   0.67951   0.00000  Uiso   1.00
N626   N     0.76255   0.18119   0.98716   0.00000  Uiso   1.00
O627   O     0.75325   0.09538   0.87326   0.00000  Uiso   1.00
O628   O     0.74674   0.23796   0.79341   0.00000  Uiso   1.00
O629   O     0.74480   0.08559   0.76945   0.00000  Uiso   1.00
O630   O     0.75520   0.24774   0.89721   0.00000  Uiso   1.00
O631   O     0.68935   0.17155   0.88524   0.00000  Uiso   1.00
O632   O     0.81064   0.16179   0.78143   0.00000  Uiso   1.00
O633   O     0.68090   0.16176   0.78143   0.00000  Uiso   1.00
O634   O     0.81910   0.17157   0.88523   0.00000  Uiso   1.00
Cl635  Cl    0.86653   0.06386   0.76271   0.00000  Uiso   1.00
Cl636  Cl    0.63347   0.26948   0.90395   0.00000  Uiso   1.00
H637   H     0.94963   0.04056   0.74789   0.00000  Uiso   1.00
H638   H     0.55037   0.29277   0.91878   0.00000  Uiso   1.00
Cl639  Cl    0.53841   0.01813   0.73587   0.00000  Uiso   1.00
Cl640  Cl    0.96159   0.31520   0.93079   0.00000  Uiso   1.00
Cl641  Cl    0.70063   0.31200   0.75043   0.00000  Uiso   1.00
Cl642  Cl    0.79937   0.02133   0.91623   0.00000  Uiso   1.00
Cl643  Cl    0.69714   0.10605   0.96934   0.00000  Uiso   1.00
Cl644  Cl    0.80286   0.22729   0.69733   0.00000  Uiso   1.00
C645   C     0.24795   0.40014   0.81820   0.00000  Uiso   1.00
C646   C     0.25205   0.59986   0.84847   0.00000  Uiso   1.00
C647   C     0.01600   0.40970   0.77293   0.00000  Uiso   1.00
C648   C     0.48400   0.59030   0.89374   0.00000  Uiso   1.00
C649   C     0.24073   0.34471   0.81169   0.00000  Uiso   1.00
C650   C     0.25927   0.65529   0.85498   0.00000  Uiso   1.00
C651   C     0.16471   0.50055   0.83397   0.00000  Uiso   1.00
C652   C     0.33529   0.49945   0.83269   0.00000  Uiso   1.00
C653   C     0.41009   0.54333   0.86260   0.00000  Uiso   1.00
C654   C     0.08990   0.45667   0.80407   0.00000  Uiso   1.00
C655   C     0.38333   0.49860   0.83136   0.00000  Uiso   1.00
C656   C     0.11667   0.50140   0.83531   0.00000  Uiso   1.00
C657   C     0.40219   0.45373   0.80028   0.00000  Uiso   1.00
C658   C     0.09781   0.54627   0.86639   0.00000  Uiso   1.00
C659   C     0.44918   0.45395   0.80126   0.00000  Uiso   1.00
C660   C     0.05082   0.54605   0.86541   0.00000  Uiso   1.00
C661   C     0.47646   0.49970   0.83279   0.00000  Uiso   1.00
C662   C     0.02353   0.50030   0.83388   0.00000  Uiso   1.00
C663   C     0.45671   0.54483   0.86327   0.00000  Uiso   1.00
C664   C     0.04329   0.45517   0.80339   0.00000  Uiso   1.00
C665   C     0.46951   0.40947   0.77189   0.00000  Uiso   1.00
C666   C     0.03049   0.59053   0.89478   0.00000  Uiso   1.00
Cu667  Cu    0.25500   0.50579   0.89479   0.00000  Uiso   1.00
Cu668  Cu    0.24499   0.49421   0.77187   0.00000  Uiso   1.00
H669   H     0.39390   0.57699   0.88590   0.00000  Uiso   1.00
H670   H     0.10610   0.42301   0.78077   0.00000  Uiso   1.00
N671   N     0.23744   0.48547   0.67951   0.00000  Uiso   1.00
N672   N     0.26255   0.51453   0.98716   0.00000  Uiso   1.00
O673   O     0.25325   0.42871   0.87326   0.00000  Uiso   1.00
O674   O     0.24674   0.57129   0.79341   0.00000  Uiso   1.00
O675   O     0.24480   0.41892   0.76945   0.00000  Uiso   1.00
O676   O     0.25520   0.58108   0.89721   0.00000  Uiso   1.00
O677   O     0.18935   0.50488   0.88524   0.00000  Uiso   1.00
O678   O     0.31064   0.49512   0.78143   0.00000  Uiso   1.00
O679   O     0.18090   0.49510   0.78143   0.00000  Uiso   1.00
O680   O     0.31910   0.50490   0.88523   0.00000  Uiso   1.00
Cl681  Cl    0.36653   0.39719   0.76271   0.00000  Uiso   1.00
Cl682  Cl    0.13347   0.60281   0.90395   0.00000  Uiso   1.00
H683   H     0.44963   0.37390   0.74789   0.00000  Uiso   1.00
H684   H     0.05037   0.62610   0.91878   0.00000  Uiso   1.00
Cl685  Cl    0.03841   0.35147   0.73587   0.00000  Uiso   1.00
Cl686  Cl    0.46159   0.64853   0.93079   0.00000  Uiso   1.00
Cl687  Cl    0.20063   0.64534   0.75043   0.00000  Uiso   1.00
Cl688  Cl    0.29937   0.35466   0.91623   0.00000  Uiso   1.00
Cl689  Cl    0.19714   0.43938   0.96934   0.00000  Uiso   1.00
Cl690  Cl    0.30286   0.56062   0.69733   0.00000  Uiso   1.00
C691   C     0.74795   0.40014   0.81820   0.00000  Uiso   1.00
C692   C     0.75205   0.59986   0.84847   0.00000  Uiso   1.00
C693   C     0.51600   0.40970   0.77293   0.00000  Uiso   1.00
C694   C     0.98400   0.59030   0.89374   0.00000  Uiso   1.00
C695   C     0.74073   0.34471   0.81169   0.00000  Uiso   1.00
C696   C     0.75927   0.65529   0.85498   0.00000  Uiso   1.00
C697   C     0.66471   0.50055   0.83397   0.00000  Uiso   1.00
C698   C     0.83529   0.49945   0.83269   0.00000  Uiso   1.00
C699   C     0.91009   0.54333   0.86260   0.00000  Uiso   1.00
C700   C     0.58990   0.45667   0.80407   0.00000  Uiso   1.00
C701   C     0.88333   0.49860   0.83136   0.00000  Uiso   1.00
C702   C     0.61667   0.50140   0.83531   0.00000  Uiso   1.00
C703   C     0.90219   0.45373   0.80028   0.00000  Uiso   1.00
C704   C     0.59781   0.54627   0.86639   0.00000  Uiso   1.00
C705   C     0.94918   0.45395   0.80126   0.00000  Uiso   1.00
C706   C     0.55082   0.54605   0.86541   0.00000  Uiso   1.00
C707   C     0.97646   0.49970   0.83279   0.00000  Uiso   1.00
C708   C     0.52353   0.50030   0.83388   0.00000  Uiso   1.00
C709   C     0.95671   0.54483   0.86327   0.00000  Uiso   1.00
C710   C     0.54329   0.45517   0.80339   0.00000  Uiso   1.00
C711   C     0.96951   0.40947   0.77189   0.00000  Uiso   1.00
C712   C     0.53049   0.59053   0.89478   0.00000  Uiso   1.00
Cu713  Cu    0.75500   0.50579   0.89479   0.00000  Uiso   1.00
Cu714  Cu    0.74499   0.49421   0.77187   0.00000  Uiso   1.00
H715   H     0.89390   0.57699   0.88590   0.00000  Uiso   1.00
H716   H     0.60610   0.42301   0.78077   0.00000  Uiso   1.00
N717   N     0.73744   0.48547   0.67951   0.00000  Uiso   1.00
N718   N     0.76255   0.51453   0.98716   0.00000  Uiso   1.00
O719   O     0.75325   0.42871   0.87326   0.00000  Uiso   1.00
O720   O     0.74674   0.57129   0.79341   0.00000  Uiso   1.00
O721   O     0.74480   0.41892   0.76945   0.00000  Uiso   1.00
O722   O     0.75520   0.58108   0.89721   0.00000  Uiso   1.00
O723   O     0.68935   0.50488   0.88524   0.00000  Uiso   1.00
O724   O     0.81064   0.49512   0.78143   0.00000  Uiso   1.00
O725   O     0.68090   0.49510   0.78143   0.00000  Uiso   1.00
O726   O     0.81910   0.50490   0.88523   0.00000  Uiso   1.00
Cl727  Cl    0.86653   0.39719   0.76271   0.00000  Uiso   1.00
Cl728  Cl    0.63347   0.60281   0.90395   0.00000  Uiso   1.00
H729   H     0.94963   0.37390   0.74789   0.00000  Uiso   1.00
H730   H     0.55037   0.62610   0.91878   0.00000  Uiso   1.00
Cl731  Cl    0.53841   0.35147   0.73587   0.00000  Uiso   1.00
Cl732  Cl    0.96159   0.64853   0.93079   0.00000  Uiso   1.00
Cl733  Cl    0.70063   0.64534   0.75043   0.00000  Uiso   1.00
Cl734  Cl    0.79937   0.35466   0.91623   0.00000  Uiso   1.00
Cl735  Cl    0.69714   0.43938   0.96934   0.00000  Uiso   1.00
Cl736  Cl    0.80286   0.56062   0.69733   0.00000  Uiso   1.00
C737   C     0.24795   0.73348   0.81820   0.00000  Uiso   1.00
C738   C     0.25205   0.93319   0.84847   0.00000  Uiso   1.00
C739   C     0.01600   0.74303   0.77293   0.00000  Uiso   1.00
C740   C     0.48400   0.92364   0.89374   0.00000  Uiso   1.00
C741   C     0.24073   0.67805   0.81169   0.00000  Uiso   1.00
C742   C     0.25927   0.98862   0.85498   0.00000  Uiso   1.00
C743   C     0.16471   0.83388   0.83397   0.00000  Uiso   1.00
C744   C     0.33529   0.83279   0.83269   0.00000  Uiso   1.00
C745   C     0.41009   0.87667   0.86260   0.00000  Uiso   1.00
C746   C     0.08990   0.79000   0.80407   0.00000  Uiso   1.00
C747   C     0.38333   0.83193   0.83136   0.00000  Uiso   1.00
C748   C     0.11667   0.83474   0.83531   0.00000  Uiso   1.00
C749   C     0.40219   0.78707   0.80028   0.00000  Uiso   1.00
C750   C     0.09781   0.87960   0.86639   0.00000  Uiso   1.00
C751   C     0.44918   0.78729   0.80126   0.00000  Uiso   1.00
C752   C     0.05082   0.87938   0.86541   0.00000  Uiso   1.00
C753   C     0.47646   0.83303   0.83279   0.00000  Uiso   1.00
C754   C     0.02353   0.83363   0.83388   0.00000  Uiso   1.00
C755   C     0.45671   0.87816   0.86327   0.00000  Uiso   1.00
C756   C     0.04329   0.78850   0.80339   0.00000  Uiso   1.00
C757   C     0.46951   0.74280   0.77189   0.00000  Uiso   1.00
C758   C     0.03049   0.92387   0.89478   0.00000  Uiso   1.00
Cu759  Cu    0.25500   0.83913   0.89479   0.00000  Uiso   1.00
Cu760  Cu    0.24499   0.82754   0.77187   0.00000  Uiso   1.00
H761   H     0.39390   0.91032   0.88590   0.00000  Uiso   1.00
H762   H     0.10610   0.75635   0.78077   0.00000  Uiso   1.00
N763   N     0.23744   0.81881   0.67951   0.00000  Uiso   1.00
N764   N     0.26255   0.84786   0.98716   0.00000  Uiso   1.00
O765   O     0.25325   0.76204   0.87326   0.00000  Uiso   1.00
O766   O     0.24674   0.90462   0.79341   0.00000  Uiso   1.00
O767   O     0.24480   0.75226   0.76945   0.00000  Uiso   1.00
O768   O     0.25520   0.91441   0.89721   0.00000  Uiso   1.00
O769   O     0.18935   0.83821   0.88524   0.00000  Uiso   1.00
O770   O     0.31064   0.82845   0.78143   0.00000  Uiso   1.00
O771   O     0.18090   0.82843   0.78143   0.00000  Uiso   1.00
O772   O     0.31910   0.83824   0.88523   0.00000  Uiso   1.00
Cl773  Cl    0.36653   0.73052   0.76271   0.00000  Uiso   1.00
Cl774  Cl    0.13347   0.93614   0.90395   0.00000  Uiso   1.00
H775   H     0.44963   0.70723   0.74789   0.00000  Uiso   1.00
H776   H     0.05037   0.95944   0.91878   0.00000  Uiso   1.00
Cl777  Cl    0.03841   0.68480   0.73587   0.00000  Uiso   1.00
Cl778  Cl    0.46159   0.98187   0.93079   0.00000  Uiso   1.00
Cl779  Cl    0.20063   0.97867   0.75043   0.00000  Uiso   1.00
Cl780  Cl    0.29937   0.68800   0.91623   0.00000  Uiso   1.00
Cl781  Cl    0.19714   0.77272   0.96934   0.00000  Uiso   1.00
Cl782  Cl    0.30286   0.89395   0.69733   0.00000  Uiso   1.00
C783   C     0.74795   0.73348   0.81820   0.00000  Uiso   1.00
C784   C     0.75205   0.93319   0.84847   0.00000  Uiso   1.00
C785   C     0.51600   0.74303   0.77293   0.00000  Uiso   1.00
C786   C     0.98400   0.92364   0.89374   0.00000  Uiso   1.00
C787   C     0.74073   0.67805   0.81169   0.00000  Uiso   1.00
C788   C     0.75927   0.98862   0.85498   0.00000  Uiso   1.00
C789   C     0.66471   0.83388   0.83397   0.00000  Uiso   1.00
C790   C     0.83529   0.83279   0.83269   0.00000  Uiso   1.00
C791   C     0.91009   0.87667   0.86260   0.00000  Uiso   1.00
C792   C     0.58990   0.79000   0.80407   0.00000  Uiso   1.00
C793   C     0.88333   0.83193   0.83136   0.00000  Uiso   1.00
C794   C     0.61667   0.83474   0.83531   0.00000  Uiso   1.00
C795   C     0.90219   0.78707   0.80028   0.00000  Uiso   1.00
C796   C     0.59781   0.87960   0.86639   0.00000  Uiso   1.00
C797   C     0.94918   0.78729   0.80126   0.00000  Uiso   1.00
C798   C     0.55082   0.87938   0.86541   0.00000  Uiso   1.00
C799   C     0.97646   0.83303   0.83279   0.00000  Uiso   1.00
C800   C     0.52353   0.83363   0.83388   0.00000  Uiso   1.00
C801   C     0.95671   0.87816   0.86327   0.00000  Uiso   1.00
C802   C     0.54329   0.78850   0.80339   0.00000  Uiso   1.00
C803   C     0.96951   0.74280   0.77189   0.00000  Uiso   1.00
C804   C     0.53049   0.92387   0.89478   0.00000  Uiso   1.00
Cu805  Cu    0.75500   0.83913   0.89479   0.00000  Uiso   1.00
Cu806  Cu    0.74499   0.82754   0.77187   0.00000  Uiso   1.00
H807   H     0.89390   0.91032   0.88590   0.00000  Uiso   1.00
H808   H     0.60610   0.75635   0.78077   0.00000  Uiso   1.00
N809   N     0.73744   0.81881   0.67951   0.00000  Uiso   1.00
N810   N     0.76255   0.84786   0.98716   0.00000  Uiso   1.00
O811   O     0.75325   0.76204   0.87326   0.00000  Uiso   1.00
O812   O     0.74674   0.90462   0.79341   0.00000  Uiso   1.00
O813   O     0.74480   0.75226   0.76945   0.00000  Uiso   1.00
O814   O     0.75520   0.91441   0.89721   0.00000  Uiso   1.00
O815   O     0.68935   0.83821   0.88524   0.00000  Uiso   1.00
O816   O     0.81064   0.82845   0.78143   0.00000  Uiso   1.00
O817   O     0.68090   0.82843   0.78143   0.00000  Uiso   1.00
O818   O     0.81910   0.83824   0.88523   0.00000  Uiso   1.00
Cl819  Cl    0.86653   0.73052   0.76271   0.00000  Uiso   1.00
Cl820  Cl    0.63347   0.93614   0.90395   0.00000  Uiso   1.00
H821   H     0.94963   0.70723   0.74789   0.00000  Uiso   1.00
H822   H     0.55037   0.95944   0.91878   0.00000  Uiso   1.00
Cl823  Cl    0.53841   0.68480   0.73587   0.00000  Uiso   1.00
Cl824  Cl    0.96159   0.98187   0.93079   0.00000  Uiso   1.00
Cl825  Cl    0.70063   0.97867   0.75043   0.00000  Uiso   1.00
Cl826  Cl    0.79937   0.68800   0.91623   0.00000  Uiso   1.00
Cl827  Cl    0.69714   0.77272   0.96934   0.00000  Uiso   1.00
Cl828  Cl    0.80286   0.89395   0.69733   0.00000  Uiso   1.00
loop_
_geom_bond_atom_site_label_1
_geom_bond_atom_site_label_2
_geom_bond_distance
_geom_bond_site_symmetry_2
_ccdc_geom_bond_type
C1     O31     1.296   .     A
C1     O29     1.290   .     A
C1     C5      1.424   .     S
C2     O30     1.290   .     A
C2     C6      1.424   .     S
C2     O32     1.296   .     A
C3     C20     1.408   .     A
C3     Cl41    1.766   .     S
C3     C67     1.391   1_455 S
C4     Cl42    1.766   .     S
C4     C19     1.408   .     A
C4     C68     1.391   .     S
C5     C190    1.349   1_545 S
C5     Cl227   1.778   1_545 S
C6     C97     1.349   .     S
C6     Cl136   1.778   .     S
C7     C12     1.444   .     S
C7     O33     1.298   .     A
C7     O35     1.297   .     A
C8     C11     1.444   .     S
C8     O36     1.297   .     A
C8     O34     1.298   .     A
C9     C11     1.392   .     A
C9     H25     1.083   .     S
C9     C19     1.394   .     A
C10    H26     1.083   .     S
C10    C12     1.392   .     A
C10    C20     1.394   .     A
C11    C13     1.402   .     A
C12    C14     1.402   .     A
C13    Cl37    1.775   .     S
C13    C15     1.406   .     A
C14    Cl38    1.775   .     S
C14    C16     1.406   .     A
C15    C21     1.404   .     A
C15    C17     1.419   .     A
C16    C18     1.419   .     A
C16    C22     1.404   .     A
C17    C19     1.416   .     A
C17    C64     1.408   .     S
C18    C20     1.416   .     A
C18    C63     1.408   1_455 S
C21    H39     1.082   .     S
C21    C49     1.391   .     S
C22    H40     1.082   .     S
C22    C50     1.391   1_455 S
Cu23   Cu24    2.706   .     S
Cu23   O32     1.955   .     S
Cu23   N28     2.034   .     S
Cu23   O29     1.961   .     S
Cu23   O36     1.951   .     S
Cu23   O33     1.960   .     S
Cu24   N27     2.034   .     S
Cu24   O31     1.955   .     S
Cu24   O35     1.951   .     S
Cu24   O30     1.961   .     S
Cu24   O34     1.960   .     S
N27    N580    1.293   1_554 S
N27    Cl597   1.726   1_554 S
N28    N303    1.293   .     S
N28    Cl322   1.726   .     S
Cl43   C97     1.778   .     S
Cl44   C190    1.778   1_545 S
Cl45   N303    1.726   .     S
Cl46   N580    1.726   1_554 S
C47    O77     1.296   .     A
C47    O75     1.290   .     A
C47    C51     1.424   .     S
C48    O76     1.290   .     A
C48    C52     1.424   .     S
C48    O78     1.296   .     A
C49    C66     1.408   .     A
C49    Cl87    1.766   .     S
C50    Cl88    1.766   .     S
C50    C65     1.408   .     A
C50    C22     1.391   1_655 S
C51    C236    1.349   1_545 S
C51    Cl273   1.778   1_545 S
C52    C143    1.349   .     S
C52    Cl182   1.778   .     S
C53    C58     1.444   .     S
C53    O79     1.298   .     A
C53    O81     1.297   .     A
C54    C57     1.444   .     S
C54    O82     1.297   .     A
C54    O80     1.298   .     A
C55    C57     1.392   .     A
C55    H71     1.083   .     S
C55    C65     1.394   .     A
C56    H72     1.083   .     S
C56    C58     1.392   .     A
C56    C66     1.394   .     A
C57    C59     1.402   .     A
C58    C60     1.402   .     A
C59    Cl83    1.775   .     S
C59    C61     1.406   .     A
C60    Cl84    1.775   .     S
C60    C62     1.406   .     A
C61    C67     1.404   .     A
C61    C63     1.419   .     A
C62    C64     1.419   .     A
C62    C68     1.404   .     A
C63    C65     1.416   .     A
C63    C18     1.408   1_655 S
C64    C66     1.416   .     A
C67    H85     1.082   .     S
C67    C3      1.391   1_655 S
C68    H86     1.082   .     S
Cu69   Cu70    2.706   .     S
Cu69   O78     1.955   .     S
Cu69   N74     2.034   .     S
Cu69   O75     1.961   .     S
Cu69   O82     1.951   .     S
Cu69   O79     1.960   .     S
Cu70   N73     2.034   .     S
Cu70   O77     1.955   .     S
Cu70   O81     1.951   .     S
Cu70   O76     1.961   .     S
Cu70   O80     1.960   .     S
N73    N626    1.293   1_554 S
N73    Cl643   1.726   1_554 S
N74    N349    1.293   .     S
N74    Cl368   1.726   .     S
Cl89   C143    1.778   .     S
Cl90   C236    1.778   1_545 S
Cl91   N349    1.726   .     S
Cl92   N626    1.726   1_554 S
C93    O123    1.296   .     A
C93    O121    1.290   .     A
C93    C97     1.424   .     S
C94    O122    1.290   .     A
C94    C98     1.424   .     S
C94    O124    1.296   .     A
C95    C112    1.408   .     A
C95    Cl133   1.766   .     S
C95    C159    1.391   1_455 S
C96    Cl134   1.766   .     S
C96    C111    1.408   .     A
C96    C160    1.391   .     S
C98    C189    1.349   .     S
C98    Cl228   1.778   .     S
C99    C104    1.444   .     S
C99    O125    1.298   .     A
C99    O127    1.297   .     A
C100   C103    1.444   .     S
C100   O128    1.297   .     A
C100   O126    1.298   .     A
C101   C103    1.392   .     A
C101   H117    1.083   .     S
C101   C111    1.394   .     A
C102   H118    1.083   .     S
C102   C104    1.392   .     A
C102   C112    1.394   .     A
C103   C105    1.402   .     A
C104   C106    1.402   .     A
C105   Cl129   1.775   .     S
C105   C107    1.406   .     A
C106   Cl130   1.775   .     S
C106   C108    1.406   .     A
C107   C113    1.404   .     A
C107   C109    1.419   .     A
C108   C110    1.419   .     A
C108   C114    1.404   .     A
C109   C111    1.416   .     A
C109   C156    1.408   .     S
C110   C112    1.416   .     A
C110   C155    1.408   1_455 S
C113   H131    1.082   .     S
C113   C141    1.391   .     S
C114   H132    1.082   .     S
C114   C142    1.391   1_455 S
Cu115  Cu116   2.706   .     S
Cu115  O124    1.955   .     S
Cu115  N120    2.034   .     S
Cu115  O121    1.961   .     S
Cu115  O128    1.951   .     S
Cu115  O125    1.960   .     S
Cu116  N119    2.034   .     S
Cu116  O123    1.955   .     S
Cu116  O127    1.951   .     S
Cu116  O122    1.961   .     S
Cu116  O126    1.960   .     S
N119   N672    1.293   1_554 S
N119   Cl689   1.726   1_554 S
N120   N395    1.293   .     S
N120   Cl414   1.726   .     S
Cl135  C189    1.778   .     S
Cl137  N395    1.726   .     S
Cl138  N672    1.726   1_554 S
C139   O169    1.296   .     A
C139   O167    1.290   .     A
C139   C143    1.424   .     S
C140   O168    1.290   .     A
C140   C144    1.424   .     S
C140   O170    1.296   .     A
C141   C158    1.408   .     A
C141   Cl179   1.766   .     S
C142   Cl180   1.766   .     S
C142   C157    1.408   .     A
C142   C114    1.391   1_655 S
C144   C235    1.349   .     S
C144   Cl274   1.778   .     S
C145   C150    1.444   .     S
C145   O171    1.298   .     A
C145   O173    1.297   .     A
C146   C149    1.444   .     S
C146   O174    1.297   .     A
C146   O172    1.298   .     A
C147   C149    1.392   .     A
C147   H163    1.083   .     S
C147   C157    1.394   .     A
C148   H164    1.083   .     S
C148   C150    1.392   .     A
C148   C158    1.394   .     A
C149   C151    1.402   .     A
C150   C152    1.402   .     A
C151   Cl175   1.775   .     S
C151   C153    1.406   .     A
C152   Cl176   1.775   .     S
C152   C154    1.406   .     A
C153   C159    1.404   .     A
C153   C155    1.419   .     A
C154   C156    1.419   .     A
C154   C160    1.404   .     A
C155   C157    1.416   .     A
C155   C110    1.408   1_655 S
C156   C158    1.416   .     A
C159   H177    1.082   .     S
C159   C95     1.391   1_655 S
C160   H178    1.082   .     S
Cu161  Cu162   2.706   .     S
Cu161  O170    1.955   .     S
Cu161  N166    2.034   .     S
Cu161  O167    1.961   .     S
Cu161  O174    1.951   .     S
Cu161  O171    1.960   .     S
Cu162  N165    2.034   .     S
Cu162  O169    1.955   .     S
Cu162  O173    1.951   .     S
Cu162  O168    1.961   .     S
Cu162  O172    1.960   .     S
N165   N718    1.293   1_554 S
N165   Cl735   1.726   1_554 S
N166   N441    1.293   .     S
N166   Cl460   1.726   .     S
Cl181  C235    1.778   .     S
Cl183  N441    1.726   .     S
Cl184  N718    1.726   1_554 S
C185   O215    1.296   .     A
C185   O213    1.290   .     A
C185   C189    1.424   .     S
C186   O214    1.290   .     A
C186   C190    1.424   .     S
C186   O216    1.296   .     A
C187   C204    1.408   .     A
C187   Cl225   1.766   .     S
C187   C251    1.391   1_455 S
C188   Cl226   1.766   .     S
C188   C203    1.408   .     A
C188   C252    1.391   .     S
C190   C5      1.349   1_565 S
C190   Cl44    1.778   1_565 S
C191   C196    1.444   .     S
C191   O217    1.298   .     A
C191   O219    1.297   .     A
C192   C195    1.444   .     S
C192   O220    1.297   .     A
C192   O218    1.298   .     A
C193   C195    1.392   .     A
C193   H209    1.083   .     S
C193   C203    1.394   .     A
C194   H210    1.083   .     S
C194   C196    1.392   .     A
C194   C204    1.394   .     A
C195   C197    1.402   .     A
C196   C198    1.402   .     A
C197   Cl221   1.775   .     S
C197   C199    1.406   .     A
C198   Cl222   1.775   .     S
C198   C200    1.406   .     A
C199   C205    1.404   .     A
C199   C201    1.419   .     A
C200   C202    1.419   .     A
C200   C206    1.404   .     A
C201   C203    1.416   .     A
C201   C248    1.408   .     S
C202   C204    1.416   .     A
C202   C247    1.408   1_455 S
C205   H223    1.082   .     S
C205   C233    1.391   .     S
C206   H224    1.082   .     S
C206   C234    1.391   1_455 S
Cu207  Cu208   2.706   .     S
Cu207  O216    1.955   .     S
Cu207  N212    2.034   .     S
Cu207  O213    1.961   .     S
Cu207  O220    1.951   .     S
Cu207  O217    1.960   .     S
Cu208  N211    2.034   .     S
Cu208  O215    1.955   .     S
Cu208  O219    1.951   .     S
Cu208  O214    1.961   .     S
Cu208  O218    1.960   .     S
N211   N764    1.293   1_554 S
N211   Cl781   1.726   1_554 S
N212   N487    1.293   .     S
N212   Cl506   1.726   .     S
Cl227  C5      1.778   1_565 S
Cl229  N487    1.726   .     S
Cl230  N764    1.726   1_554 S
C231   O261    1.296   .     A
C231   O259    1.290   .     A
C231   C235    1.424   .     S
C232   O260    1.290   .     A
C232   C236    1.424   .     S
C232   O262    1.296   .     A
C233   C250    1.408   .     A
C233   Cl271   1.766   .     S
C234   Cl272   1.766   .     S
C234   C249    1.408   .     A
C234   C206    1.391   1_655 S
C236   C51     1.349   1_565 S
C236   Cl90    1.778   1_565 S
C237   C242    1.444   .     S
C237   O263    1.298   .     A
C237   O265    1.297   .     A
C238   C241    1.444   .     S
C238   O266    1.297   .     A
C238   O264    1.298   .     A
C239   C241    1.392   .     A
C239   H255    1.083   .     S
C239   C249    1.394   .     A
C240   H256    1.083   .     S
C240   C242    1.392   .     A
C240   C250    1.394   .     A
C241   C243    1.402   .     A
C242   C244    1.402   .     A
C243   Cl267   1.775   .     S
C243   C245    1.406   .     A
C244   Cl268   1.775   .     S
C244   C246    1.406   .     A
C245   C251    1.404   .     A
C245   C247    1.419   .     A
C246   C248    1.419   .     A
C246   C252    1.404   .     A
C247   C249    1.416   .     A
C247   C202    1.408   1_655 S
C248   C250    1.416   .     A
C251   H269    1.082   .     S
C251   C187    1.391   1_655 S
C252   H270    1.082   .     S
Cu253  Cu254   2.706   .     S
Cu253  O262    1.955   .     S
Cu253  N258    2.034   .     S
Cu253  O259    1.961   .     S
Cu253  O266    1.951   .     S
Cu253  O263    1.960   .     S
Cu254  N257    2.034   .     S
Cu254  O261    1.955   .     S
Cu254  O265    1.951   .     S
Cu254  O260    1.961   .     S
Cu254  O264    1.960   .     S
N257   N810    1.293   1_554 S
N257   Cl827   1.726   1_554 S
N258   N533    1.293   .     S
N258   Cl552   1.726   .     S
Cl273  C51     1.778   1_565 S
Cl275  N533    1.726   .     S
Cl276  N810    1.726   1_554 S
C277   O307    1.296   .     A
C277   O305    1.290   .     A
C277   C281    1.424   .     S
C278   O306    1.290   .     A
C278   C282    1.424   .     S
C278   O308    1.296   .     A
C279   C296    1.408   .     A
C279   Cl317   1.766   .     S
C279   C343    1.391   1_455 S
C280   Cl318   1.766   .     S
C280   C295    1.408   .     A
C280   C344    1.391   .     S
C281   C466    1.349   1_545 S
C281   Cl503   1.778   1_545 S
C282   C373    1.349   .     S
C282   Cl412   1.778   .     S
C283   C288    1.444   .     S
C283   O309    1.298   .     A
C283   O311    1.297   .     A
C284   C287    1.444   .     S
C284   O312    1.297   .     A
C284   O310    1.298   .     A
C285   C287    1.392   .     A
C285   H301    1.083   .     S
C285   C295    1.394   .     A
C286   H302    1.083   .     S
C286   C288    1.392   .     A
C286   C296    1.394   .     A
C287   C289    1.402   .     A
C288   C290    1.402   .     A
C289   Cl313   1.775   .     S
C289   C291    1.406   .     A
C290   Cl314   1.775   .     S
C290   C292    1.406   .     A
C291   C297    1.404   .     A
C291   C293    1.419   .     A
C292   C294    1.419   .     A
C292   C298    1.404   .     A
C293   C295    1.416   .     A
C293   C340    1.408   .     S
C294   C296    1.416   .     A
C294   C339    1.408   1_455 S
C297   H315    1.082   .     S
C297   C325    1.391   .     S
C298   H316    1.082   .     S
C298   C326    1.391   1_455 S
Cu299  Cu300   2.706   .     S
Cu299  O308    1.955   .     S
Cu299  N304    2.034   .     S
Cu299  O305    1.961   .     S
Cu299  O312    1.951   .     S
Cu299  O309    1.960   .     S
Cu300  N303    2.034   .     S
Cu300  O307    1.955   .     S
Cu300  O311    1.951   .     S
Cu300  O306    1.961   .     S
Cu300  O310    1.960   .     S
N304   N579    1.293   .     S
N304   Cl598   1.726   .     S
Cl319  C373    1.778   .     S
Cl320  C466    1.778   1_545 S
Cl321  N579    1.726   .     S
C323   O353    1.296   .     A
C323   O351    1.290   .     A
C323   C327    1.424   .     S
C324   O352    1.290   .     A
C324   C328    1.424   .     S
C324   O354    1.296   .     A
C325   C342    1.408   .     A
C325   Cl363   1.766   .     S
C326   Cl364   1.766   .     S
C326   C341    1.408   .     A
C326   C298    1.391   1_655 S
C327   C512    1.349   1_545 S
C327   Cl549   1.778   1_545 S
C328   C419    1.349   .     S
C328   Cl458   1.778   .     S
C329   C334    1.444   .     S
C329   O355    1.298   .     A
C329   O357    1.297   .     A
C330   C333    1.444   .     S
C330   O358    1.297   .     A
C330   O356    1.298   .     A
C331   C333    1.392   .     A
C331   H347    1.083   .     S
C331   C341    1.394   .     A
C332   H348    1.083   .     S
C332   C334    1.392   .     A
C332   C342    1.394   .     A
C333   C335    1.402   .     A
C334   C336    1.402   .     A
C335   Cl359   1.775   .     S
C335   C337    1.406   .     A
C336   Cl360   1.775   .     S
C336   C338    1.406   .     A
C337   C343    1.404   .     A
C337   C339    1.419   .     A
C338   C340    1.419   .     A
C338   C344    1.404   .     A
C339   C341    1.416   .     A
C339   C294    1.408   1_655 S
C340   C342    1.416   .     A
C343   H361    1.082   .     S
C343   C279    1.391   1_655 S
C344   H362    1.082   .     S
Cu345  Cu346   2.706   .     S
Cu345  O354    1.955   .     S
Cu345  N350    2.034   .     S
Cu345  O351    1.961   .     S
Cu345  O358    1.951   .     S
Cu345  O355    1.960   .     S
Cu346  N349    2.034   .     S
Cu346  O353    1.955   .     S
Cu346  O357    1.951   .     S
Cu346  O352    1.961   .     S
Cu346  O356    1.960   .     S
N350   N625    1.293   .     S
N350   Cl644   1.726   .     S
Cl365  C419    1.778   .     S
Cl366  C512    1.778   1_545 S
Cl367  N625    1.726   .     S
C369   O399    1.296   .     A
C369   O397    1.290   .     A
C369   C373    1.424   .     S
C370   O398    1.290   .     A
C370   C374    1.424   .     S
C370   O400    1.296   .     A
C371   C388    1.408   .     A
C371   Cl409   1.766   .     S
C371   C435    1.391   1_455 S
C372   Cl410   1.766   .     S
C372   C387    1.408   .     A
C372   C436    1.391   .     S
C374   C465    1.349   .     S
C374   Cl504   1.778   .     S
C375   C380    1.444   .     S
C375   O401    1.298   .     A
C375   O403    1.297   .     A
C376   C379    1.444   .     S
C376   O404    1.297   .     A
C376   O402    1.298   .     A
C377   C379    1.392   .     A
C377   H393    1.083   .     S
C377   C387    1.394   .     A
C378   H394    1.083   .     S
C378   C380    1.392   .     A
C378   C388    1.394   .     A
C379   C381    1.402   .     A
C380   C382    1.402   .     A
C381   Cl405   1.775   .     S
C381   C383    1.406   .     A
C382   Cl406   1.775   .     S
C382   C384    1.406   .     A
C383   C389    1.404   .     A
C383   C385    1.419   .     A
C384   C386    1.419   .     A
C384   C390    1.404   .     A
C385   C387    1.416   .     A
C385   C432    1.408   .     S
C386   C388    1.416   .     A
C386   C431    1.408   1_455 S
C389   H407    1.082   .     S
C389   C417    1.391   .     S
C390   H408    1.082   .     S
C390   C418    1.391   1_455 S
Cu391  Cu392   2.706   .     S
Cu391  O400    1.955   .     S
Cu391  N396    2.034   .     S
Cu391  O397    1.961   .     S
Cu391  O404    1.951   .     S
Cu391  O401    1.960   .     S
Cu392  N395    2.034   .     S
Cu392  O399    1.955   .     S
Cu392  O403    1.951   .     S
Cu392  O398    1.961   .     S
Cu392  O402    1.960   .     S
N396   N671    1.293   .     S
N396   Cl690   1.726   .     S
Cl411  C465    1.778   .     S
Cl413  N671    1.726   .     S
C415   O445    1.296   .     A
C415   O443    1.290   .     A
C415   C419    1.424   .     S
C416   O444    1.290   .     A
C416   C420    1.424   .     S
C416   O446    1.296   .     A
C417   C434    1.408   .     A
C417   Cl455   1.766   .     S
C418   Cl456   1.766   .     S
C418   C433    1.408   .     A
C418   C390    1.391   1_655 S
C420   C511    1.349   .     S
C420   Cl550   1.778   .     S
C421   C426    1.444   .     S
C421   O447    1.298   .     A
C421   O449    1.297   .     A
C422   C425    1.444   .     S
C422   O450    1.297   .     A
C422   O448    1.298   .     A
C423   C425    1.392   .     A
C423   H439    1.083   .     S
C423   C433    1.394   .     A
C424   H440    1.083   .     S
C424   C426    1.392   .     A
C424   C434    1.394   .     A
C425   C427    1.402   .     A
C426   C428    1.402   .     A
C427   Cl451   1.775   .     S
C427   C429    1.406   .     A
C428   Cl452   1.775   .     S
C428   C430    1.406   .     A
C429   C435    1.404   .     A
C429   C431    1.419   .     A
C430   C432    1.419   .     A
C430   C436    1.404   .     A
C431   C433    1.416   .     A
C431   C386    1.408   1_655 S
C432   C434    1.416   .     A
C435   H453    1.082   .     S
C435   C371    1.391   1_655 S
C436   H454    1.082   .     S
Cu437  Cu438   2.706   .     S
Cu437  O446    1.955   .     S
Cu437  N442    2.034   .     S
Cu437  O443    1.961   .     S
Cu437  O450    1.951   .     S
Cu437  O447    1.960   .     S
Cu438  N441    2.034   .     S
Cu438  O445    1.955   .     S
Cu438  O449    1.951   .     S
Cu438  O444    1.961   .     S
Cu438  O448    1.960   .     S
N442   N717    1.293   .     S
N442   Cl736   1.726   .     S
Cl457  C511    1.778   .     S
Cl459  N717    1.726   .     S
C461   O491    1.296   .     A
C461   O489    1.290   .     A
C461   C465    1.424   .     S
C462   O490    1.290   .     A
C462   C466    1.424   .     S
C462   O492    1.296   .     A
C463   C480    1.408   .     A
C463   Cl501   1.766   .     S
C463   C527    1.391   1_455 S
C464   Cl502   1.766   .     S
C464   C479    1.408   .     A
C464   C528    1.391   .     S
C466   C281    1.349   1_565 S
C466   Cl320   1.778   1_565 S
C467   C472    1.444   .     S
C467   O493    1.298   .     A
C467   O495    1.297   .     A
C468   C471    1.444   .     S
C468   O496    1.297   .     A
C468   O494    1.298   .     A
C469   C471    1.392   .     A
C469   H485    1.083   .     S
C469   C479    1.394   .     A
C470   H486    1.083   .     S
C470   C472    1.392   .     A
C470   C480    1.394   .     A
C471   C473    1.402   .     A
C472   C474    1.402   .     A
C473   Cl497   1.775   .     S
C473   C475    1.406   .     A
C474   Cl498   1.775   .     S
C474   C476    1.406   .     A
C475   C481    1.404   .     A
C475   C477    1.419   .     A
C476   C478    1.419   .     A
C476   C482    1.404   .     A
C477   C479    1.416   .     A
C477   C524    1.408   .     S
C478   C480    1.416   .     A
C478   C523    1.408   1_455 S
C481   H499    1.082   .     S
C481   C509    1.391   .     S
C482   H500    1.082   .     S
C482   C510    1.391   1_455 S
Cu483  Cu484   2.706   .     S
Cu483  O492    1.955   .     S
Cu483  N488    2.034   .     S
Cu483  O489    1.961   .     S
Cu483  O496    1.951   .     S
Cu483  O493    1.960   .     S
Cu484  N487    2.034   .     S
Cu484  O491    1.955   .     S
Cu484  O495    1.951   .     S
Cu484  O490    1.961   .     S
Cu484  O494    1.960   .     S
N488   N763    1.293   .     S
N488   Cl782   1.726   .     S
Cl503  C281    1.778   1_565 S
Cl505  N763    1.726   .     S
C507   O537    1.296   .     A
C507   O535    1.290   .     A
C507   C511    1.424   .     S
C508   O536    1.290   .     A
C508   C512    1.424   .     S
C508   O538    1.296   .     A
C509   C526    1.408   .     A
C509   Cl547   1.766   .     S
C510   Cl548   1.766   .     S
C510   C525    1.408   .     A
C510   C482    1.391   1_655 S
C512   C327    1.349   1_565 S
C512   Cl366   1.778   1_565 S
C513   C518    1.444   .     S
C513   O539    1.298   .     A
C513   O541    1.297   .     A
C514   C517    1.444   .     S
C514   O542    1.297   .     A
C514   O540    1.298   .     A
C515   C517    1.392   .     A
C515   H531    1.083   .     S
C515   C525    1.394   .     A
C516   H532    1.083   .     S
C516   C518    1.392   .     A
C516   C526    1.394   .     A
C517   C519    1.402   .     A
C518   C520    1.402   .     A
C519   Cl543   1.775   .     S
C519   C521    1.406   .     A
C520   Cl544   1.775   .     S
C520   C522    1.406   .     A
C521   C527    1.404   .     A
C521   C523    1.419   .     A
C522   C524    1.419   .     A
C522   C528    1.404   .     A
C523   C525    1.416   .     A
C523   C478    1.408   1_655 S
C524   C526    1.416   .     A
C527   H545    1.082   .     S
C527   C463    1.391   1_655 S
C528   H546    1.082   .     S
Cu529  Cu530   2.706   .     S
Cu529  O538    1.955   .     S
Cu529  N534    2.034   .     S
Cu529  O535    1.961   .     S
Cu529  O542    1.951   .     S
Cu529  O539    1.960   .     S
Cu530  N533    2.034   .     S
Cu530  O537    1.955   .     S
Cu530  O541    1.951   .     S
Cu530  O536    1.961   .     S
Cu530  O540    1.960   .     S
N534   N809    1.293   .     S
N534   Cl828   1.726   .     S
Cl549  C327    1.778   1_565 S
Cl551  N809    1.726   .     S
C553   O583    1.296   .     A
C553   O581    1.290   .     A
C553   C557    1.424   .     S
C554   O582    1.290   .     A
C554   C558    1.424   .     S
C554   O584    1.296   .     A
C555   C572    1.408   .     A
C555   Cl593   1.766   .     S
C555   C619    1.391   1_455 S
C556   Cl594   1.766   .     S
C556   C571    1.408   .     A
C556   C620    1.391   .     S
C557   C742    1.349   1_545 S
C557   Cl779   1.778   1_545 S
C558   C649    1.349   .     S
C558   Cl688   1.778   .     S
C559   C564    1.444   .     S
C559   O585    1.298   .     A
C559   O587    1.297   .     A
C560   C563    1.444   .     S
C560   O588    1.297   .     A
C560   O586    1.298   .     A
C561   C563    1.392   .     A
C561   H577    1.083   .     S
C561   C571    1.394   .     A
C562   H578    1.083   .     S
C562   C564    1.392   .     A
C562   C572    1.394   .     A
C563   C565    1.402   .     A
C564   C566    1.402   .     A
C565   Cl589   1.775   .     S
C565   C567    1.406   .     A
C566   Cl590   1.775   .     S
C566   C568    1.406   .     A
C567   C573    1.404   .     A
C567   C569    1.419   .     A
C568   C570    1.419   .     A
C568   C574    1.404   .     A
C569   C571    1.416   .     A
C569   C616    1.408   .     S
C570   C572    1.416   .     A
C570   C615    1.408   1_455 S
C573   H591    1.082   .     S
C573   C601    1.391   .     S
C574   H592    1.082   .     S
C574   C602    1.391   1_455 S
Cu575  Cu576   2.706   .     S
Cu575  O584    1.955   .     S
Cu575  N580    2.034   .     S
Cu575  O581    1.961   .     S
Cu575  O588    1.951   .     S
Cu575  O585    1.960   .     S
Cu576  N579    2.034   .     S
Cu576  O583    1.955   .     S
Cu576  O587    1.951   .     S
Cu576  O582    1.961   .     S
Cu576  O586    1.960   .     S
N580   N27     1.293   1_556 S
N580   Cl46    1.726   1_556 S
Cl595  C649    1.778   .     S
Cl596  C742    1.778   1_545 S
Cl597  N27     1.726   1_556 S
C599   O629    1.296   .     A
C599   O627    1.290   .     A
C599   C603    1.424   .     S
C600   O628    1.290   .     A
C600   C604    1.424   .     S
C600   O630    1.296   .     A
C601   C618    1.408   .     A
C601   Cl639   1.766   .     S
C602   Cl640   1.766   .     S
C602   C617    1.408   .     A
C602   C574    1.391   1_655 S
C603   C788    1.349   1_545 S
C603   Cl825   1.778   1_545 S
C604   C695    1.349   .     S
C604   Cl734   1.778   .     S
C605   C610    1.444   .     S
C605   O631    1.298   .     A
C605   O633    1.297   .     A
C606   C609    1.444   .     S
C606   O634    1.297   .     A
C606   O632    1.298   .     A
C607   C609    1.392   .     A
C607   H623    1.083   .     S
C607   C617    1.394   .     A
C608   H624    1.083   .     S
C608   C610    1.392   .     A
C608   C618    1.394   .     A
C609   C611    1.402   .     A
C610   C612    1.402   .     A
C611   Cl635   1.775   .     S
C611   C613    1.406   .     A
C612   Cl636   1.775   .     S
C612   C614    1.406   .     A
C613   C619    1.404   .     A
C613   C615    1.419   .     A
C614   C616    1.419   .     A
C614   C620    1.404   .     A
C615   C617    1.416   .     A
C615   C570    1.408   1_655 S
C616   C618    1.416   .     A
C619   H637    1.082   .     S
C619   C555    1.391   1_655 S
C620   H638    1.082   .     S
Cu621  Cu622   2.706   .     S
Cu621  O630    1.955   .     S
Cu621  N626    2.034   .     S
Cu621  O627    1.961   .     S
Cu621  O634    1.951   .     S
Cu621  O631    1.960   .     S
Cu622  N625    2.034   .     S
Cu622  O629    1.955   .     S
Cu622  O633    1.951   .     S
Cu622  O628    1.961   .     S
Cu622  O632    1.960   .     S
N626   N73     1.293   1_556 S
N626   Cl92    1.726   1_556 S
Cl641  C695    1.778   .     S
Cl642  C788    1.778   1_545 S
Cl643  N73     1.726   1_556 S
C645   O675    1.296   .     A
C645   O673    1.290   .     A
C645   C649    1.424   .     S
C646   O674    1.290   .     A
C646   C650    1.424   .     S
C646   O676    1.296   .     A
C647   C664    1.408   .     A
C647   Cl685   1.766   .     S
C647   C711    1.391   1_455 S
C648   Cl686   1.766   .     S
C648   C663    1.408   .     A
C648   C712    1.391   .     S
C650   C741    1.349   .     S
C650   Cl780   1.778   .     S
C651   C656    1.444   .     S
C651   O677    1.298   .     A
C651   O679    1.297   .     A
C652   C655    1.444   .     S
C652   O680    1.297   .     A
C652   O678    1.298   .     A
C653   C655    1.392   .     A
C653   H669    1.083   .     S
C653   C663    1.394   .     A
C654   H670    1.083   .     S
C654   C656    1.392   .     A
C654   C664    1.394   .     A
C655   C657    1.402   .     A
C656   C658    1.402   .     A
C657   Cl681   1.775   .     S
C657   C659    1.406   .     A
C658   Cl682   1.775   .     S
C658   C660    1.406   .     A
C659   C665    1.404   .     A
C659   C661    1.419   .     A
C660   C662    1.419   .     A
C660   C666    1.404   .     A
C661   C663    1.416   .     A
C661   C708    1.408   .     S
C662   C664    1.416   .     A
C662   C707    1.408   1_455 S
C665   H683    1.082   .     S
C665   C693    1.391   .     S
C666   H684    1.082   .     S
C666   C694    1.391   1_455 S
Cu667  Cu668   2.706   .     S
Cu667  O676    1.955   .     S
Cu667  N672    2.034   .     S
Cu667  O673    1.961   .     S
Cu667  O680    1.951   .     S
Cu667  O677    1.960   .     S
Cu668  N671    2.034   .     S
Cu668  O675    1.955   .     S
Cu668  O679    1.951   .     S
Cu668  O674    1.961   .     S
Cu668  O678    1.960   .     S
N672   N119    1.293   1_556 S
N672   Cl138   1.726   1_556 S
Cl687  C741    1.778   .     S
Cl689  N119    1.726   1_556 S
C691   O721    1.296   .     A
C691   O719    1.290   .     A
C691   C695    1.424   .     S
C692   O720    1.290   .     A
C692   C696    1.424   .     S
C692   O722    1.296   .     A
C693   C710    1.408   .     A
C693   Cl731   1.766   .     S
C694   Cl732   1.766   .     S
C694   C709    1.408   .     A
C694   C666    1.391   1_655 S
C696   C787    1.349   .     S
C696   Cl826   1.778   .     S
C697   C702    1.444   .     S
C697   O723    1.298   .     A
C697   O725    1.297   .     A
C698   C701    1.444   .     S
C698   O726    1.297   .     A
C698   O724    1.298   .     A
C699   C701    1.392   .     A
C699   H715    1.083   .     S
C699   C709    1.394   .     A
C700   H716    1.083   .     S
C700   C702    1.392   .     A
C700   C710    1.394   .     A
C701   C703    1.402   .     A
C702   C704    1.402   .     A
C703   Cl727   1.775   .     S
C703   C705    1.406   .     A
C704   Cl728   1.775   .     S
C704   C706    1.406   .     A
C705   C711    1.404   .     A
C705   C707    1.419   .     A
C706   C708    1.419   .     A
C706   C712    1.404   .     A
C707   C709    1.416   .     A
C707   C662    1.408   1_655 S
C708   C710    1.416   .     A
C711   H729    1.082   .     S
C711   C647    1.391   1_655 S
C712   H730    1.082   .     S
Cu713  Cu714   2.706   .     S
Cu713  O722    1.955   .     S
Cu713  N718    2.034   .     S
Cu713  O719    1.961   .     S
Cu713  O726    1.951   .     S
Cu713  O723    1.960   .     S
Cu714  N717    2.034   .     S
Cu714  O721    1.955   .     S
Cu714  O725    1.951   .     S
Cu714  O720    1.961   .     S
Cu714  O724    1.960   .     S
N718   N165    1.293   1_556 S
N718   Cl184   1.726   1_556 S
Cl733  C787    1.778   .     S
Cl735  N165    1.726   1_556 S
C737   O767    1.296   .     A
C737   O765    1.290   .     A
C737   C741    1.424   .     S
C738   O766    1.290   .     A
C738   C742    1.424   .     S
C738   O768    1.296   .     A
C739   C756    1.408   .     A
C739   Cl777   1.766   .     S
C739   C803    1.391   1_455 S
C740   Cl778   1.766   .     S
C740   C755    1.408   .     A
C740   C804    1.391   .     S
C742   C557    1.349   1_565 S
C742   Cl596   1.778   1_565 S
C743   C748    1.444   .     S
C743   O769    1.298   .     A
C743   O771    1.297   .     A
C744   C747    1.444   .     S
C744   O772    1.297   .     A
C744   O770    1.298   .     A
C745   C747    1.392   .     A
C745   H761    1.083   .     S
C745   C755    1.394   .     A
C746   H762    1.083   .     S
C746   C748    1.392   .     A
C746   C756    1.394   .     A
C747   C749    1.402   .     A
C748   C750    1.402   .     A
C749   Cl773   1.775   .     S
C749   C751    1.406   .     A
C750   Cl774   1.775   .     S
C750   C752    1.406   .     A
C751   C757    1.404   .     A
C751   C753    1.419   .     A
C752   C754    1.419   .     A
C752   C758    1.404   .     A
C753   C755    1.416   .     A
C753   C800    1.408   .     S
C754   C756    1.416   .     A
C754   C799    1.408   1_455 S
C757   H775    1.082   .     S
C757   C785    1.391   .     S
C758   H776    1.082   .     S
C758   C786    1.391   1_455 S
Cu759  Cu760   2.706   .     S
Cu759  O768    1.955   .     S
Cu759  N764    2.034   .     S
Cu759  O765    1.961   .     S
Cu759  O772    1.951   .     S
Cu759  O769    1.960   .     S
Cu760  N763    2.034   .     S
Cu760  O767    1.955   .     S
Cu760  O771    1.951   .     S
Cu760  O766    1.961   .     S
Cu760  O770    1.960   .     S
N764   N211    1.293   1_556 S
N764   Cl230   1.726   1_556 S
Cl779  C557    1.778   1_565 S
Cl781  N211    1.726   1_556 S
C783   O813    1.296   .     A
C783   O811    1.290   .     A
C783   C787    1.424   .     S
C784   O812    1.290   .     A
C784   C788    1.424   .     S
C784   O814    1.296   .     A
C785   C802    1.408   .     A
C785   Cl823   1.766   .     S
C786   Cl824   1.766   .     S
C786   C801    1.408   .     A
C786   C758    1.391   1_655 S
C788   C603    1.349   1_565 S
C788   Cl642   1.778   1_565 S
C789   C794    1.444   .     S
C789   O815    1.298   .     A
C789   O817    1.297   .     A
C790   C793    1.444   .     S
C790   O818    1.297   .     A
C790   O816    1.298   .     A
C791   C793    1.392   .     A
C791   H807    1.083   .     S
C791   C801    1.394   .     A
C792   H808    1.083   .     S
C792   C794    1.392   .     A
C792   C802    1.394   .     A
C793   C795    1.402   .     A
C794   C796    1.402   .     A
C795   Cl819   1.775   .     S
C795   C797    1.406   .     A
C796   Cl820   1.775   .     S
C796   C798    1.406   .     A
C797   C803    1.404   .     A
C797   C799    1.419   .     A
C798   C800    1.419   .     A
C798   C804    1.404   .     A
C799   C801    1.416   .     A
C799   C754    1.408   1_655 S
C800   C802    1.416   .     A
C803   H821    1.082   .     S
C803   C739    1.391   1_655 S
C804   H822    1.082   .     S
Cu805  Cu806   2.706   .     S
Cu805  O814    1.955   .     S
Cu805  N810    2.034   .     S
Cu805  O811    1.961   .     S
Cu805  O818    1.951   .     S
Cu805  O815    1.960   .     S
Cu806  N809    2.034   .     S
Cu806  O813    1.955   .     S
Cu806  O817    1.951   .     S
Cu806  O812    1.961   .     S
Cu806  O816    1.960   .     S
N810   N257    1.293   1_556 S
N810   Cl276   1.726   1_556 S
Cl825  C603    1.778   1_565 S
Cl827  N257    1.726   1_556 S
