data_str_m2_o5_o17_pcu_sym.10
_audit_creation_date              2020-01-03
_audit_creation_method            'Materials Studio'
_symmetry_space_group_name_H-M    'P1'
_symmetry_Int_Tables_number       1
_symmetry_cell_setting            triclinic
loop_
_symmetry_equiv_pos_as_xyz
  x,y,z
_cell_length_a                    30.0900
_cell_length_b                    27.2435
_cell_length_c                    23.3536
_cell_angle_alpha                 90.0614
_cell_angle_beta                  89.8648
_cell_angle_gamma                 90.0026
loop_
_atom_site_label
_atom_site_type_symbol
_atom_site_fract_x
_atom_site_fract_y
_atom_site_fract_z
_atom_site_U_iso_or_equiv
_atom_site_adp_type
_atom_site_occupancy
O1     O     0.25000   0.09613   0.21425   0.00000  Uiso   1.00
O2     O     0.25000   0.23720   0.11908   0.00000  Uiso   1.00
O3     O     0.25000   0.23720   0.21425   0.00000  Uiso   1.00
O4     O     0.25000   0.09613   0.11908   0.00000  Uiso   1.00
C5     C     0.25000   0.07335   0.16665   0.00000  Uiso   1.00
C6     C     0.25000   0.25999   0.16669   0.00000  Uiso   1.00
O7     O     0.18513   0.16667   0.21427   0.00000  Uiso   1.00
O8     O     0.31487   0.16667   0.11907   0.00000  Uiso   1.00
O9     O     0.31487   0.16667   0.21427   0.00000  Uiso   1.00
O10    O     0.18513   0.16667   0.11907   0.00000  Uiso   1.00
C11    C     0.16413   0.16660   0.16678   0.00000  Uiso   1.00
C12    C     0.33587   0.16669   0.16664   0.00000  Uiso   1.00
Cu13   Cu    0.25000   0.16667   0.22303   0.00000  Uiso   1.00
Cu14   Cu    0.25000   0.16667   0.11031   0.00000  Uiso   1.00
N15    N     0.25000   0.16667   0.02561   0.00000  Uiso   1.00
N16    N     0.25000   0.16667   0.30773   0.00000  Uiso   1.00
C17    C     0.40697   0.19014   0.21044   0.00000  Uiso   1.00
C18    C     0.09303   0.13771   0.12662   0.00000  Uiso   1.00
C19    C     0.40715   0.13842   0.12593   0.00000  Uiso   1.00
C20    C     0.09287   0.18937   0.21117   0.00000  Uiso   1.00
C21    C     0.38414   0.16558   0.16711   0.00000  Uiso   1.00
C22    C     0.11586   0.16505   0.16764   0.00000  Uiso   1.00
C23    C     0.45345   0.13439   0.12850   0.00000  Uiso   1.00
C24    C     0.04654   0.18727   0.21393   0.00000  Uiso   1.00
C25    C     0.45329   0.18792   0.21339   0.00000  Uiso   1.00
C26    C     0.04675   0.13330   0.12943   0.00000  Uiso   1.00
C27    C     0.47670   0.16002   0.17192   0.00000  Uiso   1.00
C28    C     0.02330   0.15965   0.17223   0.00000  Uiso   1.00
C29    C     0.47682   0.10546   0.08826   0.00000  Uiso   1.00
C30    C     0.02313   0.21316   0.25686   0.00000  Uiso   1.00
C31    C     0.47654   0.21380   0.25638   0.00000  Uiso   1.00
C32    C     0.02344   0.10418   0.08940   0.00000  Uiso   1.00
C33    C     0.25000   0.02180   0.16664   0.00000  Uiso   1.00
C34    C     0.25000   0.31154   0.16669   0.00000  Uiso   1.00
H35    H     0.38826   0.21157   0.24125   0.00000  Uiso   1.00
H36    H     0.11167   0.11981   0.09283   0.00000  Uiso   1.00
H37    H     0.38860   0.11963   0.09279   0.00000  Uiso   1.00
H38    H     0.11142   0.21087   0.24201   0.00000  Uiso   1.00
O39    O     0.45455   0.08244   0.04386   0.00000  Uiso   1.00
C40    C     0.44023   0.03560   0.06195   0.00000  Uiso   1.00
H41    H     0.41337   0.02314   0.03290   0.00000  Uiso   1.00
H42    H     0.42637   0.03546   0.10627   0.00000  Uiso   1.00
H43    H     0.46767   0.00863   0.05833   0.00000  Uiso   1.00
O44    O     0.04547   0.24202   0.29623   0.00000  Uiso   1.00
C45    C     0.05696   0.21267   0.01034   0.00000  Uiso   1.00
H46    H     0.08011   0.18259   0.33146   0.00000  Uiso   1.00
H47    H     0.02708   0.19699   0.03134   0.00000  Uiso   1.00
H48    H     0.07411   0.23601   0.04237   0.00000  Uiso   1.00
O49    O     0.45432   0.24437   0.29433   0.00000  Uiso   1.00
C50    C     0.43665   0.21683   0.00707   0.00000  Uiso   1.00
H51    H     0.45525   0.22565   0.04671   0.00000  Uiso   1.00
H52    H     0.43673   0.17624   0.00059   0.00000  Uiso   1.00
H53    H     0.40168   0.22824   0.01419   0.00000  Uiso   1.00
O54    O     0.04564   0.07710   0.04807   0.00000  Uiso   1.00
C55    C     0.06051   0.03258   0.07254   0.00000  Uiso   1.00
H56    H     0.03583   0.01565   0.10218   0.00000  Uiso   1.00
H57    H     0.09230   0.03800   0.09566   0.00000  Uiso   1.00
H58    H     0.06677   0.00590   0.03752   0.00000  Uiso   1.00
O59    O     0.75000   0.09613   0.21425   0.00000  Uiso   1.00
O60    O     0.75000   0.23720   0.11908   0.00000  Uiso   1.00
O61    O     0.75000   0.23720   0.21425   0.00000  Uiso   1.00
O62    O     0.75000   0.09613   0.11908   0.00000  Uiso   1.00
C63    C     0.75000   0.07335   0.16665   0.00000  Uiso   1.00
C64    C     0.75000   0.25999   0.16669   0.00000  Uiso   1.00
O65    O     0.68513   0.16667   0.21427   0.00000  Uiso   1.00
O66    O     0.81487   0.16667   0.11907   0.00000  Uiso   1.00
O67    O     0.81487   0.16667   0.21427   0.00000  Uiso   1.00
O68    O     0.68513   0.16667   0.11907   0.00000  Uiso   1.00
C69    C     0.66413   0.16660   0.16678   0.00000  Uiso   1.00
C70    C     0.83587   0.16669   0.16664   0.00000  Uiso   1.00
Cu71   Cu    0.75000   0.16667   0.22303   0.00000  Uiso   1.00
Cu72   Cu    0.75000   0.16667   0.11031   0.00000  Uiso   1.00
N73    N     0.75000   0.16667   0.02561   0.00000  Uiso   1.00
N74    N     0.75000   0.16667   0.30773   0.00000  Uiso   1.00
C75    C     0.90697   0.19014   0.21044   0.00000  Uiso   1.00
C76    C     0.59303   0.13771   0.12662   0.00000  Uiso   1.00
C77    C     0.90715   0.13842   0.12593   0.00000  Uiso   1.00
C78    C     0.59287   0.18937   0.21117   0.00000  Uiso   1.00
C79    C     0.88414   0.16558   0.16711   0.00000  Uiso   1.00
C80    C     0.61586   0.16505   0.16764   0.00000  Uiso   1.00
C81    C     0.95345   0.13439   0.12850   0.00000  Uiso   1.00
C82    C     0.54654   0.18727   0.21393   0.00000  Uiso   1.00
C83    C     0.95329   0.18792   0.21339   0.00000  Uiso   1.00
C84    C     0.54675   0.13330   0.12943   0.00000  Uiso   1.00
C85    C     0.97670   0.16002   0.17192   0.00000  Uiso   1.00
C86    C     0.52330   0.15965   0.17223   0.00000  Uiso   1.00
C87    C     0.97682   0.10546   0.08826   0.00000  Uiso   1.00
C88    C     0.52313   0.21316   0.25686   0.00000  Uiso   1.00
C89    C     0.97654   0.21380   0.25638   0.00000  Uiso   1.00
C90    C     0.52344   0.10418   0.08940   0.00000  Uiso   1.00
C91    C     0.75000   0.02180   0.16664   0.00000  Uiso   1.00
C92    C     0.75000   0.31154   0.16669   0.00000  Uiso   1.00
H93    H     0.88826   0.21157   0.24125   0.00000  Uiso   1.00
H94    H     0.61167   0.11981   0.09283   0.00000  Uiso   1.00
H95    H     0.88860   0.11963   0.09279   0.00000  Uiso   1.00
H96    H     0.61142   0.21087   0.24201   0.00000  Uiso   1.00
O97    O     0.95455   0.08244   0.04386   0.00000  Uiso   1.00
C98    C     0.94023   0.03560   0.06195   0.00000  Uiso   1.00
H99    H     0.91337   0.02314   0.03290   0.00000  Uiso   1.00
H100   H     0.92637   0.03546   0.10627   0.00000  Uiso   1.00
H101   H     0.96767   0.00863   0.05833   0.00000  Uiso   1.00
O102   O     0.54547   0.24202   0.29623   0.00000  Uiso   1.00
C103   C     0.55696   0.21267   0.01034   0.00000  Uiso   1.00
H104   H     0.58011   0.18259   0.33146   0.00000  Uiso   1.00
H105   H     0.52708   0.19699   0.03134   0.00000  Uiso   1.00
H106   H     0.57411   0.23601   0.04237   0.00000  Uiso   1.00
O107   O     0.95432   0.24437   0.29433   0.00000  Uiso   1.00
C108   C     0.93665   0.21683   0.00707   0.00000  Uiso   1.00
H109   H     0.95525   0.22565   0.04671   0.00000  Uiso   1.00
H110   H     0.93673   0.17624   0.00059   0.00000  Uiso   1.00
H111   H     0.90168   0.22824   0.01419   0.00000  Uiso   1.00
O112   O     0.54564   0.07710   0.04807   0.00000  Uiso   1.00
C113   C     0.56051   0.03258   0.07254   0.00000  Uiso   1.00
H114   H     0.53583   0.01565   0.10218   0.00000  Uiso   1.00
H115   H     0.59230   0.03800   0.09566   0.00000  Uiso   1.00
H116   H     0.56677   0.00590   0.03752   0.00000  Uiso   1.00
O117   O     0.25000   0.42946   0.21425   0.00000  Uiso   1.00
O118   O     0.25000   0.57054   0.11908   0.00000  Uiso   1.00
O119   O     0.25000   0.57054   0.21425   0.00000  Uiso   1.00
O120   O     0.25000   0.42946   0.11908   0.00000  Uiso   1.00
C121   C     0.25000   0.40668   0.16665   0.00000  Uiso   1.00
C122   C     0.25000   0.59332   0.16669   0.00000  Uiso   1.00
O123   O     0.18513   0.50000   0.21427   0.00000  Uiso   1.00
O124   O     0.31487   0.50000   0.11907   0.00000  Uiso   1.00
O125   O     0.31487   0.50000   0.21427   0.00000  Uiso   1.00
O126   O     0.18513   0.50000   0.11907   0.00000  Uiso   1.00
C127   C     0.16413   0.49993   0.16678   0.00000  Uiso   1.00
C128   C     0.33587   0.50002   0.16664   0.00000  Uiso   1.00
Cu129  Cu    0.25000   0.50000   0.22303   0.00000  Uiso   1.00
Cu130  Cu    0.25000   0.50000   0.11031   0.00000  Uiso   1.00
N131   N     0.25000   0.50000   0.02561   0.00000  Uiso   1.00
N132   N     0.25000   0.50000   0.30773   0.00000  Uiso   1.00
C133   C     0.40697   0.52347   0.21044   0.00000  Uiso   1.00
C134   C     0.09303   0.47105   0.12662   0.00000  Uiso   1.00
C135   C     0.40715   0.47176   0.12593   0.00000  Uiso   1.00
C136   C     0.09287   0.52270   0.21117   0.00000  Uiso   1.00
C137   C     0.38414   0.49891   0.16711   0.00000  Uiso   1.00
C138   C     0.11586   0.49838   0.16764   0.00000  Uiso   1.00
C139   C     0.45345   0.46772   0.12850   0.00000  Uiso   1.00
C140   C     0.04654   0.52061   0.21393   0.00000  Uiso   1.00
C141   C     0.45329   0.52125   0.21339   0.00000  Uiso   1.00
C142   C     0.04675   0.46663   0.12943   0.00000  Uiso   1.00
C143   C     0.47670   0.49335   0.17192   0.00000  Uiso   1.00
C144   C     0.02330   0.49298   0.17223   0.00000  Uiso   1.00
C145   C     0.47682   0.43879   0.08826   0.00000  Uiso   1.00
C146   C     0.02313   0.54649   0.25686   0.00000  Uiso   1.00
C147   C     0.47654   0.54713   0.25638   0.00000  Uiso   1.00
C148   C     0.02344   0.43751   0.08940   0.00000  Uiso   1.00
C149   C     0.25000   0.35513   0.16664   0.00000  Uiso   1.00
C150   C     0.25000   0.64487   0.16669   0.00000  Uiso   1.00
H151   H     0.38826   0.54490   0.24125   0.00000  Uiso   1.00
H152   H     0.11167   0.45314   0.09283   0.00000  Uiso   1.00
H153   H     0.38860   0.45296   0.09279   0.00000  Uiso   1.00
H154   H     0.11142   0.54420   0.24201   0.00000  Uiso   1.00
O155   O     0.45455   0.41578   0.04386   0.00000  Uiso   1.00
C156   C     0.44023   0.36893   0.06195   0.00000  Uiso   1.00
H157   H     0.41337   0.35647   0.03290   0.00000  Uiso   1.00
H158   H     0.42637   0.36879   0.10627   0.00000  Uiso   1.00
H159   H     0.46767   0.34196   0.05833   0.00000  Uiso   1.00
O160   O     0.04547   0.57535   0.29623   0.00000  Uiso   1.00
C161   C     0.05696   0.54601   0.01034   0.00000  Uiso   1.00
H162   H     0.08011   0.51592   0.33146   0.00000  Uiso   1.00
H163   H     0.02708   0.53032   0.03134   0.00000  Uiso   1.00
H164   H     0.07411   0.56934   0.04237   0.00000  Uiso   1.00
O165   O     0.45432   0.57770   0.29433   0.00000  Uiso   1.00
C166   C     0.43665   0.55016   0.00707   0.00000  Uiso   1.00
H167   H     0.45525   0.55898   0.04671   0.00000  Uiso   1.00
H168   H     0.43673   0.50957   0.00059   0.00000  Uiso   1.00
H169   H     0.40168   0.56158   0.01419   0.00000  Uiso   1.00
O170   O     0.04564   0.41043   0.04807   0.00000  Uiso   1.00
C171   C     0.06051   0.36591   0.07254   0.00000  Uiso   1.00
H172   H     0.03583   0.34898   0.10218   0.00000  Uiso   1.00
H173   H     0.09230   0.37133   0.09566   0.00000  Uiso   1.00
H174   H     0.06677   0.33923   0.03752   0.00000  Uiso   1.00
O175   O     0.75000   0.42946   0.21425   0.00000  Uiso   1.00
O176   O     0.75000   0.57054   0.11908   0.00000  Uiso   1.00
O177   O     0.75000   0.57054   0.21425   0.00000  Uiso   1.00
O178   O     0.75000   0.42946   0.11908   0.00000  Uiso   1.00
C179   C     0.75000   0.40668   0.16665   0.00000  Uiso   1.00
C180   C     0.75000   0.59332   0.16669   0.00000  Uiso   1.00
O181   O     0.68513   0.50000   0.21427   0.00000  Uiso   1.00
O182   O     0.81487   0.50000   0.11907   0.00000  Uiso   1.00
O183   O     0.81487   0.50000   0.21427   0.00000  Uiso   1.00
O184   O     0.68513   0.50000   0.11907   0.00000  Uiso   1.00
C185   C     0.66413   0.49993   0.16678   0.00000  Uiso   1.00
C186   C     0.83587   0.50002   0.16664   0.00000  Uiso   1.00
Cu187  Cu    0.75000   0.50000   0.22303   0.00000  Uiso   1.00
Cu188  Cu    0.75000   0.50000   0.11031   0.00000  Uiso   1.00
N189   N     0.75000   0.50000   0.02561   0.00000  Uiso   1.00
N190   N     0.75000   0.50000   0.30773   0.00000  Uiso   1.00
C191   C     0.90697   0.52347   0.21044   0.00000  Uiso   1.00
C192   C     0.59303   0.47105   0.12662   0.00000  Uiso   1.00
C193   C     0.90715   0.47176   0.12593   0.00000  Uiso   1.00
C194   C     0.59287   0.52270   0.21117   0.00000  Uiso   1.00
C195   C     0.88414   0.49891   0.16711   0.00000  Uiso   1.00
C196   C     0.61586   0.49838   0.16764   0.00000  Uiso   1.00
C197   C     0.95345   0.46772   0.12850   0.00000  Uiso   1.00
C198   C     0.54654   0.52061   0.21393   0.00000  Uiso   1.00
C199   C     0.95329   0.52125   0.21339   0.00000  Uiso   1.00
C200   C     0.54675   0.46663   0.12943   0.00000  Uiso   1.00
C201   C     0.97670   0.49335   0.17192   0.00000  Uiso   1.00
C202   C     0.52330   0.49298   0.17223   0.00000  Uiso   1.00
C203   C     0.97682   0.43879   0.08826   0.00000  Uiso   1.00
C204   C     0.52313   0.54649   0.25686   0.00000  Uiso   1.00
C205   C     0.97654   0.54713   0.25638   0.00000  Uiso   1.00
C206   C     0.52344   0.43751   0.08940   0.00000  Uiso   1.00
C207   C     0.75000   0.35513   0.16664   0.00000  Uiso   1.00
C208   C     0.75000   0.64487   0.16669   0.00000  Uiso   1.00
H209   H     0.88826   0.54490   0.24125   0.00000  Uiso   1.00
H210   H     0.61167   0.45314   0.09283   0.00000  Uiso   1.00
H211   H     0.88860   0.45296   0.09279   0.00000  Uiso   1.00
H212   H     0.61142   0.54420   0.24201   0.00000  Uiso   1.00
O213   O     0.95455   0.41578   0.04386   0.00000  Uiso   1.00
C214   C     0.94023   0.36893   0.06195   0.00000  Uiso   1.00
H215   H     0.91337   0.35647   0.03290   0.00000  Uiso   1.00
H216   H     0.92637   0.36879   0.10627   0.00000  Uiso   1.00
H217   H     0.96767   0.34196   0.05833   0.00000  Uiso   1.00
O218   O     0.54547   0.57535   0.29623   0.00000  Uiso   1.00
C219   C     0.55696   0.54601   0.01034   0.00000  Uiso   1.00
H220   H     0.58011   0.51592   0.33146   0.00000  Uiso   1.00
H221   H     0.52708   0.53032   0.03134   0.00000  Uiso   1.00
H222   H     0.57411   0.56934   0.04237   0.00000  Uiso   1.00
O223   O     0.95432   0.57770   0.29433   0.00000  Uiso   1.00
C224   C     0.93665   0.55016   0.00707   0.00000  Uiso   1.00
H225   H     0.95525   0.55898   0.04671   0.00000  Uiso   1.00
H226   H     0.93673   0.50957   0.00059   0.00000  Uiso   1.00
H227   H     0.90168   0.56158   0.01419   0.00000  Uiso   1.00
O228   O     0.54564   0.41043   0.04807   0.00000  Uiso   1.00
C229   C     0.56051   0.36591   0.07254   0.00000  Uiso   1.00
H230   H     0.53583   0.34898   0.10218   0.00000  Uiso   1.00
H231   H     0.59230   0.37133   0.09566   0.00000  Uiso   1.00
H232   H     0.56677   0.33923   0.03752   0.00000  Uiso   1.00
O233   O     0.25000   0.76280   0.21425   0.00000  Uiso   1.00
O234   O     0.25000   0.90387   0.11908   0.00000  Uiso   1.00
O235   O     0.25000   0.90387   0.21425   0.00000  Uiso   1.00
O236   O     0.25000   0.76280   0.11908   0.00000  Uiso   1.00
C237   C     0.25000   0.74001   0.16665   0.00000  Uiso   1.00
C238   C     0.25000   0.92665   0.16669   0.00000  Uiso   1.00
O239   O     0.18513   0.83333   0.21427   0.00000  Uiso   1.00
O240   O     0.31487   0.83333   0.11907   0.00000  Uiso   1.00
O241   O     0.31487   0.83333   0.21427   0.00000  Uiso   1.00
O242   O     0.18513   0.83333   0.11907   0.00000  Uiso   1.00
C243   C     0.16413   0.83326   0.16678   0.00000  Uiso   1.00
C244   C     0.33587   0.83335   0.16664   0.00000  Uiso   1.00
Cu245  Cu    0.25000   0.83333   0.22303   0.00000  Uiso   1.00
Cu246  Cu    0.25000   0.83333   0.11031   0.00000  Uiso   1.00
N247   N     0.25000   0.83333   0.02561   0.00000  Uiso   1.00
N248   N     0.25000   0.83333   0.30773   0.00000  Uiso   1.00
C249   C     0.40697   0.85681   0.21044   0.00000  Uiso   1.00
C250   C     0.09303   0.80438   0.12662   0.00000  Uiso   1.00
C251   C     0.40715   0.80509   0.12593   0.00000  Uiso   1.00
C252   C     0.09287   0.85604   0.21117   0.00000  Uiso   1.00
C253   C     0.38414   0.83224   0.16711   0.00000  Uiso   1.00
C254   C     0.11586   0.83172   0.16764   0.00000  Uiso   1.00
C255   C     0.45345   0.80106   0.12850   0.00000  Uiso   1.00
C256   C     0.04654   0.85394   0.21393   0.00000  Uiso   1.00
C257   C     0.45329   0.85458   0.21339   0.00000  Uiso   1.00
C258   C     0.04675   0.79997   0.12943   0.00000  Uiso   1.00
C259   C     0.47670   0.82668   0.17192   0.00000  Uiso   1.00
C260   C     0.02330   0.82632   0.17223   0.00000  Uiso   1.00
C261   C     0.47682   0.77213   0.08826   0.00000  Uiso   1.00
C262   C     0.02313   0.87983   0.25686   0.00000  Uiso   1.00
C263   C     0.47654   0.88046   0.25638   0.00000  Uiso   1.00
C264   C     0.02344   0.77084   0.08940   0.00000  Uiso   1.00
C265   C     0.25000   0.68847   0.16664   0.00000  Uiso   1.00
C266   C     0.25000   0.97820   0.16669   0.00000  Uiso   1.00
H267   H     0.38826   0.87823   0.24125   0.00000  Uiso   1.00
H268   H     0.11167   0.78647   0.09283   0.00000  Uiso   1.00
H269   H     0.38860   0.78629   0.09279   0.00000  Uiso   1.00
H270   H     0.11142   0.87754   0.24201   0.00000  Uiso   1.00
O271   O     0.45455   0.74911   0.04386   0.00000  Uiso   1.00
C272   C     0.44023   0.70227   0.06195   0.00000  Uiso   1.00
H273   H     0.41337   0.68981   0.03290   0.00000  Uiso   1.00
H274   H     0.42637   0.70213   0.10627   0.00000  Uiso   1.00
H275   H     0.46767   0.67529   0.05833   0.00000  Uiso   1.00
O276   O     0.04547   0.90869   0.29623   0.00000  Uiso   1.00
C277   C     0.05696   0.87934   0.01034   0.00000  Uiso   1.00
H278   H     0.08011   0.84925   0.33146   0.00000  Uiso   1.00
H279   H     0.02708   0.86365   0.03134   0.00000  Uiso   1.00
H280   H     0.07411   0.90267   0.04237   0.00000  Uiso   1.00
O281   O     0.45432   0.91104   0.29433   0.00000  Uiso   1.00
C282   C     0.43665   0.88349   0.00707   0.00000  Uiso   1.00
H283   H     0.45525   0.89232   0.04671   0.00000  Uiso   1.00
H284   H     0.43673   0.84290   0.00059   0.00000  Uiso   1.00
H285   H     0.40168   0.89491   0.01419   0.00000  Uiso   1.00
O286   O     0.04564   0.74376   0.04807   0.00000  Uiso   1.00
C287   C     0.06051   0.69925   0.07254   0.00000  Uiso   1.00
H288   H     0.03583   0.68231   0.10218   0.00000  Uiso   1.00
H289   H     0.09230   0.70466   0.09566   0.00000  Uiso   1.00
H290   H     0.06677   0.67256   0.03752   0.00000  Uiso   1.00
O291   O     0.75000   0.76280   0.21425   0.00000  Uiso   1.00
O292   O     0.75000   0.90387   0.11908   0.00000  Uiso   1.00
O293   O     0.75000   0.90387   0.21425   0.00000  Uiso   1.00
O294   O     0.75000   0.76280   0.11908   0.00000  Uiso   1.00
C295   C     0.75000   0.74001   0.16665   0.00000  Uiso   1.00
C296   C     0.75000   0.92665   0.16669   0.00000  Uiso   1.00
O297   O     0.68513   0.83333   0.21427   0.00000  Uiso   1.00
O298   O     0.81487   0.83333   0.11907   0.00000  Uiso   1.00
O299   O     0.81487   0.83333   0.21427   0.00000  Uiso   1.00
O300   O     0.68513   0.83333   0.11907   0.00000  Uiso   1.00
C301   C     0.66413   0.83326   0.16678   0.00000  Uiso   1.00
C302   C     0.83587   0.83335   0.16664   0.00000  Uiso   1.00
Cu303  Cu    0.75000   0.83333   0.22303   0.00000  Uiso   1.00
Cu304  Cu    0.75000   0.83333   0.11031   0.00000  Uiso   1.00
N305   N     0.75000   0.83333   0.02561   0.00000  Uiso   1.00
N306   N     0.75000   0.83333   0.30773   0.00000  Uiso   1.00
C307   C     0.90697   0.85681   0.21044   0.00000  Uiso   1.00
C308   C     0.59303   0.80438   0.12662   0.00000  Uiso   1.00
C309   C     0.90715   0.80509   0.12593   0.00000  Uiso   1.00
C310   C     0.59287   0.85604   0.21117   0.00000  Uiso   1.00
C311   C     0.88414   0.83224   0.16711   0.00000  Uiso   1.00
C312   C     0.61586   0.83172   0.16764   0.00000  Uiso   1.00
C313   C     0.95345   0.80106   0.12850   0.00000  Uiso   1.00
C314   C     0.54654   0.85394   0.21393   0.00000  Uiso   1.00
C315   C     0.95329   0.85458   0.21339   0.00000  Uiso   1.00
C316   C     0.54675   0.79997   0.12943   0.00000  Uiso   1.00
C317   C     0.97670   0.82668   0.17192   0.00000  Uiso   1.00
C318   C     0.52330   0.82632   0.17223   0.00000  Uiso   1.00
C319   C     0.97682   0.77213   0.08826   0.00000  Uiso   1.00
C320   C     0.52313   0.87983   0.25686   0.00000  Uiso   1.00
C321   C     0.97654   0.88046   0.25638   0.00000  Uiso   1.00
C322   C     0.52344   0.77084   0.08940   0.00000  Uiso   1.00
C323   C     0.75000   0.68847   0.16664   0.00000  Uiso   1.00
C324   C     0.75000   0.97820   0.16669   0.00000  Uiso   1.00
H325   H     0.88826   0.87823   0.24125   0.00000  Uiso   1.00
H326   H     0.61167   0.78647   0.09283   0.00000  Uiso   1.00
H327   H     0.88860   0.78629   0.09279   0.00000  Uiso   1.00
H328   H     0.61142   0.87754   0.24201   0.00000  Uiso   1.00
O329   O     0.95455   0.74911   0.04386   0.00000  Uiso   1.00
C330   C     0.94023   0.70227   0.06195   0.00000  Uiso   1.00
H331   H     0.91337   0.68981   0.03290   0.00000  Uiso   1.00
H332   H     0.92637   0.70213   0.10627   0.00000  Uiso   1.00
H333   H     0.96767   0.67529   0.05833   0.00000  Uiso   1.00
O334   O     0.54547   0.90869   0.29623   0.00000  Uiso   1.00
C335   C     0.55696   0.87934   0.01034   0.00000  Uiso   1.00
H336   H     0.58011   0.84925   0.33146   0.00000  Uiso   1.00
H337   H     0.52708   0.86365   0.03134   0.00000  Uiso   1.00
H338   H     0.57411   0.90267   0.04237   0.00000  Uiso   1.00
O339   O     0.95432   0.91104   0.29433   0.00000  Uiso   1.00
C340   C     0.93665   0.88349   0.00707   0.00000  Uiso   1.00
H341   H     0.95525   0.89232   0.04671   0.00000  Uiso   1.00
H342   H     0.93673   0.84290   0.00059   0.00000  Uiso   1.00
H343   H     0.90168   0.89491   0.01419   0.00000  Uiso   1.00
O344   O     0.54564   0.74376   0.04807   0.00000  Uiso   1.00
C345   C     0.56051   0.69925   0.07254   0.00000  Uiso   1.00
H346   H     0.53583   0.68231   0.10218   0.00000  Uiso   1.00
H347   H     0.59230   0.70466   0.09566   0.00000  Uiso   1.00
H348   H     0.56677   0.67256   0.03752   0.00000  Uiso   1.00
O349   O     0.25000   0.09613   0.54759   0.00000  Uiso   1.00
O350   O     0.25000   0.23720   0.45241   0.00000  Uiso   1.00
O351   O     0.25000   0.23720   0.54759   0.00000  Uiso   1.00
O352   O     0.25000   0.09613   0.45241   0.00000  Uiso   1.00
C353   C     0.25000   0.07335   0.49998   0.00000  Uiso   1.00
C354   C     0.25000   0.25999   0.50002   0.00000  Uiso   1.00
O355   O     0.18513   0.16667   0.54760   0.00000  Uiso   1.00
O356   O     0.31487   0.16667   0.45240   0.00000  Uiso   1.00
O357   O     0.31487   0.16667   0.54760   0.00000  Uiso   1.00
O358   O     0.18513   0.16667   0.45240   0.00000  Uiso   1.00
C359   C     0.16413   0.16660   0.50012   0.00000  Uiso   1.00
C360   C     0.33587   0.16669   0.49998   0.00000  Uiso   1.00
Cu361  Cu    0.25000   0.16667   0.55636   0.00000  Uiso   1.00
Cu362  Cu    0.25000   0.16667   0.44364   0.00000  Uiso   1.00
N363   N     0.25000   0.16667   0.35894   0.00000  Uiso   1.00
N364   N     0.25000   0.16667   0.64106   0.00000  Uiso   1.00
C365   C     0.40697   0.19014   0.54378   0.00000  Uiso   1.00
C366   C     0.09303   0.13771   0.45995   0.00000  Uiso   1.00
C367   C     0.40715   0.13842   0.45927   0.00000  Uiso   1.00
C368   C     0.09287   0.18937   0.54450   0.00000  Uiso   1.00
C369   C     0.38414   0.16558   0.50044   0.00000  Uiso   1.00
C370   C     0.11586   0.16505   0.50098   0.00000  Uiso   1.00
C371   C     0.45345   0.13439   0.46183   0.00000  Uiso   1.00
C372   C     0.04654   0.18727   0.54727   0.00000  Uiso   1.00
C373   C     0.45329   0.18792   0.54673   0.00000  Uiso   1.00
C374   C     0.04675   0.13330   0.46277   0.00000  Uiso   1.00
C375   C     0.47670   0.16002   0.50525   0.00000  Uiso   1.00
C376   C     0.02330   0.15965   0.50557   0.00000  Uiso   1.00
C377   C     0.47682   0.10546   0.42159   0.00000  Uiso   1.00
C378   C     0.02313   0.21316   0.59020   0.00000  Uiso   1.00
C379   C     0.47654   0.21380   0.58971   0.00000  Uiso   1.00
C380   C     0.02344   0.10418   0.42273   0.00000  Uiso   1.00
C381   C     0.25000   0.02180   0.49997   0.00000  Uiso   1.00
C382   C     0.25000   0.31154   0.50002   0.00000  Uiso   1.00
H383   H     0.38826   0.21157   0.57458   0.00000  Uiso   1.00
H384   H     0.11167   0.11981   0.42616   0.00000  Uiso   1.00
H385   H     0.38860   0.11963   0.42612   0.00000  Uiso   1.00
H386   H     0.11142   0.21087   0.57534   0.00000  Uiso   1.00
O387   O     0.45455   0.08244   0.37719   0.00000  Uiso   1.00
C388   C     0.44023   0.03560   0.39529   0.00000  Uiso   1.00
H389   H     0.41337   0.02314   0.36623   0.00000  Uiso   1.00
H390   H     0.42637   0.03546   0.43960   0.00000  Uiso   1.00
H391   H     0.46767   0.00863   0.39167   0.00000  Uiso   1.00
O392   O     0.04547   0.24202   0.62956   0.00000  Uiso   1.00
C393   C     0.05696   0.21267   0.34367   0.00000  Uiso   1.00
H394   H     0.08011   0.18259   0.66479   0.00000  Uiso   1.00
H395   H     0.02708   0.19699   0.36467   0.00000  Uiso   1.00
H396   H     0.07411   0.23601   0.37570   0.00000  Uiso   1.00
O397   O     0.45432   0.24437   0.62766   0.00000  Uiso   1.00
C398   C     0.43665   0.21683   0.34040   0.00000  Uiso   1.00
H399   H     0.45525   0.22565   0.38004   0.00000  Uiso   1.00
H400   H     0.43673   0.17624   0.33393   0.00000  Uiso   1.00
H401   H     0.40168   0.22824   0.34752   0.00000  Uiso   1.00
O402   O     0.04564   0.07710   0.38140   0.00000  Uiso   1.00
C403   C     0.06051   0.03258   0.40587   0.00000  Uiso   1.00
H404   H     0.03583   0.01565   0.43551   0.00000  Uiso   1.00
H405   H     0.09230   0.03800   0.42900   0.00000  Uiso   1.00
H406   H     0.06677   0.00590   0.37085   0.00000  Uiso   1.00
O407   O     0.75000   0.09613   0.54759   0.00000  Uiso   1.00
O408   O     0.75000   0.23720   0.45241   0.00000  Uiso   1.00
O409   O     0.75000   0.23720   0.54759   0.00000  Uiso   1.00
O410   O     0.75000   0.09613   0.45241   0.00000  Uiso   1.00
C411   C     0.75000   0.07335   0.49998   0.00000  Uiso   1.00
C412   C     0.75000   0.25999   0.50002   0.00000  Uiso   1.00
O413   O     0.68513   0.16667   0.54760   0.00000  Uiso   1.00
O414   O     0.81487   0.16667   0.45240   0.00000  Uiso   1.00
O415   O     0.81487   0.16667   0.54760   0.00000  Uiso   1.00
O416   O     0.68513   0.16667   0.45240   0.00000  Uiso   1.00
C417   C     0.66413   0.16660   0.50012   0.00000  Uiso   1.00
C418   C     0.83587   0.16669   0.49998   0.00000  Uiso   1.00
Cu419  Cu    0.75000   0.16667   0.55636   0.00000  Uiso   1.00
Cu420  Cu    0.75000   0.16667   0.44364   0.00000  Uiso   1.00
N421   N     0.75000   0.16667   0.35894   0.00000  Uiso   1.00
N422   N     0.75000   0.16667   0.64106   0.00000  Uiso   1.00
C423   C     0.90697   0.19014   0.54378   0.00000  Uiso   1.00
C424   C     0.59303   0.13771   0.45995   0.00000  Uiso   1.00
C425   C     0.90715   0.13842   0.45927   0.00000  Uiso   1.00
C426   C     0.59287   0.18937   0.54450   0.00000  Uiso   1.00
C427   C     0.88414   0.16558   0.50044   0.00000  Uiso   1.00
C428   C     0.61586   0.16505   0.50098   0.00000  Uiso   1.00
C429   C     0.95345   0.13439   0.46183   0.00000  Uiso   1.00
C430   C     0.54654   0.18727   0.54727   0.00000  Uiso   1.00
C431   C     0.95329   0.18792   0.54673   0.00000  Uiso   1.00
C432   C     0.54675   0.13330   0.46277   0.00000  Uiso   1.00
C433   C     0.97670   0.16002   0.50525   0.00000  Uiso   1.00
C434   C     0.52330   0.15965   0.50557   0.00000  Uiso   1.00
C435   C     0.97682   0.10546   0.42159   0.00000  Uiso   1.00
C436   C     0.52313   0.21316   0.59020   0.00000  Uiso   1.00
C437   C     0.97654   0.21380   0.58971   0.00000  Uiso   1.00
C438   C     0.52344   0.10418   0.42273   0.00000  Uiso   1.00
C439   C     0.75000   0.02180   0.49997   0.00000  Uiso   1.00
C440   C     0.75000   0.31154   0.50002   0.00000  Uiso   1.00
H441   H     0.88826   0.21157   0.57458   0.00000  Uiso   1.00
H442   H     0.61167   0.11981   0.42616   0.00000  Uiso   1.00
H443   H     0.88860   0.11963   0.42612   0.00000  Uiso   1.00
H444   H     0.61142   0.21087   0.57534   0.00000  Uiso   1.00
O445   O     0.95455   0.08244   0.37719   0.00000  Uiso   1.00
C446   C     0.94023   0.03560   0.39529   0.00000  Uiso   1.00
H447   H     0.91337   0.02314   0.36623   0.00000  Uiso   1.00
H448   H     0.92637   0.03546   0.43960   0.00000  Uiso   1.00
H449   H     0.96767   0.00863   0.39167   0.00000  Uiso   1.00
O450   O     0.54547   0.24202   0.62956   0.00000  Uiso   1.00
C451   C     0.55696   0.21267   0.34367   0.00000  Uiso   1.00
H452   H     0.58011   0.18259   0.66479   0.00000  Uiso   1.00
H453   H     0.52708   0.19699   0.36467   0.00000  Uiso   1.00
H454   H     0.57411   0.23601   0.37570   0.00000  Uiso   1.00
O455   O     0.95432   0.24437   0.62766   0.00000  Uiso   1.00
C456   C     0.93665   0.21683   0.34040   0.00000  Uiso   1.00
H457   H     0.95525   0.22565   0.38004   0.00000  Uiso   1.00
H458   H     0.93673   0.17624   0.33393   0.00000  Uiso   1.00
H459   H     0.90168   0.22824   0.34752   0.00000  Uiso   1.00
O460   O     0.54564   0.07710   0.38140   0.00000  Uiso   1.00
C461   C     0.56051   0.03258   0.40587   0.00000  Uiso   1.00
H462   H     0.53583   0.01565   0.43551   0.00000  Uiso   1.00
H463   H     0.59230   0.03800   0.42900   0.00000  Uiso   1.00
H464   H     0.56677   0.00590   0.37085   0.00000  Uiso   1.00
O465   O     0.25000   0.42946   0.54759   0.00000  Uiso   1.00
O466   O     0.25000   0.57054   0.45241   0.00000  Uiso   1.00
O467   O     0.25000   0.57054   0.54759   0.00000  Uiso   1.00
O468   O     0.25000   0.42946   0.45241   0.00000  Uiso   1.00
C469   C     0.25000   0.40668   0.49998   0.00000  Uiso   1.00
C470   C     0.25000   0.59332   0.50002   0.00000  Uiso   1.00
O471   O     0.18513   0.50000   0.54760   0.00000  Uiso   1.00
O472   O     0.31487   0.50000   0.45240   0.00000  Uiso   1.00
O473   O     0.31487   0.50000   0.54760   0.00000  Uiso   1.00
O474   O     0.18513   0.50000   0.45240   0.00000  Uiso   1.00
C475   C     0.16413   0.49993   0.50012   0.00000  Uiso   1.00
C476   C     0.33587   0.50002   0.49998   0.00000  Uiso   1.00
Cu477  Cu    0.25000   0.50000   0.55636   0.00000  Uiso   1.00
Cu478  Cu    0.25000   0.50000   0.44364   0.00000  Uiso   1.00
N479   N     0.25000   0.50000   0.35894   0.00000  Uiso   1.00
N480   N     0.25000   0.50000   0.64106   0.00000  Uiso   1.00
C481   C     0.40697   0.52347   0.54378   0.00000  Uiso   1.00
C482   C     0.09303   0.47105   0.45995   0.00000  Uiso   1.00
C483   C     0.40715   0.47176   0.45927   0.00000  Uiso   1.00
C484   C     0.09287   0.52270   0.54450   0.00000  Uiso   1.00
C485   C     0.38414   0.49891   0.50044   0.00000  Uiso   1.00
C486   C     0.11586   0.49838   0.50098   0.00000  Uiso   1.00
C487   C     0.45345   0.46772   0.46183   0.00000  Uiso   1.00
C488   C     0.04654   0.52061   0.54727   0.00000  Uiso   1.00
C489   C     0.45329   0.52125   0.54673   0.00000  Uiso   1.00
C490   C     0.04675   0.46663   0.46277   0.00000  Uiso   1.00
C491   C     0.47670   0.49335   0.50525   0.00000  Uiso   1.00
C492   C     0.02330   0.49298   0.50557   0.00000  Uiso   1.00
C493   C     0.47682   0.43879   0.42159   0.00000  Uiso   1.00
C494   C     0.02313   0.54649   0.59020   0.00000  Uiso   1.00
C495   C     0.47654   0.54713   0.58971   0.00000  Uiso   1.00
C496   C     0.02344   0.43751   0.42273   0.00000  Uiso   1.00
C497   C     0.25000   0.35513   0.49997   0.00000  Uiso   1.00
C498   C     0.25000   0.64487   0.50002   0.00000  Uiso   1.00
H499   H     0.38826   0.54490   0.57458   0.00000  Uiso   1.00
H500   H     0.11167   0.45314   0.42616   0.00000  Uiso   1.00
H501   H     0.38860   0.45296   0.42612   0.00000  Uiso   1.00
H502   H     0.11142   0.54420   0.57534   0.00000  Uiso   1.00
O503   O     0.45455   0.41578   0.37719   0.00000  Uiso   1.00
C504   C     0.44023   0.36893   0.39529   0.00000  Uiso   1.00
H505   H     0.41337   0.35647   0.36623   0.00000  Uiso   1.00
H506   H     0.42637   0.36879   0.43960   0.00000  Uiso   1.00
H507   H     0.46767   0.34196   0.39167   0.00000  Uiso   1.00
O508   O     0.04547   0.57535   0.62956   0.00000  Uiso   1.00
C509   C     0.05696   0.54601   0.34367   0.00000  Uiso   1.00
H510   H     0.08011   0.51592   0.66479   0.00000  Uiso   1.00
H511   H     0.02708   0.53032   0.36467   0.00000  Uiso   1.00
H512   H     0.07411   0.56934   0.37570   0.00000  Uiso   1.00
O513   O     0.45432   0.57770   0.62766   0.00000  Uiso   1.00
C514   C     0.43665   0.55016   0.34040   0.00000  Uiso   1.00
H515   H     0.45525   0.55898   0.38004   0.00000  Uiso   1.00
H516   H     0.43673   0.50957   0.33393   0.00000  Uiso   1.00
H517   H     0.40168   0.56158   0.34752   0.00000  Uiso   1.00
O518   O     0.04564   0.41043   0.38140   0.00000  Uiso   1.00
C519   C     0.06051   0.36591   0.40587   0.00000  Uiso   1.00
H520   H     0.03583   0.34898   0.43551   0.00000  Uiso   1.00
H521   H     0.09230   0.37133   0.42900   0.00000  Uiso   1.00
H522   H     0.06677   0.33923   0.37085   0.00000  Uiso   1.00
O523   O     0.75000   0.42946   0.54759   0.00000  Uiso   1.00
O524   O     0.75000   0.57054   0.45241   0.00000  Uiso   1.00
O525   O     0.75000   0.57054   0.54759   0.00000  Uiso   1.00
O526   O     0.75000   0.42946   0.45241   0.00000  Uiso   1.00
C527   C     0.75000   0.40668   0.49998   0.00000  Uiso   1.00
C528   C     0.75000   0.59332   0.50002   0.00000  Uiso   1.00
O529   O     0.68513   0.50000   0.54760   0.00000  Uiso   1.00
O530   O     0.81487   0.50000   0.45240   0.00000  Uiso   1.00
O531   O     0.81487   0.50000   0.54760   0.00000  Uiso   1.00
O532   O     0.68513   0.50000   0.45240   0.00000  Uiso   1.00
C533   C     0.66413   0.49993   0.50012   0.00000  Uiso   1.00
C534   C     0.83587   0.50002   0.49998   0.00000  Uiso   1.00
Cu535  Cu    0.75000   0.50000   0.55636   0.00000  Uiso   1.00
Cu536  Cu    0.75000   0.50000   0.44364   0.00000  Uiso   1.00
N537   N     0.75000   0.50000   0.35894   0.00000  Uiso   1.00
N538   N     0.75000   0.50000   0.64106   0.00000  Uiso   1.00
C539   C     0.90697   0.52347   0.54378   0.00000  Uiso   1.00
C540   C     0.59303   0.47105   0.45995   0.00000  Uiso   1.00
C541   C     0.90715   0.47176   0.45927   0.00000  Uiso   1.00
C542   C     0.59287   0.52270   0.54450   0.00000  Uiso   1.00
C543   C     0.88414   0.49891   0.50044   0.00000  Uiso   1.00
C544   C     0.61586   0.49838   0.50098   0.00000  Uiso   1.00
C545   C     0.95345   0.46772   0.46183   0.00000  Uiso   1.00
C546   C     0.54654   0.52061   0.54727   0.00000  Uiso   1.00
C547   C     0.95329   0.52125   0.54673   0.00000  Uiso   1.00
C548   C     0.54675   0.46663   0.46277   0.00000  Uiso   1.00
C549   C     0.97670   0.49335   0.50525   0.00000  Uiso   1.00
C550   C     0.52330   0.49298   0.50557   0.00000  Uiso   1.00
C551   C     0.97682   0.43879   0.42159   0.00000  Uiso   1.00
C552   C     0.52313   0.54649   0.59020   0.00000  Uiso   1.00
C553   C     0.97654   0.54713   0.58971   0.00000  Uiso   1.00
C554   C     0.52344   0.43751   0.42273   0.00000  Uiso   1.00
C555   C     0.75000   0.35513   0.49997   0.00000  Uiso   1.00
C556   C     0.75000   0.64487   0.50002   0.00000  Uiso   1.00
H557   H     0.88826   0.54490   0.57458   0.00000  Uiso   1.00
H558   H     0.61167   0.45314   0.42616   0.00000  Uiso   1.00
H559   H     0.88860   0.45296   0.42612   0.00000  Uiso   1.00
H560   H     0.61142   0.54420   0.57534   0.00000  Uiso   1.00
O561   O     0.95455   0.41578   0.37719   0.00000  Uiso   1.00
C562   C     0.94023   0.36893   0.39529   0.00000  Uiso   1.00
H563   H     0.91337   0.35647   0.36623   0.00000  Uiso   1.00
H564   H     0.92637   0.36879   0.43960   0.00000  Uiso   1.00
H565   H     0.96767   0.34196   0.39167   0.00000  Uiso   1.00
O566   O     0.54547   0.57535   0.62956   0.00000  Uiso   1.00
C567   C     0.55696   0.54601   0.34367   0.00000  Uiso   1.00
H568   H     0.58011   0.51592   0.66479   0.00000  Uiso   1.00
H569   H     0.52708   0.53032   0.36467   0.00000  Uiso   1.00
H570   H     0.57411   0.56934   0.37570   0.00000  Uiso   1.00
O571   O     0.95432   0.57770   0.62766   0.00000  Uiso   1.00
C572   C     0.93665   0.55016   0.34040   0.00000  Uiso   1.00
H573   H     0.95525   0.55898   0.38004   0.00000  Uiso   1.00
H574   H     0.93673   0.50957   0.33393   0.00000  Uiso   1.00
H575   H     0.90168   0.56158   0.34752   0.00000  Uiso   1.00
O576   O     0.54564   0.41043   0.38140   0.00000  Uiso   1.00
C577   C     0.56051   0.36591   0.40587   0.00000  Uiso   1.00
H578   H     0.53583   0.34898   0.43551   0.00000  Uiso   1.00
H579   H     0.59230   0.37133   0.42900   0.00000  Uiso   1.00
H580   H     0.56677   0.33923   0.37085   0.00000  Uiso   1.00
O581   O     0.25000   0.76280   0.54759   0.00000  Uiso   1.00
O582   O     0.25000   0.90387   0.45241   0.00000  Uiso   1.00
O583   O     0.25000   0.90387   0.54759   0.00000  Uiso   1.00
O584   O     0.25000   0.76280   0.45241   0.00000  Uiso   1.00
C585   C     0.25000   0.74001   0.49998   0.00000  Uiso   1.00
C586   C     0.25000   0.92665   0.50002   0.00000  Uiso   1.00
O587   O     0.18513   0.83333   0.54760   0.00000  Uiso   1.00
O588   O     0.31487   0.83333   0.45240   0.00000  Uiso   1.00
O589   O     0.31487   0.83333   0.54760   0.00000  Uiso   1.00
O590   O     0.18513   0.83333   0.45240   0.00000  Uiso   1.00
C591   C     0.16413   0.83326   0.50012   0.00000  Uiso   1.00
C592   C     0.33587   0.83335   0.49998   0.00000  Uiso   1.00
Cu593  Cu    0.25000   0.83333   0.55636   0.00000  Uiso   1.00
Cu594  Cu    0.25000   0.83333   0.44364   0.00000  Uiso   1.00
N595   N     0.25000   0.83333   0.35894   0.00000  Uiso   1.00
N596   N     0.25000   0.83333   0.64106   0.00000  Uiso   1.00
C597   C     0.40697   0.85681   0.54378   0.00000  Uiso   1.00
C598   C     0.09303   0.80438   0.45995   0.00000  Uiso   1.00
C599   C     0.40715   0.80509   0.45927   0.00000  Uiso   1.00
C600   C     0.09287   0.85604   0.54450   0.00000  Uiso   1.00
C601   C     0.38414   0.83224   0.50044   0.00000  Uiso   1.00
C602   C     0.11586   0.83172   0.50098   0.00000  Uiso   1.00
C603   C     0.45345   0.80106   0.46183   0.00000  Uiso   1.00
C604   C     0.04654   0.85394   0.54727   0.00000  Uiso   1.00
C605   C     0.45329   0.85458   0.54673   0.00000  Uiso   1.00
C606   C     0.04675   0.79997   0.46277   0.00000  Uiso   1.00
C607   C     0.47670   0.82668   0.50525   0.00000  Uiso   1.00
C608   C     0.02330   0.82632   0.50557   0.00000  Uiso   1.00
C609   C     0.47682   0.77213   0.42159   0.00000  Uiso   1.00
C610   C     0.02313   0.87983   0.59020   0.00000  Uiso   1.00
C611   C     0.47654   0.88046   0.58971   0.00000  Uiso   1.00
C612   C     0.02344   0.77084   0.42273   0.00000  Uiso   1.00
C613   C     0.25000   0.68847   0.49997   0.00000  Uiso   1.00
C614   C     0.25000   0.97820   0.50002   0.00000  Uiso   1.00
H615   H     0.38826   0.87823   0.57458   0.00000  Uiso   1.00
H616   H     0.11167   0.78647   0.42616   0.00000  Uiso   1.00
H617   H     0.38860   0.78629   0.42612   0.00000  Uiso   1.00
H618   H     0.11142   0.87754   0.57534   0.00000  Uiso   1.00
O619   O     0.45455   0.74911   0.37719   0.00000  Uiso   1.00
C620   C     0.44023   0.70227   0.39529   0.00000  Uiso   1.00
H621   H     0.41337   0.68981   0.36623   0.00000  Uiso   1.00
H622   H     0.42637   0.70213   0.43960   0.00000  Uiso   1.00
H623   H     0.46767   0.67529   0.39167   0.00000  Uiso   1.00
O624   O     0.04547   0.90869   0.62956   0.00000  Uiso   1.00
C625   C     0.05696   0.87934   0.34367   0.00000  Uiso   1.00
H626   H     0.08011   0.84925   0.66479   0.00000  Uiso   1.00
H627   H     0.02708   0.86365   0.36467   0.00000  Uiso   1.00
H628   H     0.07411   0.90267   0.37570   0.00000  Uiso   1.00
O629   O     0.45432   0.91104   0.62766   0.00000  Uiso   1.00
C630   C     0.43665   0.88349   0.34040   0.00000  Uiso   1.00
H631   H     0.45525   0.89232   0.38004   0.00000  Uiso   1.00
H632   H     0.43673   0.84290   0.33393   0.00000  Uiso   1.00
H633   H     0.40168   0.89491   0.34752   0.00000  Uiso   1.00
O634   O     0.04564   0.74376   0.38140   0.00000  Uiso   1.00
C635   C     0.06051   0.69925   0.40587   0.00000  Uiso   1.00
H636   H     0.03583   0.68231   0.43551   0.00000  Uiso   1.00
H637   H     0.09230   0.70466   0.42900   0.00000  Uiso   1.00
H638   H     0.06677   0.67256   0.37085   0.00000  Uiso   1.00
O639   O     0.75000   0.76280   0.54759   0.00000  Uiso   1.00
O640   O     0.75000   0.90387   0.45241   0.00000  Uiso   1.00
O641   O     0.75000   0.90387   0.54759   0.00000  Uiso   1.00
O642   O     0.75000   0.76280   0.45241   0.00000  Uiso   1.00
C643   C     0.75000   0.74001   0.49998   0.00000  Uiso   1.00
C644   C     0.75000   0.92665   0.50002   0.00000  Uiso   1.00
O645   O     0.68513   0.83333   0.54760   0.00000  Uiso   1.00
O646   O     0.81487   0.83333   0.45240   0.00000  Uiso   1.00
O647   O     0.81487   0.83333   0.54760   0.00000  Uiso   1.00
O648   O     0.68513   0.83333   0.45240   0.00000  Uiso   1.00
C649   C     0.66413   0.83326   0.50012   0.00000  Uiso   1.00
C650   C     0.83587   0.83335   0.49998   0.00000  Uiso   1.00
Cu651  Cu    0.75000   0.83333   0.55636   0.00000  Uiso   1.00
Cu652  Cu    0.75000   0.83333   0.44364   0.00000  Uiso   1.00
N653   N     0.75000   0.83333   0.35894   0.00000  Uiso   1.00
N654   N     0.75000   0.83333   0.64106   0.00000  Uiso   1.00
C655   C     0.90697   0.85681   0.54378   0.00000  Uiso   1.00
C656   C     0.59303   0.80438   0.45995   0.00000  Uiso   1.00
C657   C     0.90715   0.80509   0.45927   0.00000  Uiso   1.00
C658   C     0.59287   0.85604   0.54450   0.00000  Uiso   1.00
C659   C     0.88414   0.83224   0.50044   0.00000  Uiso   1.00
C660   C     0.61586   0.83172   0.50098   0.00000  Uiso   1.00
C661   C     0.95345   0.80106   0.46183   0.00000  Uiso   1.00
C662   C     0.54654   0.85394   0.54727   0.00000  Uiso   1.00
C663   C     0.95329   0.85458   0.54673   0.00000  Uiso   1.00
C664   C     0.54675   0.79997   0.46277   0.00000  Uiso   1.00
C665   C     0.97670   0.82668   0.50525   0.00000  Uiso   1.00
C666   C     0.52330   0.82632   0.50557   0.00000  Uiso   1.00
C667   C     0.97682   0.77213   0.42159   0.00000  Uiso   1.00
C668   C     0.52313   0.87983   0.59020   0.00000  Uiso   1.00
C669   C     0.97654   0.88046   0.58971   0.00000  Uiso   1.00
C670   C     0.52344   0.77084   0.42273   0.00000  Uiso   1.00
C671   C     0.75000   0.68847   0.49997   0.00000  Uiso   1.00
C672   C     0.75000   0.97820   0.50002   0.00000  Uiso   1.00
H673   H     0.88826   0.87823   0.57458   0.00000  Uiso   1.00
H674   H     0.61167   0.78647   0.42616   0.00000  Uiso   1.00
H675   H     0.88860   0.78629   0.42612   0.00000  Uiso   1.00
H676   H     0.61142   0.87754   0.57534   0.00000  Uiso   1.00
O677   O     0.95455   0.74911   0.37719   0.00000  Uiso   1.00
C678   C     0.94023   0.70227   0.39529   0.00000  Uiso   1.00
H679   H     0.91337   0.68981   0.36623   0.00000  Uiso   1.00
H680   H     0.92637   0.70213   0.43960   0.00000  Uiso   1.00
H681   H     0.96767   0.67529   0.39167   0.00000  Uiso   1.00
O682   O     0.54547   0.90869   0.62956   0.00000  Uiso   1.00
C683   C     0.55696   0.87934   0.34367   0.00000  Uiso   1.00
H684   H     0.58011   0.84925   0.66479   0.00000  Uiso   1.00
H685   H     0.52708   0.86365   0.36467   0.00000  Uiso   1.00
H686   H     0.57411   0.90267   0.37570   0.00000  Uiso   1.00
O687   O     0.95432   0.91104   0.62766   0.00000  Uiso   1.00
C688   C     0.93665   0.88349   0.34040   0.00000  Uiso   1.00
H689   H     0.95525   0.89232   0.38004   0.00000  Uiso   1.00
H690   H     0.93673   0.84290   0.33393   0.00000  Uiso   1.00
H691   H     0.90168   0.89491   0.34752   0.00000  Uiso   1.00
O692   O     0.54564   0.74376   0.38140   0.00000  Uiso   1.00
C693   C     0.56051   0.69925   0.40587   0.00000  Uiso   1.00
H694   H     0.53583   0.68231   0.43551   0.00000  Uiso   1.00
H695   H     0.59230   0.70466   0.42900   0.00000  Uiso   1.00
H696   H     0.56677   0.67256   0.37085   0.00000  Uiso   1.00
O697   O     0.25000   0.09613   0.88092   0.00000  Uiso   1.00
O698   O     0.25000   0.23720   0.78575   0.00000  Uiso   1.00
O699   O     0.25000   0.23720   0.88092   0.00000  Uiso   1.00
O700   O     0.25000   0.09613   0.78575   0.00000  Uiso   1.00
C701   C     0.25000   0.07335   0.83331   0.00000  Uiso   1.00
C702   C     0.25000   0.25999   0.83335   0.00000  Uiso   1.00
O703   O     0.18513   0.16667   0.88093   0.00000  Uiso   1.00
O704   O     0.31487   0.16667   0.78573   0.00000  Uiso   1.00
O705   O     0.31487   0.16667   0.88093   0.00000  Uiso   1.00
O706   O     0.18513   0.16667   0.78573   0.00000  Uiso   1.00
C707   C     0.16413   0.16660   0.83345   0.00000  Uiso   1.00
C708   C     0.33587   0.16669   0.83331   0.00000  Uiso   1.00
Cu709  Cu    0.25000   0.16667   0.88969   0.00000  Uiso   1.00
Cu710  Cu    0.25000   0.16667   0.77697   0.00000  Uiso   1.00
N711   N     0.25000   0.16667   0.69227   0.00000  Uiso   1.00
N712   N     0.25000   0.16667   0.97439   0.00000  Uiso   1.00
C713   C     0.40697   0.19014   0.87711   0.00000  Uiso   1.00
C714   C     0.09303   0.13771   0.79328   0.00000  Uiso   1.00
C715   C     0.40715   0.13842   0.79260   0.00000  Uiso   1.00
C716   C     0.09287   0.18937   0.87784   0.00000  Uiso   1.00
C717   C     0.38414   0.16558   0.83378   0.00000  Uiso   1.00
C718   C     0.11586   0.16505   0.83431   0.00000  Uiso   1.00
C719   C     0.45345   0.13439   0.79516   0.00000  Uiso   1.00
C720   C     0.04654   0.18727   0.88060   0.00000  Uiso   1.00
C721   C     0.45329   0.18792   0.88006   0.00000  Uiso   1.00
C722   C     0.04675   0.13330   0.79610   0.00000  Uiso   1.00
C723   C     0.47670   0.16002   0.83859   0.00000  Uiso   1.00
C724   C     0.02330   0.15965   0.83890   0.00000  Uiso   1.00
C725   C     0.47682   0.10546   0.75493   0.00000  Uiso   1.00
C726   C     0.02313   0.21316   0.92353   0.00000  Uiso   1.00
C727   C     0.47654   0.21380   0.92305   0.00000  Uiso   1.00
C728   C     0.02344   0.10418   0.75606   0.00000  Uiso   1.00
C729   C     0.25000   0.02180   0.83330   0.00000  Uiso   1.00
C730   C     0.25000   0.31154   0.83336   0.00000  Uiso   1.00
H731   H     0.38826   0.21157   0.90792   0.00000  Uiso   1.00
H732   H     0.11167   0.11981   0.75949   0.00000  Uiso   1.00
H733   H     0.38860   0.11963   0.75945   0.00000  Uiso   1.00
H734   H     0.11142   0.21087   0.90867   0.00000  Uiso   1.00
O735   O     0.45455   0.08244   0.71052   0.00000  Uiso   1.00
C736   C     0.44023   0.03560   0.72862   0.00000  Uiso   1.00
H737   H     0.41337   0.02314   0.69957   0.00000  Uiso   1.00
H738   H     0.42637   0.03546   0.77293   0.00000  Uiso   1.00
H739   H     0.46767   0.00863   0.72500   0.00000  Uiso   1.00
O740   O     0.04547   0.24202   0.96290   0.00000  Uiso   1.00
C741   C     0.05696   0.21267   0.67701   0.00000  Uiso   1.00
H742   H     0.08011   0.18259   0.99812   0.00000  Uiso   1.00
H743   H     0.02708   0.19699   0.69801   0.00000  Uiso   1.00
H744   H     0.07411   0.23601   0.70904   0.00000  Uiso   1.00
O745   O     0.45432   0.24437   0.96100   0.00000  Uiso   1.00
C746   C     0.43665   0.21683   0.67373   0.00000  Uiso   1.00
H747   H     0.45525   0.22565   0.71338   0.00000  Uiso   1.00
H748   H     0.43673   0.17624   0.66726   0.00000  Uiso   1.00
H749   H     0.40168   0.22824   0.68085   0.00000  Uiso   1.00
O750   O     0.04564   0.07710   0.71474   0.00000  Uiso   1.00
C751   C     0.06051   0.03258   0.73920   0.00000  Uiso   1.00
H752   H     0.03583   0.01565   0.76885   0.00000  Uiso   1.00
H753   H     0.09230   0.03800   0.76233   0.00000  Uiso   1.00
H754   H     0.06677   0.00590   0.70418   0.00000  Uiso   1.00
O755   O     0.75000   0.09613   0.88092   0.00000  Uiso   1.00
O756   O     0.75000   0.23720   0.78575   0.00000  Uiso   1.00
O757   O     0.75000   0.23720   0.88092   0.00000  Uiso   1.00
O758   O     0.75000   0.09613   0.78575   0.00000  Uiso   1.00
C759   C     0.75000   0.07335   0.83331   0.00000  Uiso   1.00
C760   C     0.75000   0.25999   0.83335   0.00000  Uiso   1.00
O761   O     0.68513   0.16667   0.88093   0.00000  Uiso   1.00
O762   O     0.81487   0.16667   0.78573   0.00000  Uiso   1.00
O763   O     0.81487   0.16667   0.88093   0.00000  Uiso   1.00
O764   O     0.68513   0.16667   0.78573   0.00000  Uiso   1.00
C765   C     0.66413   0.16660   0.83345   0.00000  Uiso   1.00
C766   C     0.83587   0.16669   0.83331   0.00000  Uiso   1.00
Cu767  Cu    0.75000   0.16667   0.88969   0.00000  Uiso   1.00
Cu768  Cu    0.75000   0.16667   0.77697   0.00000  Uiso   1.00
N769   N     0.75000   0.16667   0.69227   0.00000  Uiso   1.00
N770   N     0.75000   0.16667   0.97439   0.00000  Uiso   1.00
C771   C     0.90697   0.19014   0.87711   0.00000  Uiso   1.00
C772   C     0.59303   0.13771   0.79328   0.00000  Uiso   1.00
C773   C     0.90715   0.13842   0.79260   0.00000  Uiso   1.00
C774   C     0.59287   0.18937   0.87784   0.00000  Uiso   1.00
C775   C     0.88414   0.16558   0.83378   0.00000  Uiso   1.00
C776   C     0.61586   0.16505   0.83431   0.00000  Uiso   1.00
C777   C     0.95345   0.13439   0.79516   0.00000  Uiso   1.00
C778   C     0.54654   0.18727   0.88060   0.00000  Uiso   1.00
C779   C     0.95329   0.18792   0.88006   0.00000  Uiso   1.00
C780   C     0.54675   0.13330   0.79610   0.00000  Uiso   1.00
C781   C     0.97670   0.16002   0.83859   0.00000  Uiso   1.00
C782   C     0.52330   0.15965   0.83890   0.00000  Uiso   1.00
C783   C     0.97682   0.10546   0.75493   0.00000  Uiso   1.00
C784   C     0.52313   0.21316   0.92353   0.00000  Uiso   1.00
C785   C     0.97654   0.21380   0.92305   0.00000  Uiso   1.00
C786   C     0.52344   0.10418   0.75606   0.00000  Uiso   1.00
C787   C     0.75000   0.02180   0.83330   0.00000  Uiso   1.00
C788   C     0.75000   0.31154   0.83336   0.00000  Uiso   1.00
H789   H     0.88826   0.21157   0.90792   0.00000  Uiso   1.00
H790   H     0.61167   0.11981   0.75949   0.00000  Uiso   1.00
H791   H     0.88860   0.11963   0.75945   0.00000  Uiso   1.00
H792   H     0.61142   0.21087   0.90867   0.00000  Uiso   1.00
O793   O     0.95455   0.08244   0.71052   0.00000  Uiso   1.00
C794   C     0.94023   0.03560   0.72862   0.00000  Uiso   1.00
H795   H     0.91337   0.02314   0.69957   0.00000  Uiso   1.00
H796   H     0.92637   0.03546   0.77293   0.00000  Uiso   1.00
H797   H     0.96767   0.00863   0.72500   0.00000  Uiso   1.00
O798   O     0.54547   0.24202   0.96290   0.00000  Uiso   1.00
C799   C     0.55696   0.21267   0.67701   0.00000  Uiso   1.00
H800   H     0.58011   0.18259   0.99812   0.00000  Uiso   1.00
H801   H     0.52708   0.19699   0.69801   0.00000  Uiso   1.00
H802   H     0.57411   0.23601   0.70904   0.00000  Uiso   1.00
O803   O     0.95432   0.24437   0.96100   0.00000  Uiso   1.00
C804   C     0.93665   0.21683   0.67373   0.00000  Uiso   1.00
H805   H     0.95525   0.22565   0.71338   0.00000  Uiso   1.00
H806   H     0.93673   0.17624   0.66726   0.00000  Uiso   1.00
H807   H     0.90168   0.22824   0.68085   0.00000  Uiso   1.00
O808   O     0.54564   0.07710   0.71474   0.00000  Uiso   1.00
C809   C     0.56051   0.03258   0.73920   0.00000  Uiso   1.00
H810   H     0.53583   0.01565   0.76885   0.00000  Uiso   1.00
H811   H     0.59230   0.03800   0.76233   0.00000  Uiso   1.00
H812   H     0.56677   0.00590   0.70418   0.00000  Uiso   1.00
O813   O     0.25000   0.42946   0.88092   0.00000  Uiso   1.00
O814   O     0.25000   0.57054   0.78575   0.00000  Uiso   1.00
O815   O     0.25000   0.57054   0.88092   0.00000  Uiso   1.00
O816   O     0.25000   0.42946   0.78575   0.00000  Uiso   1.00
C817   C     0.25000   0.40668   0.83331   0.00000  Uiso   1.00
C818   C     0.25000   0.59332   0.83335   0.00000  Uiso   1.00
O819   O     0.18513   0.50000   0.88093   0.00000  Uiso   1.00
O820   O     0.31487   0.50000   0.78573   0.00000  Uiso   1.00
O821   O     0.31487   0.50000   0.88093   0.00000  Uiso   1.00
O822   O     0.18513   0.50000   0.78573   0.00000  Uiso   1.00
C823   C     0.16413   0.49993   0.83345   0.00000  Uiso   1.00
C824   C     0.33587   0.50002   0.83331   0.00000  Uiso   1.00
Cu825  Cu    0.25000   0.50000   0.88969   0.00000  Uiso   1.00
Cu826  Cu    0.25000   0.50000   0.77697   0.00000  Uiso   1.00
N827   N     0.25000   0.50000   0.69227   0.00000  Uiso   1.00
N828   N     0.25000   0.50000   0.97439   0.00000  Uiso   1.00
C829   C     0.40697   0.52347   0.87711   0.00000  Uiso   1.00
C830   C     0.09303   0.47105   0.79328   0.00000  Uiso   1.00
C831   C     0.40715   0.47176   0.79260   0.00000  Uiso   1.00
C832   C     0.09287   0.52270   0.87784   0.00000  Uiso   1.00
C833   C     0.38414   0.49891   0.83378   0.00000  Uiso   1.00
C834   C     0.11586   0.49838   0.83431   0.00000  Uiso   1.00
C835   C     0.45345   0.46772   0.79516   0.00000  Uiso   1.00
C836   C     0.04654   0.52061   0.88060   0.00000  Uiso   1.00
C837   C     0.45329   0.52125   0.88006   0.00000  Uiso   1.00
C838   C     0.04675   0.46663   0.79610   0.00000  Uiso   1.00
C839   C     0.47670   0.49335   0.83859   0.00000  Uiso   1.00
C840   C     0.02330   0.49298   0.83890   0.00000  Uiso   1.00
C841   C     0.47682   0.43879   0.75493   0.00000  Uiso   1.00
C842   C     0.02313   0.54649   0.92353   0.00000  Uiso   1.00
C843   C     0.47654   0.54713   0.92305   0.00000  Uiso   1.00
C844   C     0.02344   0.43751   0.75606   0.00000  Uiso   1.00
C845   C     0.25000   0.35513   0.83330   0.00000  Uiso   1.00
C846   C     0.25000   0.64487   0.83336   0.00000  Uiso   1.00
H847   H     0.38826   0.54490   0.90792   0.00000  Uiso   1.00
H848   H     0.11167   0.45314   0.75949   0.00000  Uiso   1.00
H849   H     0.38860   0.45296   0.75945   0.00000  Uiso   1.00
H850   H     0.11142   0.54420   0.90867   0.00000  Uiso   1.00
O851   O     0.45455   0.41578   0.71052   0.00000  Uiso   1.00
C852   C     0.44023   0.36893   0.72862   0.00000  Uiso   1.00
H853   H     0.41337   0.35647   0.69957   0.00000  Uiso   1.00
H854   H     0.42637   0.36879   0.77293   0.00000  Uiso   1.00
H855   H     0.46767   0.34196   0.72500   0.00000  Uiso   1.00
O856   O     0.04547   0.57535   0.96290   0.00000  Uiso   1.00
C857   C     0.05696   0.54601   0.67701   0.00000  Uiso   1.00
H858   H     0.08011   0.51592   0.99812   0.00000  Uiso   1.00
H859   H     0.02708   0.53032   0.69801   0.00000  Uiso   1.00
H860   H     0.07411   0.56934   0.70904   0.00000  Uiso   1.00
O861   O     0.45432   0.57770   0.96100   0.00000  Uiso   1.00
C862   C     0.43665   0.55016   0.67373   0.00000  Uiso   1.00
H863   H     0.45525   0.55898   0.71338   0.00000  Uiso   1.00
H864   H     0.43673   0.50957   0.66726   0.00000  Uiso   1.00
H865   H     0.40168   0.56158   0.68085   0.00000  Uiso   1.00
O866   O     0.04564   0.41043   0.71474   0.00000  Uiso   1.00
C867   C     0.06051   0.36591   0.73920   0.00000  Uiso   1.00
H868   H     0.03583   0.34898   0.76885   0.00000  Uiso   1.00
H869   H     0.09230   0.37133   0.76233   0.00000  Uiso   1.00
H870   H     0.06677   0.33923   0.70418   0.00000  Uiso   1.00
O871   O     0.75000   0.42946   0.88092   0.00000  Uiso   1.00
O872   O     0.75000   0.57054   0.78575   0.00000  Uiso   1.00
O873   O     0.75000   0.57054   0.88092   0.00000  Uiso   1.00
O874   O     0.75000   0.42946   0.78575   0.00000  Uiso   1.00
C875   C     0.75000   0.40668   0.83331   0.00000  Uiso   1.00
C876   C     0.75000   0.59332   0.83335   0.00000  Uiso   1.00
O877   O     0.68513   0.50000   0.88093   0.00000  Uiso   1.00
O878   O     0.81487   0.50000   0.78573   0.00000  Uiso   1.00
O879   O     0.81487   0.50000   0.88093   0.00000  Uiso   1.00
O880   O     0.68513   0.50000   0.78573   0.00000  Uiso   1.00
C881   C     0.66413   0.49993   0.83345   0.00000  Uiso   1.00
C882   C     0.83587   0.50002   0.83331   0.00000  Uiso   1.00
Cu883  Cu    0.75000   0.50000   0.88969   0.00000  Uiso   1.00
Cu884  Cu    0.75000   0.50000   0.77697   0.00000  Uiso   1.00
N885   N     0.75000   0.50000   0.69227   0.00000  Uiso   1.00
N886   N     0.75000   0.50000   0.97439   0.00000  Uiso   1.00
C887   C     0.90697   0.52347   0.87711   0.00000  Uiso   1.00
C888   C     0.59303   0.47105   0.79328   0.00000  Uiso   1.00
C889   C     0.90715   0.47176   0.79260   0.00000  Uiso   1.00
C890   C     0.59287   0.52270   0.87784   0.00000  Uiso   1.00
C891   C     0.88414   0.49891   0.83378   0.00000  Uiso   1.00
C892   C     0.61586   0.49838   0.83431   0.00000  Uiso   1.00
C893   C     0.95345   0.46772   0.79516   0.00000  Uiso   1.00
C894   C     0.54654   0.52061   0.88060   0.00000  Uiso   1.00
C895   C     0.95329   0.52125   0.88006   0.00000  Uiso   1.00
C896   C     0.54675   0.46663   0.79610   0.00000  Uiso   1.00
C897   C     0.97670   0.49335   0.83859   0.00000  Uiso   1.00
C898   C     0.52330   0.49298   0.83890   0.00000  Uiso   1.00
C899   C     0.97682   0.43879   0.75493   0.00000  Uiso   1.00
C900   C     0.52313   0.54649   0.92353   0.00000  Uiso   1.00
C901   C     0.97654   0.54713   0.92305   0.00000  Uiso   1.00
C902   C     0.52344   0.43751   0.75606   0.00000  Uiso   1.00
C903   C     0.75000   0.35513   0.83330   0.00000  Uiso   1.00
C904   C     0.75000   0.64487   0.83336   0.00000  Uiso   1.00
H905   H     0.88826   0.54490   0.90792   0.00000  Uiso   1.00
H906   H     0.61167   0.45314   0.75949   0.00000  Uiso   1.00
H907   H     0.88860   0.45296   0.75945   0.00000  Uiso   1.00
H908   H     0.61142   0.54420   0.90867   0.00000  Uiso   1.00
O909   O     0.95455   0.41578   0.71052   0.00000  Uiso   1.00
C910   C     0.94023   0.36893   0.72862   0.00000  Uiso   1.00
H911   H     0.91337   0.35647   0.69957   0.00000  Uiso   1.00
H912   H     0.92637   0.36879   0.77293   0.00000  Uiso   1.00
H913   H     0.96767   0.34196   0.72500   0.00000  Uiso   1.00
O914   O     0.54547   0.57535   0.96290   0.00000  Uiso   1.00
C915   C     0.55696   0.54601   0.67701   0.00000  Uiso   1.00
H916   H     0.58011   0.51592   0.99812   0.00000  Uiso   1.00
H917   H     0.52708   0.53032   0.69801   0.00000  Uiso   1.00
H918   H     0.57411   0.56934   0.70904   0.00000  Uiso   1.00
O919   O     0.95432   0.57770   0.96100   0.00000  Uiso   1.00
C920   C     0.93665   0.55016   0.67373   0.00000  Uiso   1.00
H921   H     0.95525   0.55898   0.71338   0.00000  Uiso   1.00
H922   H     0.93673   0.50957   0.66726   0.00000  Uiso   1.00
H923   H     0.90168   0.56158   0.68085   0.00000  Uiso   1.00
O924   O     0.54564   0.41043   0.71474   0.00000  Uiso   1.00
C925   C     0.56051   0.36591   0.73920   0.00000  Uiso   1.00
H926   H     0.53583   0.34898   0.76885   0.00000  Uiso   1.00
H927   H     0.59230   0.37133   0.76233   0.00000  Uiso   1.00
H928   H     0.56677   0.33923   0.70418   0.00000  Uiso   1.00
O929   O     0.25000   0.76280   0.88092   0.00000  Uiso   1.00
O930   O     0.25000   0.90387   0.78575   0.00000  Uiso   1.00
O931   O     0.25000   0.90387   0.88092   0.00000  Uiso   1.00
O932   O     0.25000   0.76280   0.78575   0.00000  Uiso   1.00
C933   C     0.25000   0.74001   0.83331   0.00000  Uiso   1.00
C934   C     0.25000   0.92665   0.83335   0.00000  Uiso   1.00
O935   O     0.18513   0.83333   0.88093   0.00000  Uiso   1.00
O936   O     0.31487   0.83333   0.78573   0.00000  Uiso   1.00
O937   O     0.31487   0.83333   0.88093   0.00000  Uiso   1.00
O938   O     0.18513   0.83333   0.78573   0.00000  Uiso   1.00
C939   C     0.16413   0.83326   0.83345   0.00000  Uiso   1.00
C940   C     0.33587   0.83335   0.83331   0.00000  Uiso   1.00
Cu941  Cu    0.25000   0.83333   0.88969   0.00000  Uiso   1.00
Cu942  Cu    0.25000   0.83333   0.77697   0.00000  Uiso   1.00
N943   N     0.25000   0.83333   0.69227   0.00000  Uiso   1.00
N944   N     0.25000   0.83333   0.97439   0.00000  Uiso   1.00
C945   C     0.40697   0.85681   0.87711   0.00000  Uiso   1.00
C946   C     0.09303   0.80438   0.79328   0.00000  Uiso   1.00
C947   C     0.40715   0.80509   0.79260   0.00000  Uiso   1.00
C948   C     0.09287   0.85604   0.87784   0.00000  Uiso   1.00
C949   C     0.38414   0.83224   0.83378   0.00000  Uiso   1.00
C950   C     0.11586   0.83172   0.83431   0.00000  Uiso   1.00
C951   C     0.45345   0.80106   0.79516   0.00000  Uiso   1.00
C952   C     0.04654   0.85394   0.88060   0.00000  Uiso   1.00
C953   C     0.45329   0.85458   0.88006   0.00000  Uiso   1.00
C954   C     0.04675   0.79997   0.79610   0.00000  Uiso   1.00
C955   C     0.47670   0.82668   0.83859   0.00000  Uiso   1.00
C956   C     0.02330   0.82632   0.83890   0.00000  Uiso   1.00
C957   C     0.47682   0.77213   0.75493   0.00000  Uiso   1.00
C958   C     0.02313   0.87983   0.92353   0.00000  Uiso   1.00
C959   C     0.47654   0.88046   0.92305   0.00000  Uiso   1.00
C960   C     0.02344   0.77084   0.75606   0.00000  Uiso   1.00
C961   C     0.25000   0.68847   0.83330   0.00000  Uiso   1.00
C962   C     0.25000   0.97820   0.83336   0.00000  Uiso   1.00
H963   H     0.38826   0.87823   0.90792   0.00000  Uiso   1.00
H964   H     0.11167   0.78647   0.75949   0.00000  Uiso   1.00
H965   H     0.38860   0.78629   0.75945   0.00000  Uiso   1.00
H966   H     0.11142   0.87754   0.90867   0.00000  Uiso   1.00
O967   O     0.45455   0.74911   0.71052   0.00000  Uiso   1.00
C968   C     0.44023   0.70227   0.72862   0.00000  Uiso   1.00
H969   H     0.41337   0.68981   0.69957   0.00000  Uiso   1.00
H970   H     0.42637   0.70213   0.77293   0.00000  Uiso   1.00
H971   H     0.46767   0.67529   0.72500   0.00000  Uiso   1.00
O972   O     0.04547   0.90869   0.96290   0.00000  Uiso   1.00
C973   C     0.05696   0.87934   0.67701   0.00000  Uiso   1.00
H974   H     0.08011   0.84925   0.99812   0.00000  Uiso   1.00
H975   H     0.02708   0.86365   0.69801   0.00000  Uiso   1.00
H976   H     0.07411   0.90267   0.70904   0.00000  Uiso   1.00
O977   O     0.45432   0.91104   0.96100   0.00000  Uiso   1.00
C978   C     0.43665   0.88349   0.67373   0.00000  Uiso   1.00
H979   H     0.45525   0.89232   0.71338   0.00000  Uiso   1.00
H980   H     0.43673   0.84290   0.66726   0.00000  Uiso   1.00
H981   H     0.40168   0.89491   0.68085   0.00000  Uiso   1.00
O982   O     0.04564   0.74376   0.71474   0.00000  Uiso   1.00
C983   C     0.06051   0.69925   0.73920   0.00000  Uiso   1.00
H984   H     0.03583   0.68231   0.76885   0.00000  Uiso   1.00
H985   H     0.09230   0.70466   0.76233   0.00000  Uiso   1.00
H986   H     0.06677   0.67256   0.70418   0.00000  Uiso   1.00
O987   O     0.75000   0.76280   0.88092   0.00000  Uiso   1.00
O988   O     0.75000   0.90387   0.78575   0.00000  Uiso   1.00
O989   O     0.75000   0.90387   0.88092   0.00000  Uiso   1.00
O990   O     0.75000   0.76280   0.78575   0.00000  Uiso   1.00
C991   C     0.75000   0.74001   0.83331   0.00000  Uiso   1.00
C992   C     0.75000   0.92665   0.83335   0.00000  Uiso   1.00
O993   O     0.68513   0.83333   0.88093   0.00000  Uiso   1.00
O994   O     0.81487   0.83333   0.78573   0.00000  Uiso   1.00
O995   O     0.81487   0.83333   0.88093   0.00000  Uiso   1.00
O996   O     0.68513   0.83333   0.78573   0.00000  Uiso   1.00
C997   C     0.66413   0.83326   0.83345   0.00000  Uiso   1.00
C998   C     0.83587   0.83335   0.83331   0.00000  Uiso   1.00
Cu999  Cu    0.75000   0.83333   0.88969   0.00000  Uiso   1.00
Cu1000 Cu    0.75000   0.83333   0.77697   0.00000  Uiso   1.00
N1001  N     0.75000   0.83333   0.69227   0.00000  Uiso   1.00
N1002  N     0.75000   0.83333   0.97439   0.00000  Uiso   1.00
C1003  C     0.90697   0.85681   0.87711   0.00000  Uiso   1.00
C1004  C     0.59303   0.80438   0.79328   0.00000  Uiso   1.00
C1005  C     0.90715   0.80509   0.79260   0.00000  Uiso   1.00
C1006  C     0.59287   0.85604   0.87784   0.00000  Uiso   1.00
C1007  C     0.88414   0.83224   0.83378   0.00000  Uiso   1.00
C1008  C     0.61586   0.83172   0.83431   0.00000  Uiso   1.00
C1009  C     0.95345   0.80106   0.79516   0.00000  Uiso   1.00
C1010  C     0.54654   0.85394   0.88060   0.00000  Uiso   1.00
C1011  C     0.95329   0.85458   0.88006   0.00000  Uiso   1.00
C1012  C     0.54675   0.79997   0.79610   0.00000  Uiso   1.00
C1013  C     0.97670   0.82668   0.83859   0.00000  Uiso   1.00
C1014  C     0.52330   0.82632   0.83890   0.00000  Uiso   1.00
C1015  C     0.97682   0.77213   0.75493   0.00000  Uiso   1.00
C1016  C     0.52313   0.87983   0.92353   0.00000  Uiso   1.00
C1017  C     0.97654   0.88046   0.92305   0.00000  Uiso   1.00
C1018  C     0.52344   0.77084   0.75606   0.00000  Uiso   1.00
C1019  C     0.75000   0.68847   0.83330   0.00000  Uiso   1.00
C1020  C     0.75000   0.97820   0.83336   0.00000  Uiso   1.00
H1021  H     0.88826   0.87823   0.90792   0.00000  Uiso   1.00
H1022  H     0.61167   0.78647   0.75949   0.00000  Uiso   1.00
H1023  H     0.88860   0.78629   0.75945   0.00000  Uiso   1.00
H1024  H     0.61142   0.87754   0.90867   0.00000  Uiso   1.00
O1025  O     0.95455   0.74911   0.71052   0.00000  Uiso   1.00
C1026  C     0.94023   0.70227   0.72862   0.00000  Uiso   1.00
H1027  H     0.91337   0.68981   0.69957   0.00000  Uiso   1.00
H1028  H     0.92637   0.70213   0.77293   0.00000  Uiso   1.00
H1029  H     0.96767   0.67529   0.72500   0.00000  Uiso   1.00
O1030  O     0.54547   0.90869   0.96290   0.00000  Uiso   1.00
C1031  C     0.55696   0.87934   0.67701   0.00000  Uiso   1.00
H1032  H     0.58011   0.84925   0.99812   0.00000  Uiso   1.00
H1033  H     0.52708   0.86365   0.69801   0.00000  Uiso   1.00
H1034  H     0.57411   0.90267   0.70904   0.00000  Uiso   1.00
O1035  O     0.95432   0.91104   0.96100   0.00000  Uiso   1.00
C1036  C     0.93665   0.88349   0.67373   0.00000  Uiso   1.00
H1037  H     0.95525   0.89232   0.71338   0.00000  Uiso   1.00
H1038  H     0.93673   0.84290   0.66726   0.00000  Uiso   1.00
H1039  H     0.90168   0.89491   0.68085   0.00000  Uiso   1.00
O1040  O     0.54564   0.74376   0.71474   0.00000  Uiso   1.00
C1041  C     0.56051   0.69925   0.73920   0.00000  Uiso   1.00
H1042  H     0.53583   0.68231   0.76885   0.00000  Uiso   1.00
H1043  H     0.59230   0.70466   0.76233   0.00000  Uiso   1.00
H1044  H     0.56677   0.67256   0.70418   0.00000  Uiso   1.00
loop_
_geom_bond_atom_site_label_1
_geom_bond_atom_site_label_2
_geom_bond_distance
_geom_bond_site_symmetry_2
_ccdc_geom_bond_type
O1     C5      1.273   .     A
O1     Cu13    1.932   .     S
O2     C6      1.273   .     A
O2     Cu14    1.932   .     S
O3     Cu13    1.933   .     S
O3     C6      1.273   .     A
O4     Cu14    1.933   .     S
O4     C5      1.273   .     A
C5     C33     1.404   .     S
C6     C34     1.404   .     S
O7     C11     1.278   .     A
O7     Cu13    1.963   .     S
O8     C12     1.279   .     A
O8     Cu14    1.963   .     S
O9     C12     1.278   .     A
O9     Cu13    1.962   .     S
O10    C11     1.280   .     A
O10    Cu14    1.962   .     S
C11    C22     1.453   .     S
C12    C21     1.453   .     S
Cu13   N16     1.978   .     S
Cu13   Cu14    2.632   .     S
Cu14   N15     1.978   .     S
N15    N712    1.196   1_554 S
N16    N363    1.196   .     S
C17    C25     1.397   .     A
C17    H35     1.083   .     S
C17    C21     1.395   .     A
C18    C22     1.395   .     A
C18    H36     1.083   .     S
C18    C26     1.399   .     A
C19    H37     1.084   .     S
C19    C21     1.395   .     A
C19    C23     1.399   .     A
C20    H38     1.084   .     S
C20    C22     1.395   .     A
C20    C24     1.397   .     A
C23    C27     1.417   .     A
C23    C29     1.412   .     A
C24    C30     1.412   .     A
C24    C28     1.416   .     A
C25    C31     1.413   .     A
C25    C27     1.417   .     A
C26    C32     1.413   .     A
C26    C28     1.417   .     A
C27    C86     1.402   .     S
C28    C85     1.402   1_455 S
C29    O39     1.385   .     S
C29    C90     1.404   .     S
C30    O44     1.384   .     S
C30    C89     1.402   1_455 S
C31    O49     1.386   .     S
C31    C88     1.402   .     S
C32    O54     1.385   .     S
C32    C87     1.404   1_455 S
C33    C266    1.188   1_545 S
C34    C149    1.188   .     S
O39    C40     1.412   .     S
C40    H42     1.115   .     S
C40    H41     1.109   .     S
C40    H43     1.108   .     S
O44    C393    1.411   .     S
C45    H47     1.109   .     S
C45    H48     1.109   .     S
C45    O740    1.411   1_554 S
C45    H742    1.112   1_554 S
H46    C393    1.112   .     S
O49    C398    1.415   .     S
C50    H52     1.116   .     S
C50    H51     1.109   .     S
C50    H53     1.109   .     S
C50    O745    1.415   1_554 S
O54    C55     1.414   .     S
C55    H56     1.114   .     S
C55    H57     1.109   .     S
C55    H58     1.109   .     S
O59    C63     1.273   .     A
O59    Cu71    1.932   .     S
O60    C64     1.273   .     A
O60    Cu72    1.932   .     S
O61    Cu71    1.933   .     S
O61    C64     1.273   .     A
O62    Cu72    1.933   .     S
O62    C63     1.273   .     A
C63    C91     1.404   .     S
C64    C92     1.404   .     S
O65    C69     1.278   .     A
O65    Cu71    1.963   .     S
O66    C70     1.279   .     A
O66    Cu72    1.963   .     S
O67    C70     1.278   .     A
O67    Cu71    1.962   .     S
O68    C69     1.280   .     A
O68    Cu72    1.962   .     S
C69    C80     1.453   .     S
C70    C79     1.453   .     S
Cu71   N74     1.978   .     S
Cu71   Cu72    2.632   .     S
Cu72   N73     1.978   .     S
N73    N770    1.196   1_554 S
N74    N421    1.196   .     S
C75    C83     1.397   .     A
C75    H93     1.083   .     S
C75    C79     1.395   .     A
C76    C80     1.395   .     A
C76    H94     1.083   .     S
C76    C84     1.399   .     A
C77    H95     1.084   .     S
C77    C79     1.395   .     A
C77    C81     1.399   .     A
C78    H96     1.084   .     S
C78    C80     1.395   .     A
C78    C82     1.397   .     A
C81    C85     1.417   .     A
C81    C87     1.412   .     A
C82    C88     1.412   .     A
C82    C86     1.416   .     A
C83    C89     1.413   .     A
C83    C85     1.417   .     A
C84    C90     1.413   .     A
C84    C86     1.417   .     A
C85    C28     1.402   1_655 S
C87    O97     1.385   .     S
C87    C32     1.404   1_655 S
C88    O102    1.384   .     S
C89    O107    1.386   .     S
C89    C30     1.402   1_655 S
C90    O112    1.385   .     S
C91    C324    1.188   1_545 S
C92    C207    1.188   .     S
O97    C98     1.412   .     S
C98    H100    1.115   .     S
C98    H99     1.109   .     S
C98    H101    1.108   .     S
O102   C451    1.411   .     S
C103   H105    1.109   .     S
C103   H106    1.109   .     S
C103   O798    1.411   1_554 S
C103   H800    1.112   1_554 S
H104   C451    1.112   .     S
O107   C456    1.415   .     S
C108   H110    1.116   .     S
C108   H109    1.109   .     S
C108   H111    1.109   .     S
C108   O803    1.415   1_554 S
O112   C113    1.414   .     S
C113   H114    1.114   .     S
C113   H115    1.109   .     S
C113   H116    1.109   .     S
O117   C121    1.273   .     A
O117   Cu129   1.932   .     S
O118   C122    1.273   .     A
O118   Cu130   1.932   .     S
O119   Cu129   1.933   .     S
O119   C122    1.273   .     A
O120   Cu130   1.933   .     S
O120   C121    1.273   .     A
C121   C149    1.404   .     S
C122   C150    1.404   .     S
O123   C127    1.278   .     A
O123   Cu129   1.963   .     S
O124   C128    1.279   .     A
O124   Cu130   1.963   .     S
O125   C128    1.278   .     A
O125   Cu129   1.962   .     S
O126   C127    1.280   .     A
O126   Cu130   1.962   .     S
C127   C138    1.453   .     S
C128   C137    1.453   .     S
Cu129  N132    1.978   .     S
Cu129  Cu130   2.632   .     S
Cu130  N131    1.978   .     S
N131   N828    1.196   1_554 S
N132   N479    1.196   .     S
C133   C141    1.397   .     A
C133   H151    1.083   .     S
C133   C137    1.395   .     A
C134   C138    1.395   .     A
C134   H152    1.083   .     S
C134   C142    1.399   .     A
C135   H153    1.084   .     S
C135   C137    1.395   .     A
C135   C139    1.399   .     A
C136   H154    1.084   .     S
C136   C138    1.395   .     A
C136   C140    1.397   .     A
C139   C143    1.417   .     A
C139   C145    1.412   .     A
C140   C146    1.412   .     A
C140   C144    1.416   .     A
C141   C147    1.413   .     A
C141   C143    1.417   .     A
C142   C148    1.413   .     A
C142   C144    1.417   .     A
C143   C202    1.402   .     S
C144   C201    1.402   1_455 S
C145   O155    1.385   .     S
C145   C206    1.404   .     S
C146   O160    1.384   .     S
C146   C205    1.402   1_455 S
C147   O165    1.386   .     S
C147   C204    1.402   .     S
C148   O170    1.385   .     S
C148   C203    1.404   1_455 S
C150   C265    1.188   .     S
O155   C156    1.412   .     S
C156   H158    1.115   .     S
C156   H157    1.109   .     S
C156   H159    1.108   .     S
O160   C509    1.411   .     S
C161   H163    1.109   .     S
C161   H164    1.109   .     S
C161   O856    1.411   1_554 S
C161   H858    1.112   1_554 S
H162   C509    1.112   .     S
O165   C514    1.415   .     S
C166   H168    1.116   .     S
C166   H167    1.109   .     S
C166   H169    1.109   .     S
C166   O861    1.415   1_554 S
O170   C171    1.414   .     S
C171   H172    1.114   .     S
C171   H173    1.109   .     S
C171   H174    1.109   .     S
O175   C179    1.273   .     A
O175   Cu187   1.932   .     S
O176   C180    1.273   .     A
O176   Cu188   1.932   .     S
O177   Cu187   1.933   .     S
O177   C180    1.273   .     A
O178   Cu188   1.933   .     S
O178   C179    1.273   .     A
C179   C207    1.404   .     S
C180   C208    1.404   .     S
O181   C185    1.278   .     A
O181   Cu187   1.963   .     S
O182   C186    1.279   .     A
O182   Cu188   1.963   .     S
O183   C186    1.278   .     A
O183   Cu187   1.962   .     S
O184   C185    1.280   .     A
O184   Cu188   1.962   .     S
C185   C196    1.453   .     S
C186   C195    1.453   .     S
Cu187  N190    1.978   .     S
Cu187  Cu188   2.632   .     S
Cu188  N189    1.978   .     S
N189   N886    1.196   1_554 S
N190   N537    1.196   .     S
C191   C199    1.397   .     A
C191   H209    1.083   .     S
C191   C195    1.395   .     A
C192   C196    1.395   .     A
C192   H210    1.083   .     S
C192   C200    1.399   .     A
C193   H211    1.084   .     S
C193   C195    1.395   .     A
C193   C197    1.399   .     A
C194   H212    1.084   .     S
C194   C196    1.395   .     A
C194   C198    1.397   .     A
C197   C201    1.417   .     A
C197   C203    1.412   .     A
C198   C204    1.412   .     A
C198   C202    1.416   .     A
C199   C205    1.413   .     A
C199   C201    1.417   .     A
C200   C206    1.413   .     A
C200   C202    1.417   .     A
C201   C144    1.402   1_655 S
C203   O213    1.385   .     S
C203   C148    1.404   1_655 S
C204   O218    1.384   .     S
C205   O223    1.386   .     S
C205   C146    1.402   1_655 S
C206   O228    1.385   .     S
C208   C323    1.188   .     S
O213   C214    1.412   .     S
C214   H216    1.115   .     S
C214   H215    1.109   .     S
C214   H217    1.108   .     S
O218   C567    1.411   .     S
C219   H221    1.109   .     S
C219   H222    1.109   .     S
C219   O914    1.411   1_554 S
C219   H916    1.112   1_554 S
H220   C567    1.112   .     S
O223   C572    1.415   .     S
C224   H226    1.116   .     S
C224   H225    1.109   .     S
C224   H227    1.109   .     S
C224   O919    1.415   1_554 S
O228   C229    1.414   .     S
C229   H230    1.114   .     S
C229   H231    1.109   .     S
C229   H232    1.109   .     S
O233   C237    1.273   .     A
O233   Cu245   1.932   .     S
O234   C238    1.273   .     A
O234   Cu246   1.932   .     S
O235   Cu245   1.933   .     S
O235   C238    1.273   .     A
O236   Cu246   1.933   .     S
O236   C237    1.273   .     A
C237   C265    1.404   .     S
C238   C266    1.404   .     S
O239   C243    1.278   .     A
O239   Cu245   1.963   .     S
O240   C244    1.279   .     A
O240   Cu246   1.963   .     S
O241   C244    1.278   .     A
O241   Cu245   1.962   .     S
O242   C243    1.280   .     A
O242   Cu246   1.962   .     S
C243   C254    1.453   .     S
C244   C253    1.453   .     S
Cu245  N248    1.978   .     S
Cu245  Cu246   2.632   .     S
Cu246  N247    1.978   .     S
N247   N944    1.196   1_554 S
N248   N595    1.196   .     S
C249   C257    1.397   .     A
C249   H267    1.083   .     S
C249   C253    1.395   .     A
C250   C254    1.395   .     A
C250   H268    1.083   .     S
C250   C258    1.399   .     A
C251   H269    1.084   .     S
C251   C253    1.395   .     A
C251   C255    1.399   .     A
C252   H270    1.084   .     S
C252   C254    1.395   .     A
C252   C256    1.397   .     A
C255   C259    1.417   .     A
C255   C261    1.412   .     A
C256   C262    1.412   .     A
C256   C260    1.416   .     A
C257   C263    1.413   .     A
C257   C259    1.417   .     A
C258   C264    1.413   .     A
C258   C260    1.417   .     A
C259   C318    1.402   .     S
C260   C317    1.402   1_455 S
C261   O271    1.385   .     S
C261   C322    1.404   .     S
C262   O276    1.384   .     S
C262   C321    1.402   1_455 S
C263   O281    1.386   .     S
C263   C320    1.402   .     S
C264   O286    1.385   .     S
C264   C319    1.404   1_455 S
C266   C33     1.188   1_565 S
O271   C272    1.412   .     S
C272   H274    1.115   .     S
C272   H273    1.109   .     S
C272   H275    1.108   .     S
O276   C625    1.411   .     S
C277   H279    1.109   .     S
C277   H280    1.109   .     S
C277   O972    1.411   1_554 S
C277   H974    1.112   1_554 S
H278   C625    1.112   .     S
O281   C630    1.415   .     S
C282   H284    1.116   .     S
C282   H283    1.109   .     S
C282   H285    1.109   .     S
C282   O977    1.415   1_554 S
O286   C287    1.414   .     S
C287   H288    1.114   .     S
C287   H289    1.109   .     S
C287   H290    1.109   .     S
O291   C295    1.273   .     A
O291   Cu303   1.932   .     S
O292   C296    1.273   .     A
O292   Cu304   1.932   .     S
O293   Cu303   1.933   .     S
O293   C296    1.273   .     A
O294   Cu304   1.933   .     S
O294   C295    1.273   .     A
C295   C323    1.404   .     S
C296   C324    1.404   .     S
O297   C301    1.278   .     A
O297   Cu303   1.963   .     S
O298   C302    1.279   .     A
O298   Cu304   1.963   .     S
O299   C302    1.278   .     A
O299   Cu303   1.962   .     S
O300   C301    1.280   .     A
O300   Cu304   1.962   .     S
C301   C312    1.453   .     S
C302   C311    1.453   .     S
Cu303  N306    1.978   .     S
Cu303  Cu304   2.632   .     S
Cu304  N305    1.978   .     S
N305   N1002   1.196   1_554 S
N306   N653    1.196   .     S
C307   C315    1.397   .     A
C307   H325    1.083   .     S
C307   C311    1.395   .     A
C308   C312    1.395   .     A
C308   H326    1.083   .     S
C308   C316    1.399   .     A
C309   H327    1.084   .     S
C309   C311    1.395   .     A
C309   C313    1.399   .     A
C310   H328    1.084   .     S
C310   C312    1.395   .     A
C310   C314    1.397   .     A
C313   C317    1.417   .     A
C313   C319    1.412   .     A
C314   C320    1.412   .     A
C314   C318    1.416   .     A
C315   C321    1.413   .     A
C315   C317    1.417   .     A
C316   C322    1.413   .     A
C316   C318    1.417   .     A
C317   C260    1.402   1_655 S
C319   O329    1.385   .     S
C319   C264    1.404   1_655 S
C320   O334    1.384   .     S
C321   O339    1.386   .     S
C321   C262    1.402   1_655 S
C322   O344    1.385   .     S
C324   C91     1.188   1_565 S
O329   C330    1.412   .     S
C330   H332    1.115   .     S
C330   H331    1.109   .     S
C330   H333    1.108   .     S
O334   C683    1.411   .     S
C335   H337    1.109   .     S
C335   H338    1.109   .     S
C335   O1030   1.411   1_554 S
C335   H1032   1.112   1_554 S
H336   C683    1.112   .     S
O339   C688    1.415   .     S
C340   H342    1.116   .     S
C340   H341    1.109   .     S
C340   H343    1.109   .     S
C340   O1035   1.415   1_554 S
O344   C345    1.414   .     S
C345   H346    1.114   .     S
C345   H347    1.109   .     S
C345   H348    1.109   .     S
O349   C353    1.273   .     A
O349   Cu361   1.932   .     S
O350   C354    1.273   .     A
O350   Cu362   1.932   .     S
O351   Cu361   1.933   .     S
O351   C354    1.273   .     A
O352   Cu362   1.933   .     S
O352   C353    1.273   .     A
C353   C381    1.404   .     S
C354   C382    1.404   .     S
O355   C359    1.278   .     A
O355   Cu361   1.963   .     S
O356   C360    1.279   .     A
O356   Cu362   1.963   .     S
O357   C360    1.278   .     A
O357   Cu361   1.962   .     S
O358   C359    1.280   .     A
O358   Cu362   1.962   .     S
C359   C370    1.453   .     S
C360   C369    1.453   .     S
Cu361  N364    1.978   .     S
Cu361  Cu362   2.632   .     S
Cu362  N363    1.978   .     S
N364   N711    1.196   .     S
C365   C373    1.397   .     A
C365   H383    1.083   .     S
C365   C369    1.395   .     A
C366   C370    1.395   .     A
C366   H384    1.083   .     S
C366   C374    1.399   .     A
C367   H385    1.084   .     S
C367   C369    1.395   .     A
C367   C371    1.399   .     A
C368   H386    1.084   .     S
C368   C370    1.395   .     A
C368   C372    1.397   .     A
C371   C375    1.417   .     A
C371   C377    1.412   .     A
C372   C378    1.412   .     A
C372   C376    1.416   .     A
C373   C379    1.413   .     A
C373   C375    1.417   .     A
C374   C380    1.413   .     A
C374   C376    1.417   .     A
C375   C434    1.402   .     S
C376   C433    1.402   1_455 S
C377   O387    1.385   .     S
C377   C438    1.404   .     S
C378   O392    1.384   .     S
C378   C437    1.402   1_455 S
C379   O397    1.386   .     S
C379   C436    1.402   .     S
C380   O402    1.385   .     S
C380   C435    1.404   1_455 S
C381   C614    1.188   1_545 S
C382   C497    1.188   .     S
O387   C388    1.412   .     S
C388   H390    1.115   .     S
C388   H389    1.109   .     S
C388   H391    1.108   .     S
O392   C741    1.411   .     S
C393   H395    1.109   .     S
C393   H396    1.109   .     S
H394   C741    1.112   .     S
O397   C746    1.415   .     S
C398   H400    1.116   .     S
C398   H399    1.109   .     S
C398   H401    1.109   .     S
O402   C403    1.414   .     S
C403   H404    1.114   .     S
C403   H405    1.109   .     S
C403   H406    1.109   .     S
O407   C411    1.273   .     A
O407   Cu419   1.932   .     S
O408   C412    1.273   .     A
O408   Cu420   1.932   .     S
O409   Cu419   1.933   .     S
O409   C412    1.273   .     A
O410   Cu420   1.933   .     S
O410   C411    1.273   .     A
C411   C439    1.404   .     S
C412   C440    1.404   .     S
O413   C417    1.278   .     A
O413   Cu419   1.963   .     S
O414   C418    1.279   .     A
O414   Cu420   1.963   .     S
O415   C418    1.278   .     A
O415   Cu419   1.962   .     S
O416   C417    1.280   .     A
O416   Cu420   1.962   .     S
C417   C428    1.453   .     S
C418   C427    1.453   .     S
Cu419  N422    1.978   .     S
Cu419  Cu420   2.632   .     S
Cu420  N421    1.978   .     S
N422   N769    1.196   .     S
C423   C431    1.397   .     A
C423   H441    1.083   .     S
C423   C427    1.395   .     A
C424   C428    1.395   .     A
C424   H442    1.083   .     S
C424   C432    1.399   .     A
C425   H443    1.084   .     S
C425   C427    1.395   .     A
C425   C429    1.399   .     A
C426   H444    1.084   .     S
C426   C428    1.395   .     A
C426   C430    1.397   .     A
C429   C433    1.417   .     A
C429   C435    1.412   .     A
C430   C436    1.412   .     A
C430   C434    1.416   .     A
C431   C437    1.413   .     A
C431   C433    1.417   .     A
C432   C438    1.413   .     A
C432   C434    1.417   .     A
C433   C376    1.402   1_655 S
C435   O445    1.385   .     S
C435   C380    1.404   1_655 S
C436   O450    1.384   .     S
C437   O455    1.386   .     S
C437   C378    1.402   1_655 S
C438   O460    1.385   .     S
C439   C672    1.188   1_545 S
C440   C555    1.188   .     S
O445   C446    1.412   .     S
C446   H448    1.115   .     S
C446   H447    1.109   .     S
C446   H449    1.108   .     S
O450   C799    1.411   .     S
C451   H453    1.109   .     S
C451   H454    1.109   .     S
H452   C799    1.112   .     S
O455   C804    1.415   .     S
C456   H458    1.116   .     S
C456   H457    1.109   .     S
C456   H459    1.109   .     S
O460   C461    1.414   .     S
C461   H462    1.114   .     S
C461   H463    1.109   .     S
C461   H464    1.109   .     S
O465   C469    1.273   .     A
O465   Cu477   1.932   .     S
O466   C470    1.273   .     A
O466   Cu478   1.932   .     S
O467   Cu477   1.933   .     S
O467   C470    1.273   .     A
O468   Cu478   1.933   .     S
O468   C469    1.273   .     A
C469   C497    1.404   .     S
C470   C498    1.404   .     S
O471   C475    1.278   .     A
O471   Cu477   1.963   .     S
O472   C476    1.279   .     A
O472   Cu478   1.963   .     S
O473   C476    1.278   .     A
O473   Cu477   1.962   .     S
O474   C475    1.280   .     A
O474   Cu478   1.962   .     S
C475   C486    1.453   .     S
C476   C485    1.453   .     S
Cu477  N480    1.978   .     S
Cu477  Cu478   2.632   .     S
Cu478  N479    1.978   .     S
N480   N827    1.196   .     S
C481   C489    1.397   .     A
C481   H499    1.083   .     S
C481   C485    1.395   .     A
C482   C486    1.395   .     A
C482   H500    1.083   .     S
C482   C490    1.399   .     A
C483   H501    1.084   .     S
C483   C485    1.395   .     A
C483   C487    1.399   .     A
C484   H502    1.084   .     S
C484   C486    1.395   .     A
C484   C488    1.397   .     A
C487   C491    1.417   .     A
C487   C493    1.412   .     A
C488   C494    1.412   .     A
C488   C492    1.416   .     A
C489   C495    1.413   .     A
C489   C491    1.417   .     A
C490   C496    1.413   .     A
C490   C492    1.417   .     A
C491   C550    1.402   .     S
C492   C549    1.402   1_455 S
C493   O503    1.385   .     S
C493   C554    1.404   .     S
C494   O508    1.384   .     S
C494   C553    1.402   1_455 S
C495   O513    1.386   .     S
C495   C552    1.402   .     S
C496   O518    1.385   .     S
C496   C551    1.404   1_455 S
C498   C613    1.188   .     S
O503   C504    1.412   .     S
C504   H506    1.115   .     S
C504   H505    1.109   .     S
C504   H507    1.108   .     S
O508   C857    1.411   .     S
C509   H511    1.109   .     S
C509   H512    1.109   .     S
H510   C857    1.112   .     S
O513   C862    1.415   .     S
C514   H516    1.116   .     S
C514   H515    1.109   .     S
C514   H517    1.109   .     S
O518   C519    1.414   .     S
C519   H520    1.114   .     S
C519   H521    1.109   .     S
C519   H522    1.109   .     S
O523   C527    1.273   .     A
O523   Cu535   1.932   .     S
O524   C528    1.273   .     A
O524   Cu536   1.932   .     S
O525   Cu535   1.933   .     S
O525   C528    1.273   .     A
O526   Cu536   1.933   .     S
O526   C527    1.273   .     A
C527   C555    1.404   .     S
C528   C556    1.404   .     S
O529   C533    1.278   .     A
O529   Cu535   1.963   .     S
O530   C534    1.279   .     A
O530   Cu536   1.963   .     S
O531   C534    1.278   .     A
O531   Cu535   1.962   .     S
O532   C533    1.280   .     A
O532   Cu536   1.962   .     S
C533   C544    1.453   .     S
C534   C543    1.453   .     S
Cu535  N538    1.978   .     S
Cu535  Cu536   2.632   .     S
Cu536  N537    1.978   .     S
N538   N885    1.196   .     S
C539   C547    1.397   .     A
C539   H557    1.083   .     S
C539   C543    1.395   .     A
C540   C544    1.395   .     A
C540   H558    1.083   .     S
C540   C548    1.399   .     A
C541   H559    1.084   .     S
C541   C543    1.395   .     A
C541   C545    1.399   .     A
C542   H560    1.084   .     S
C542   C544    1.395   .     A
C542   C546    1.397   .     A
C545   C549    1.417   .     A
C545   C551    1.412   .     A
C546   C552    1.412   .     A
C546   C550    1.416   .     A
C547   C553    1.413   .     A
C547   C549    1.417   .     A
C548   C554    1.413   .     A
C548   C550    1.417   .     A
C549   C492    1.402   1_655 S
C551   O561    1.385   .     S
C551   C496    1.404   1_655 S
C552   O566    1.384   .     S
C553   O571    1.386   .     S
C553   C494    1.402   1_655 S
C554   O576    1.385   .     S
C556   C671    1.188   .     S
O561   C562    1.412   .     S
C562   H564    1.115   .     S
C562   H563    1.109   .     S
C562   H565    1.108   .     S
O566   C915    1.411   .     S
C567   H569    1.109   .     S
C567   H570    1.109   .     S
H568   C915    1.112   .     S
O571   C920    1.415   .     S
C572   H574    1.116   .     S
C572   H573    1.109   .     S
C572   H575    1.109   .     S
O576   C577    1.414   .     S
C577   H578    1.114   .     S
C577   H579    1.109   .     S
C577   H580    1.109   .     S
O581   C585    1.273   .     A
O581   Cu593   1.932   .     S
O582   C586    1.273   .     A
O582   Cu594   1.932   .     S
O583   Cu593   1.933   .     S
O583   C586    1.273   .     A
O584   Cu594   1.933   .     S
O584   C585    1.273   .     A
C585   C613    1.404   .     S
C586   C614    1.404   .     S
O587   C591    1.278   .     A
O587   Cu593   1.963   .     S
O588   C592    1.279   .     A
O588   Cu594   1.963   .     S
O589   C592    1.278   .     A
O589   Cu593   1.962   .     S
O590   C591    1.280   .     A
O590   Cu594   1.962   .     S
C591   C602    1.453   .     S
C592   C601    1.453   .     S
Cu593  N596    1.978   .     S
Cu593  Cu594   2.632   .     S
Cu594  N595    1.978   .     S
N596   N943    1.196   .     S
C597   C605    1.397   .     A
C597   H615    1.083   .     S
C597   C601    1.395   .     A
C598   C602    1.395   .     A
C598   H616    1.083   .     S
C598   C606    1.399   .     A
C599   H617    1.084   .     S
C599   C601    1.395   .     A
C599   C603    1.399   .     A
C600   H618    1.084   .     S
C600   C602    1.395   .     A
C600   C604    1.397   .     A
C603   C607    1.417   .     A
C603   C609    1.412   .     A
C604   C610    1.412   .     A
C604   C608    1.416   .     A
C605   C611    1.413   .     A
C605   C607    1.417   .     A
C606   C612    1.413   .     A
C606   C608    1.417   .     A
C607   C666    1.402   .     S
C608   C665    1.402   1_455 S
C609   O619    1.385   .     S
C609   C670    1.404   .     S
C610   O624    1.384   .     S
C610   C669    1.402   1_455 S
C611   O629    1.386   .     S
C611   C668    1.402   .     S
C612   O634    1.385   .     S
C612   C667    1.404   1_455 S
C614   C381    1.188   1_565 S
O619   C620    1.412   .     S
C620   H622    1.115   .     S
C620   H621    1.109   .     S
C620   H623    1.108   .     S
O624   C973    1.411   .     S
C625   H627    1.109   .     S
C625   H628    1.109   .     S
H626   C973    1.112   .     S
O629   C978    1.415   .     S
C630   H632    1.116   .     S
C630   H631    1.109   .     S
C630   H633    1.109   .     S
O634   C635    1.414   .     S
C635   H636    1.114   .     S
C635   H637    1.109   .     S
C635   H638    1.109   .     S
O639   C643    1.273   .     A
O639   Cu651   1.932   .     S
O640   C644    1.273   .     A
O640   Cu652   1.932   .     S
O641   Cu651   1.933   .     S
O641   C644    1.273   .     A
O642   Cu652   1.933   .     S
O642   C643    1.273   .     A
C643   C671    1.404   .     S
C644   C672    1.404   .     S
O645   C649    1.278   .     A
O645   Cu651   1.963   .     S
O646   C650    1.279   .     A
O646   Cu652   1.963   .     S
O647   C650    1.278   .     A
O647   Cu651   1.962   .     S
O648   C649    1.280   .     A
O648   Cu652   1.962   .     S
C649   C660    1.453   .     S
C650   C659    1.453   .     S
Cu651  N654    1.978   .     S
Cu651  Cu652   2.632   .     S
Cu652  N653    1.978   .     S
N654   N1001   1.196   .     S
C655   C663    1.397   .     A
C655   H673    1.083   .     S
C655   C659    1.395   .     A
C656   C660    1.395   .     A
C656   H674    1.083   .     S
C656   C664    1.399   .     A
C657   H675    1.084   .     S
C657   C659    1.395   .     A
C657   C661    1.399   .     A
C658   H676    1.084   .     S
C658   C660    1.395   .     A
C658   C662    1.397   .     A
C661   C665    1.417   .     A
C661   C667    1.412   .     A
C662   C668    1.412   .     A
C662   C666    1.416   .     A
C663   C669    1.413   .     A
C663   C665    1.417   .     A
C664   C670    1.413   .     A
C664   C666    1.417   .     A
C665   C608    1.402   1_655 S
C667   O677    1.385   .     S
C667   C612    1.404   1_655 S
C668   O682    1.384   .     S
C669   O687    1.386   .     S
C669   C610    1.402   1_655 S
C670   O692    1.385   .     S
C672   C439    1.188   1_565 S
O677   C678    1.412   .     S
C678   H680    1.115   .     S
C678   H679    1.109   .     S
C678   H681    1.108   .     S
O682   C1031   1.411   .     S
C683   H685    1.109   .     S
C683   H686    1.109   .     S
H684   C1031   1.112   .     S
O687   C1036   1.415   .     S
C688   H690    1.116   .     S
C688   H689    1.109   .     S
C688   H691    1.109   .     S
O692   C693    1.414   .     S
C693   H694    1.114   .     S
C693   H695    1.109   .     S
C693   H696    1.109   .     S
O697   C701    1.273   .     A
O697   Cu709   1.932   .     S
O698   C702    1.273   .     A
O698   Cu710   1.932   .     S
O699   Cu709   1.933   .     S
O699   C702    1.273   .     A
O700   Cu710   1.933   .     S
O700   C701    1.273   .     A
C701   C729    1.404   .     S
C702   C730    1.404   .     S
O703   C707    1.278   .     A
O703   Cu709   1.963   .     S
O704   C708    1.279   .     A
O704   Cu710   1.963   .     S
O705   C708    1.278   .     A
O705   Cu709   1.962   .     S
O706   C707    1.280   .     A
O706   Cu710   1.962   .     S
C707   C718    1.453   .     S
C708   C717    1.453   .     S
Cu709  N712    1.978   .     S
Cu709  Cu710   2.632   .     S
Cu710  N711    1.978   .     S
N712   N15     1.196   1_556 S
C713   C721    1.397   .     A
C713   H731    1.083   .     S
C713   C717    1.395   .     A
C714   C718    1.395   .     A
C714   H732    1.083   .     S
C714   C722    1.399   .     A
C715   H733    1.084   .     S
C715   C717    1.395   .     A
C715   C719    1.399   .     A
C716   H734    1.084   .     S
C716   C718    1.395   .     A
C716   C720    1.397   .     A
C719   C723    1.417   .     A
C719   C725    1.412   .     A
C720   C726    1.412   .     A
C720   C724    1.416   .     A
C721   C727    1.413   .     A
C721   C723    1.417   .     A
C722   C728    1.413   .     A
C722   C724    1.417   .     A
C723   C782    1.402   .     S
C724   C781    1.402   1_455 S
C725   O735    1.385   .     S
C725   C786    1.404   .     S
C726   O740    1.384   .     S
C726   C785    1.402   1_455 S
C727   O745    1.386   .     S
C727   C784    1.402   .     S
C728   O750    1.385   .     S
C728   C783    1.404   1_455 S
C729   C962    1.188   1_545 S
C730   C845    1.188   .     S
O735   C736    1.412   .     S
C736   H738    1.115   .     S
C736   H737    1.109   .     S
C736   H739    1.108   .     S
O740   C45     1.411   1_556 S
C741   H743    1.109   .     S
C741   H744    1.109   .     S
H742   C45     1.112   1_556 S
O745   C50     1.415   1_556 S
C746   H748    1.116   .     S
C746   H747    1.109   .     S
C746   H749    1.109   .     S
O750   C751    1.414   .     S
C751   H752    1.114   .     S
C751   H753    1.109   .     S
C751   H754    1.109   .     S
O755   C759    1.273   .     A
O755   Cu767   1.932   .     S
O756   C760    1.273   .     A
O756   Cu768   1.932   .     S
O757   Cu767   1.933   .     S
O757   C760    1.273   .     A
O758   Cu768   1.933   .     S
O758   C759    1.273   .     A
C759   C787    1.404   .     S
C760   C788    1.404   .     S
O761   C765    1.278   .     A
O761   Cu767   1.963   .     S
O762   C766    1.279   .     A
O762   Cu768   1.963   .     S
O763   C766    1.278   .     A
O763   Cu767   1.962   .     S
O764   C765    1.280   .     A
O764   Cu768   1.962   .     S
C765   C776    1.453   .     S
C766   C775    1.453   .     S
Cu767  N770    1.978   .     S
Cu767  Cu768   2.632   .     S
Cu768  N769    1.978   .     S
N770   N73     1.196   1_556 S
C771   C779    1.397   .     A
C771   H789    1.083   .     S
C771   C775    1.395   .     A
C772   C776    1.395   .     A
C772   H790    1.083   .     S
C772   C780    1.399   .     A
C773   H791    1.084   .     S
C773   C775    1.395   .     A
C773   C777    1.399   .     A
C774   H792    1.084   .     S
C774   C776    1.395   .     A
C774   C778    1.397   .     A
C777   C781    1.417   .     A
C777   C783    1.412   .     A
C778   C784    1.412   .     A
C778   C782    1.416   .     A
C779   C785    1.413   .     A
C779   C781    1.417   .     A
C780   C786    1.413   .     A
C780   C782    1.417   .     A
C781   C724    1.402   1_655 S
C783   O793    1.385   .     S
C783   C728    1.404   1_655 S
C784   O798    1.384   .     S
C785   O803    1.386   .     S
C785   C726    1.402   1_655 S
C786   O808    1.385   .     S
C787   C1020   1.188   1_545 S
C788   C903    1.188   .     S
O793   C794    1.412   .     S
C794   H796    1.115   .     S
C794   H795    1.109   .     S
C794   H797    1.108   .     S
O798   C103    1.411   1_556 S
C799   H801    1.109   .     S
C799   H802    1.109   .     S
H800   C103    1.112   1_556 S
O803   C108    1.415   1_556 S
C804   H806    1.116   .     S
C804   H805    1.109   .     S
C804   H807    1.109   .     S
O808   C809    1.414   .     S
C809   H810    1.114   .     S
C809   H811    1.109   .     S
C809   H812    1.109   .     S
O813   C817    1.273   .     A
O813   Cu825   1.932   .     S
O814   C818    1.273   .     A
O814   Cu826   1.932   .     S
O815   Cu825   1.933   .     S
O815   C818    1.273   .     A
O816   Cu826   1.933   .     S
O816   C817    1.273   .     A
C817   C845    1.404   .     S
C818   C846    1.404   .     S
O819   C823    1.278   .     A
O819   Cu825   1.963   .     S
O820   C824    1.279   .     A
O820   Cu826   1.963   .     S
O821   C824    1.278   .     A
O821   Cu825   1.962   .     S
O822   C823    1.280   .     A
O822   Cu826   1.962   .     S
C823   C834    1.453   .     S
C824   C833    1.453   .     S
Cu825  N828    1.978   .     S
Cu825  Cu826   2.632   .     S
Cu826  N827    1.978   .     S
N828   N131    1.196   1_556 S
C829   C837    1.397   .     A
C829   H847    1.083   .     S
C829   C833    1.395   .     A
C830   C834    1.395   .     A
C830   H848    1.083   .     S
C830   C838    1.399   .     A
C831   H849    1.084   .     S
C831   C833    1.395   .     A
C831   C835    1.399   .     A
C832   H850    1.084   .     S
C832   C834    1.395   .     A
C832   C836    1.397   .     A
C835   C839    1.417   .     A
C835   C841    1.412   .     A
C836   C842    1.412   .     A
C836   C840    1.416   .     A
C837   C843    1.413   .     A
C837   C839    1.417   .     A
C838   C844    1.413   .     A
C838   C840    1.417   .     A
C839   C898    1.402   .     S
C840   C897    1.402   1_455 S
C841   O851    1.385   .     S
C841   C902    1.404   .     S
C842   O856    1.384   .     S
C842   C901    1.402   1_455 S
C843   O861    1.386   .     S
C843   C900    1.402   .     S
C844   O866    1.385   .     S
C844   C899    1.404   1_455 S
C846   C961    1.188   .     S
O851   C852    1.412   .     S
C852   H854    1.115   .     S
C852   H853    1.109   .     S
C852   H855    1.108   .     S
O856   C161    1.411   1_556 S
C857   H859    1.109   .     S
C857   H860    1.109   .     S
H858   C161    1.112   1_556 S
O861   C166    1.415   1_556 S
C862   H864    1.116   .     S
C862   H863    1.109   .     S
C862   H865    1.109   .     S
O866   C867    1.414   .     S
C867   H868    1.114   .     S
C867   H869    1.109   .     S
C867   H870    1.109   .     S
O871   C875    1.273   .     A
O871   Cu883   1.932   .     S
O872   C876    1.273   .     A
O872   Cu884   1.932   .     S
O873   Cu883   1.933   .     S
O873   C876    1.273   .     A
O874   Cu884   1.933   .     S
O874   C875    1.273   .     A
C875   C903    1.404   .     S
C876   C904    1.404   .     S
O877   C881    1.278   .     A
O877   Cu883   1.963   .     S
O878   C882    1.279   .     A
O878   Cu884   1.963   .     S
O879   C882    1.278   .     A
O879   Cu883   1.962   .     S
O880   C881    1.280   .     A
O880   Cu884   1.962   .     S
C881   C892    1.453   .     S
C882   C891    1.453   .     S
Cu883  N886    1.978   .     S
Cu883  Cu884   2.632   .     S
Cu884  N885    1.978   .     S
N886   N189    1.196   1_556 S
C887   C895    1.397   .     A
C887   H905    1.083   .     S
C887   C891    1.395   .     A
C888   C892    1.395   .     A
C888   H906    1.083   .     S
C888   C896    1.399   .     A
C889   H907    1.084   .     S
C889   C891    1.395   .     A
C889   C893    1.399   .     A
C890   H908    1.084   .     S
C890   C892    1.395   .     A
C890   C894    1.397   .     A
C893   C897    1.417   .     A
C893   C899    1.412   .     A
C894   C900    1.412   .     A
C894   C898    1.416   .     A
C895   C901    1.413   .     A
C895   C897    1.417   .     A
C896   C902    1.413   .     A
C896   C898    1.417   .     A
C897   C840    1.402   1_655 S
C899   O909    1.385   .     S
C899   C844    1.404   1_655 S
C900   O914    1.384   .     S
C901   O919    1.386   .     S
C901   C842    1.402   1_655 S
C902   O924    1.385   .     S
C904   C1019   1.188   .     S
O909   C910    1.412   .     S
C910   H912    1.115   .     S
C910   H911    1.109   .     S
C910   H913    1.108   .     S
O914   C219    1.411   1_556 S
C915   H917    1.109   .     S
C915   H918    1.109   .     S
H916   C219    1.112   1_556 S
O919   C224    1.415   1_556 S
C920   H922    1.116   .     S
C920   H921    1.109   .     S
C920   H923    1.109   .     S
O924   C925    1.414   .     S
C925   H926    1.114   .     S
C925   H927    1.109   .     S
C925   H928    1.109   .     S
O929   C933    1.273   .     A
O929   Cu941   1.932   .     S
O930   C934    1.273   .     A
O930   Cu942   1.932   .     S
O931   Cu941   1.933   .     S
O931   C934    1.273   .     A
O932   Cu942   1.933   .     S
O932   C933    1.273   .     A
C933   C961    1.404   .     S
C934   C962    1.404   .     S
O935   C939    1.278   .     A
O935   Cu941   1.963   .     S
O936   C940    1.279   .     A
O936   Cu942   1.963   .     S
O937   C940    1.278   .     A
O937   Cu941   1.962   .     S
O938   C939    1.280   .     A
O938   Cu942   1.962   .     S
C939   C950    1.453   .     S
C940   C949    1.453   .     S
Cu941  N944    1.978   .     S
Cu941  Cu942   2.632   .     S
Cu942  N943    1.978   .     S
N944   N247    1.196   1_556 S
C945   C953    1.397   .     A
C945   H963    1.083   .     S
C945   C949    1.395   .     A
C946   C950    1.395   .     A
C946   H964    1.083   .     S
C946   C954    1.399   .     A
C947   H965    1.084   .     S
C947   C949    1.395   .     A
C947   C951    1.399   .     A
C948   H966    1.084   .     S
C948   C950    1.395   .     A
C948   C952    1.397   .     A
C951   C955    1.417   .     A
C951   C957    1.412   .     A
C952   C958    1.412   .     A
C952   C956    1.416   .     A
C953   C959    1.413   .     A
C953   C955    1.417   .     A
C954   C960    1.413   .     A
C954   C956    1.417   .     A
C955   C1014   1.402   .     S
C956   C1013   1.402   1_455 S
C957   O967    1.385   .     S
C957   C1018   1.404   .     S
C958   O972    1.384   .     S
C958   C1017   1.402   1_455 S
C959   O977    1.386   .     S
C959   C1016   1.402   .     S
C960   O982    1.385   .     S
C960   C1015   1.404   1_455 S
C962   C729    1.188   1_565 S
O967   C968    1.412   .     S
C968   H970    1.115   .     S
C968   H969    1.109   .     S
C968   H971    1.108   .     S
O972   C277    1.411   1_556 S
C973   H975    1.109   .     S
C973   H976    1.109   .     S
H974   C277    1.112   1_556 S
O977   C282    1.415   1_556 S
C978   H980    1.116   .     S
C978   H979    1.109   .     S
C978   H981    1.109   .     S
O982   C983    1.414   .     S
C983   H984    1.114   .     S
C983   H985    1.109   .     S
C983   H986    1.109   .     S
O987   C991    1.273   .     A
O987   Cu999   1.932   .     S
O988   C992    1.273   .     A
O988   Cu1000  1.932   .     S
O989   Cu999   1.933   .     S
O989   C992    1.273   .     A
O990   Cu1000  1.933   .     S
O990   C991    1.273   .     A
C991   C1019   1.404   .     S
C992   C1020   1.404   .     S
O993   C997    1.278   .     A
O993   Cu999   1.963   .     S
O994   C998    1.279   .     A
O994   Cu1000  1.963   .     S
O995   C998    1.278   .     A
O995   Cu999   1.962   .     S
O996   C997    1.280   .     A
O996   Cu1000  1.962   .     S
C997   C1008   1.453   .     S
C998   C1007   1.453   .     S
Cu999  N1002   1.978   .     S
Cu999  Cu1000  2.632   .     S
Cu1000 N1001   1.978   .     S
N1002  N305    1.196   1_556 S
C1003  C1011   1.397   .     A
C1003  H1021   1.083   .     S
C1003  C1007   1.395   .     A
C1004  C1008   1.395   .     A
C1004  H1022   1.083   .     S
C1004  C1012   1.399   .     A
C1005  H1023   1.084   .     S
C1005  C1007   1.395   .     A
C1005  C1009   1.399   .     A
C1006  H1024   1.084   .     S
C1006  C1008   1.395   .     A
C1006  C1010   1.397   .     A
C1009  C1013   1.417   .     A
C1009  C1015   1.412   .     A
C1010  C1016   1.412   .     A
C1010  C1014   1.416   .     A
C1011  C1017   1.413   .     A
C1011  C1013   1.417   .     A
C1012  C1018   1.413   .     A
C1012  C1014   1.417   .     A
C1013  C956    1.402   1_655 S
C1015  O1025   1.385   .     S
C1015  C960    1.404   1_655 S
C1016  O1030   1.384   .     S
C1017  O1035   1.386   .     S
C1017  C958    1.402   1_655 S
C1018  O1040   1.385   .     S
C1020  C787    1.188   1_565 S
O1025  C1026   1.412   .     S
C1026  H1028   1.115   .     S
C1026  H1027   1.109   .     S
C1026  H1029   1.108   .     S
O1030  C335    1.411   1_556 S
C1031  H1033   1.109   .     S
C1031  H1034   1.109   .     S
H1032  C335    1.112   1_556 S
O1035  C340    1.415   1_556 S
C1036  H1038   1.116   .     S
C1036  H1037   1.109   .     S
C1036  H1039   1.109   .     S
O1040  C1041   1.414   .     S
C1041  H1042   1.114   .     S
C1041  H1043   1.109   .     S
C1041  H1044   1.109   .     S
