data_str_m2_o2_o5_pcu_sym.105
_audit_creation_date              2020-01-03
_audit_creation_method            'Materials Studio'
_symmetry_space_group_name_H-M    'P1'
_symmetry_Int_Tables_number       1
_symmetry_cell_setting            triclinic
loop_
_symmetry_equiv_pos_as_xyz
  x,y,z
_cell_length_a                    30.1963
_cell_length_b                    27.7270
_cell_length_c                    27.1631
_cell_angle_alpha                 90.0006
_cell_angle_beta                  89.9943
_cell_angle_gamma                 89.9989
loop_
_atom_site_label
_atom_site_type_symbol
_atom_site_fract_x
_atom_site_fract_y
_atom_site_fract_z
_atom_site_U_iso_or_equiv
_atom_site_adp_type
_atom_site_occupancy
C1     C     0.16518   0.25000   0.16667   0.00000  Uiso   1.00
C2     C     0.23469   0.44635   0.20751   0.00000  Uiso   1.00
C3     C     0.25000   0.25000   0.07352   0.00000  Uiso   1.00
C4     C     0.25000   0.25000   0.25982   0.00000  Uiso   1.00
C5     C     0.25000   0.02722   0.16667   0.00000  Uiso   1.00
C6     C     0.25000   0.47276   0.16667   0.00000  Uiso   1.00
C7     C     0.25000   0.25000   0.02185   0.00000  Uiso   1.00
C8     C     0.25000   0.25000   0.31148   0.00000  Uiso   1.00
C9     C     0.04776   0.26394   0.12440   0.00000  Uiso   1.00
C10    C     0.45225   0.23604   0.12440   0.00000  Uiso   1.00
C11    C     0.45223   0.26392   0.20894   0.00000  Uiso   1.00
C12    C     0.33482   0.25000   0.16666   0.00000  Uiso   1.00
C13    C     0.04776   0.23604   0.20894   0.00000  Uiso   1.00
C14    C     0.09396   0.26305   0.12348   0.00000  Uiso   1.00
C15    C     0.40604   0.23694   0.12347   0.00000  Uiso   1.00
C16    C     0.40603   0.26303   0.20987   0.00000  Uiso   1.00
C17    C     0.09396   0.23694   0.20987   0.00000  Uiso   1.00
C18    C     0.11713   0.25000   0.16667   0.00000  Uiso   1.00
C19    C     0.38287   0.24999   0.16666   0.00000  Uiso   1.00
C20    C     0.02441   0.24999   0.16667   0.00000  Uiso   1.00
C21    C     0.47559   0.24998   0.16667   0.00000  Uiso   1.00
C22    C     0.11729   0.27476   0.07550   0.00000  Uiso   1.00
C23    C     0.26450   0.10445   0.20702   0.00000  Uiso   1.00
C24    C     0.12234   0.32934   0.06875   0.00000  Uiso   1.00
C25    C     0.14644   0.34111   0.02083   0.00000  Uiso   1.00
C26    C     0.38272   0.22525   0.07548   0.00000  Uiso   1.00
C27    C     0.37761   0.17067   0.06874   0.00000  Uiso   1.00
C28    C     0.35357   0.15893   0.02077   0.00000  Uiso   1.00
C29    C     0.38270   0.27470   0.25785   0.00000  Uiso   1.00
C30    C     0.37771   0.32928   0.26469   0.00000  Uiso   1.00
C31    C     0.35365   0.34101   0.31265   0.00000  Uiso   1.00
C32    C     0.11729   0.22525   0.25785   0.00000  Uiso   1.00
C33    C     0.12234   0.17066   0.26461   0.00000  Uiso   1.00
C34    C     0.26549   0.39552   0.12676   0.00000  Uiso   1.00
C35    C     0.14649   0.15891   0.31251   0.00000  Uiso   1.00
C36    C     0.23550   0.10446   0.12631   0.00000  Uiso   1.00
C37    C     0.23451   0.39552   0.20657   0.00000  Uiso   1.00
C38    C     0.26429   0.05363   0.20796   0.00000  Uiso   1.00
C39    C     0.26531   0.44635   0.12582   0.00000  Uiso   1.00
C40    C     0.23571   0.05363   0.12538   0.00000  Uiso   1.00
Cu41   Cu    0.25000   0.29821   0.16667   0.00000  Uiso   1.00
Cu42   Cu    0.25000   0.20178   0.16667   0.00000  Uiso   1.00
H43    H     0.27648   0.12378   0.23889   0.00000  Uiso   1.00
H44    H     0.27786   0.46487   0.09362   0.00000  Uiso   1.00
H45    H     0.22397   0.03511   0.09280   0.00000  Uiso   1.00
H46    H     0.22214   0.46487   0.23972   0.00000  Uiso   1.00
H47    H     0.18030   0.32555   0.02123   0.00000  Uiso   1.00
H48    H     0.12790   0.32646   0.32216   0.00000  Uiso   1.00
H49    H     0.14919   0.38084   0.01664   0.00000  Uiso   1.00
H50    H     0.08910   0.34657   0.06804   0.00000  Uiso   1.00
H51    H     0.14138   0.34477   0.10002   0.00000  Uiso   1.00
H52    H     0.15029   0.25716   0.07365   0.00000  Uiso   1.00
H53    H     0.09785   0.25968   0.04434   0.00000  Uiso   1.00
H54    H     0.27824   0.37615   0.09528   0.00000  Uiso   1.00
H55    H     0.31973   0.17457   0.02108   0.00000  Uiso   1.00
H56    H     0.37220   0.17351   0.32214   0.00000  Uiso   1.00
H57    H     0.35075   0.11921   0.01661   0.00000  Uiso   1.00
H58    H     0.41083   0.15339   0.06811   0.00000  Uiso   1.00
H59    H     0.35849   0.15529   0.09998   0.00000  Uiso   1.00
H60    H     0.34975   0.24290   0.07362   0.00000  Uiso   1.00
H61    H     0.40220   0.24029   0.04433   0.00000  Uiso   1.00
H62    H     0.31977   0.32548   0.31226   0.00000  Uiso   1.00
H63    H     0.37220   0.32630   0.01128   0.00000  Uiso   1.00
H64    H     0.35094   0.38073   0.31690   0.00000  Uiso   1.00
H65    H     0.22352   0.12378   0.09444   0.00000  Uiso   1.00
H66    H     0.41096   0.34647   0.26539   0.00000  Uiso   1.00
H67    H     0.35866   0.34476   0.23346   0.00000  Uiso   1.00
H68    H     0.34969   0.25715   0.25967   0.00000  Uiso   1.00
H69    H     0.40212   0.25955   0.28900   0.00000  Uiso   1.00
H70    H     0.18037   0.17444   0.31205   0.00000  Uiso   1.00
H71    H     0.12799   0.17360   0.01120   0.00000  Uiso   1.00
H72    H     0.14921   0.11919   0.31672   0.00000  Uiso   1.00
H73    H     0.08910   0.15344   0.26536   0.00000  Uiso   1.00
H74    H     0.14136   0.15523   0.23332   0.00000  Uiso   1.00
H75    H     0.15027   0.24285   0.25969   0.00000  Uiso   1.00
H76    H     0.22176   0.37615   0.23806   0.00000  Uiso   1.00
H77    H     0.09784   0.24032   0.28901   0.00000  Uiso   1.00
H78    H     0.03006   0.27554   0.09180   0.00000  Uiso   1.00
H79    H     0.46995   0.22444   0.09179   0.00000  Uiso   1.00
H80    H     0.46993   0.27551   0.24155   0.00000  Uiso   1.00
H81    H     0.03005   0.22444   0.24155   0.00000  Uiso   1.00
H82    H     0.27603   0.03511   0.24053   0.00000  Uiso   1.00
N83    N     0.25000   0.12935   0.16667   0.00000  Uiso   1.00
N84    N     0.25000   0.37065   0.16667   0.00000  Uiso   1.00
O85    O     0.18573   0.29071   0.16667   0.00000  Uiso   1.00
O86    O     0.31427   0.20928   0.16666   0.00000  Uiso   1.00
O87    O     0.31427   0.29071   0.16666   0.00000  Uiso   1.00
O88    O     0.18573   0.20928   0.16667   0.00000  Uiso   1.00
O89    O     0.25000   0.29071   0.09613   0.00000  Uiso   1.00
O90    O     0.25000   0.20929   0.23720   0.00000  Uiso   1.00
O91    O     0.25000   0.29071   0.23720   0.00000  Uiso   1.00
O92    O     0.25000   0.20929   0.09613   0.00000  Uiso   1.00
C93    C     0.66518   0.25000   0.16667   0.00000  Uiso   1.00
C94    C     0.73469   0.44635   0.20751   0.00000  Uiso   1.00
C95    C     0.75000   0.25000   0.07352   0.00000  Uiso   1.00
C96    C     0.75000   0.25000   0.25982   0.00000  Uiso   1.00
C97    C     0.75000   0.02722   0.16667   0.00000  Uiso   1.00
C98    C     0.75000   0.47276   0.16667   0.00000  Uiso   1.00
C99    C     0.75000   0.25000   0.02185   0.00000  Uiso   1.00
C100   C     0.75000   0.25000   0.31148   0.00000  Uiso   1.00
C101   C     0.54776   0.26394   0.12440   0.00000  Uiso   1.00
C102   C     0.95225   0.23604   0.12440   0.00000  Uiso   1.00
C103   C     0.95223   0.26392   0.20894   0.00000  Uiso   1.00
C104   C     0.83482   0.25000   0.16666   0.00000  Uiso   1.00
C105   C     0.54776   0.23604   0.20894   0.00000  Uiso   1.00
C106   C     0.59396   0.26305   0.12348   0.00000  Uiso   1.00
C107   C     0.90604   0.23694   0.12347   0.00000  Uiso   1.00
C108   C     0.90603   0.26303   0.20987   0.00000  Uiso   1.00
C109   C     0.59396   0.23694   0.20987   0.00000  Uiso   1.00
C110   C     0.61713   0.25000   0.16667   0.00000  Uiso   1.00
C111   C     0.88287   0.24999   0.16666   0.00000  Uiso   1.00
C112   C     0.52441   0.24999   0.16667   0.00000  Uiso   1.00
C113   C     0.97559   0.24998   0.16667   0.00000  Uiso   1.00
C114   C     0.61729   0.27476   0.07550   0.00000  Uiso   1.00
C115   C     0.76450   0.10445   0.20702   0.00000  Uiso   1.00
C116   C     0.62234   0.32934   0.06875   0.00000  Uiso   1.00
C117   C     0.64644   0.34111   0.02083   0.00000  Uiso   1.00
C118   C     0.88272   0.22525   0.07548   0.00000  Uiso   1.00
C119   C     0.87761   0.17067   0.06874   0.00000  Uiso   1.00
C120   C     0.85357   0.15893   0.02077   0.00000  Uiso   1.00
C121   C     0.88270   0.27470   0.25785   0.00000  Uiso   1.00
C122   C     0.87771   0.32928   0.26469   0.00000  Uiso   1.00
C123   C     0.85365   0.34101   0.31265   0.00000  Uiso   1.00
C124   C     0.61729   0.22525   0.25785   0.00000  Uiso   1.00
C125   C     0.62234   0.17066   0.26461   0.00000  Uiso   1.00
C126   C     0.76549   0.39552   0.12676   0.00000  Uiso   1.00
C127   C     0.64649   0.15891   0.31251   0.00000  Uiso   1.00
C128   C     0.73550   0.10446   0.12631   0.00000  Uiso   1.00
C129   C     0.73451   0.39552   0.20657   0.00000  Uiso   1.00
C130   C     0.76429   0.05363   0.20796   0.00000  Uiso   1.00
C131   C     0.76531   0.44635   0.12582   0.00000  Uiso   1.00
C132   C     0.73571   0.05363   0.12538   0.00000  Uiso   1.00
Cu133  Cu    0.75000   0.29821   0.16667   0.00000  Uiso   1.00
Cu134  Cu    0.75000   0.20178   0.16667   0.00000  Uiso   1.00
H135   H     0.77648   0.12378   0.23889   0.00000  Uiso   1.00
H136   H     0.77786   0.46487   0.09362   0.00000  Uiso   1.00
H137   H     0.72397   0.03511   0.09280   0.00000  Uiso   1.00
H138   H     0.72214   0.46487   0.23972   0.00000  Uiso   1.00
H139   H     0.68030   0.32555   0.02123   0.00000  Uiso   1.00
H140   H     0.62790   0.32646   0.32216   0.00000  Uiso   1.00
H141   H     0.64919   0.38084   0.01664   0.00000  Uiso   1.00
H142   H     0.58910   0.34657   0.06804   0.00000  Uiso   1.00
H143   H     0.64138   0.34477   0.10002   0.00000  Uiso   1.00
H144   H     0.65029   0.25716   0.07365   0.00000  Uiso   1.00
H145   H     0.59785   0.25968   0.04434   0.00000  Uiso   1.00
H146   H     0.77824   0.37615   0.09528   0.00000  Uiso   1.00
H147   H     0.81973   0.17457   0.02108   0.00000  Uiso   1.00
H148   H     0.87220   0.17351   0.32214   0.00000  Uiso   1.00
H149   H     0.85075   0.11921   0.01661   0.00000  Uiso   1.00
H150   H     0.91083   0.15339   0.06811   0.00000  Uiso   1.00
H151   H     0.85849   0.15529   0.09998   0.00000  Uiso   1.00
H152   H     0.84975   0.24290   0.07362   0.00000  Uiso   1.00
H153   H     0.90220   0.24029   0.04433   0.00000  Uiso   1.00
H154   H     0.81977   0.32548   0.31226   0.00000  Uiso   1.00
H155   H     0.87220   0.32630   0.01128   0.00000  Uiso   1.00
H156   H     0.85094   0.38073   0.31690   0.00000  Uiso   1.00
H157   H     0.72352   0.12378   0.09444   0.00000  Uiso   1.00
H158   H     0.91096   0.34647   0.26539   0.00000  Uiso   1.00
H159   H     0.85866   0.34476   0.23346   0.00000  Uiso   1.00
H160   H     0.84969   0.25715   0.25967   0.00000  Uiso   1.00
H161   H     0.90212   0.25955   0.28900   0.00000  Uiso   1.00
H162   H     0.68037   0.17444   0.31205   0.00000  Uiso   1.00
H163   H     0.62799   0.17360   0.01120   0.00000  Uiso   1.00
H164   H     0.64921   0.11919   0.31672   0.00000  Uiso   1.00
H165   H     0.58910   0.15344   0.26536   0.00000  Uiso   1.00
H166   H     0.64136   0.15523   0.23332   0.00000  Uiso   1.00
H167   H     0.65027   0.24285   0.25969   0.00000  Uiso   1.00
H168   H     0.72176   0.37615   0.23806   0.00000  Uiso   1.00
H169   H     0.59784   0.24032   0.28901   0.00000  Uiso   1.00
H170   H     0.53006   0.27554   0.09180   0.00000  Uiso   1.00
H171   H     0.96995   0.22444   0.09179   0.00000  Uiso   1.00
H172   H     0.96993   0.27551   0.24155   0.00000  Uiso   1.00
H173   H     0.53005   0.22444   0.24155   0.00000  Uiso   1.00
H174   H     0.77603   0.03511   0.24053   0.00000  Uiso   1.00
N175   N     0.75000   0.12935   0.16667   0.00000  Uiso   1.00
N176   N     0.75000   0.37065   0.16667   0.00000  Uiso   1.00
O177   O     0.68573   0.29071   0.16667   0.00000  Uiso   1.00
O178   O     0.81427   0.20928   0.16666   0.00000  Uiso   1.00
O179   O     0.81427   0.29071   0.16666   0.00000  Uiso   1.00
O180   O     0.68573   0.20928   0.16667   0.00000  Uiso   1.00
O181   O     0.75000   0.29071   0.09613   0.00000  Uiso   1.00
O182   O     0.75000   0.20929   0.23720   0.00000  Uiso   1.00
O183   O     0.75000   0.29071   0.23720   0.00000  Uiso   1.00
O184   O     0.75000   0.20929   0.09613   0.00000  Uiso   1.00
C185   C     0.16518   0.75000   0.16667   0.00000  Uiso   1.00
C186   C     0.23469   0.94635   0.20751   0.00000  Uiso   1.00
C187   C     0.25000   0.75000   0.07352   0.00000  Uiso   1.00
C188   C     0.25000   0.75000   0.25982   0.00000  Uiso   1.00
C189   C     0.25000   0.52722   0.16667   0.00000  Uiso   1.00
C190   C     0.25000   0.97276   0.16667   0.00000  Uiso   1.00
C191   C     0.25000   0.75000   0.02185   0.00000  Uiso   1.00
C192   C     0.25000   0.75000   0.31148   0.00000  Uiso   1.00
C193   C     0.04776   0.76394   0.12440   0.00000  Uiso   1.00
C194   C     0.45225   0.73604   0.12440   0.00000  Uiso   1.00
C195   C     0.45223   0.76392   0.20894   0.00000  Uiso   1.00
C196   C     0.33482   0.75000   0.16666   0.00000  Uiso   1.00
C197   C     0.04776   0.73604   0.20894   0.00000  Uiso   1.00
C198   C     0.09396   0.76305   0.12348   0.00000  Uiso   1.00
C199   C     0.40604   0.73694   0.12347   0.00000  Uiso   1.00
C200   C     0.40603   0.76303   0.20987   0.00000  Uiso   1.00
C201   C     0.09396   0.73694   0.20987   0.00000  Uiso   1.00
C202   C     0.11713   0.75000   0.16667   0.00000  Uiso   1.00
C203   C     0.38287   0.74999   0.16666   0.00000  Uiso   1.00
C204   C     0.02441   0.74999   0.16667   0.00000  Uiso   1.00
C205   C     0.47559   0.74998   0.16667   0.00000  Uiso   1.00
C206   C     0.11729   0.77476   0.07550   0.00000  Uiso   1.00
C207   C     0.26450   0.60445   0.20702   0.00000  Uiso   1.00
C208   C     0.12234   0.82934   0.06875   0.00000  Uiso   1.00
C209   C     0.14644   0.84111   0.02083   0.00000  Uiso   1.00
C210   C     0.38272   0.72525   0.07548   0.00000  Uiso   1.00
C211   C     0.37761   0.67067   0.06874   0.00000  Uiso   1.00
C212   C     0.35357   0.65893   0.02077   0.00000  Uiso   1.00
C213   C     0.38270   0.77470   0.25785   0.00000  Uiso   1.00
C214   C     0.37771   0.82928   0.26469   0.00000  Uiso   1.00
C215   C     0.35365   0.84101   0.31265   0.00000  Uiso   1.00
C216   C     0.11729   0.72525   0.25785   0.00000  Uiso   1.00
C217   C     0.12234   0.67066   0.26461   0.00000  Uiso   1.00
C218   C     0.26549   0.89552   0.12676   0.00000  Uiso   1.00
C219   C     0.14649   0.65891   0.31251   0.00000  Uiso   1.00
C220   C     0.23550   0.60446   0.12631   0.00000  Uiso   1.00
C221   C     0.23451   0.89552   0.20657   0.00000  Uiso   1.00
C222   C     0.26429   0.55363   0.20796   0.00000  Uiso   1.00
C223   C     0.26531   0.94635   0.12582   0.00000  Uiso   1.00
C224   C     0.23571   0.55363   0.12538   0.00000  Uiso   1.00
Cu225  Cu    0.25000   0.79821   0.16667   0.00000  Uiso   1.00
Cu226  Cu    0.25000   0.70178   0.16667   0.00000  Uiso   1.00
H227   H     0.27648   0.62378   0.23889   0.00000  Uiso   1.00
H228   H     0.27786   0.96487   0.09362   0.00000  Uiso   1.00
H229   H     0.22397   0.53511   0.09280   0.00000  Uiso   1.00
H230   H     0.22214   0.96487   0.23972   0.00000  Uiso   1.00
H231   H     0.18030   0.82555   0.02123   0.00000  Uiso   1.00
H232   H     0.12790   0.82646   0.32216   0.00000  Uiso   1.00
H233   H     0.14919   0.88084   0.01664   0.00000  Uiso   1.00
H234   H     0.08910   0.84657   0.06804   0.00000  Uiso   1.00
H235   H     0.14138   0.84477   0.10002   0.00000  Uiso   1.00
H236   H     0.15029   0.75716   0.07365   0.00000  Uiso   1.00
H237   H     0.09785   0.75968   0.04434   0.00000  Uiso   1.00
H238   H     0.27824   0.87615   0.09528   0.00000  Uiso   1.00
H239   H     0.31973   0.67457   0.02108   0.00000  Uiso   1.00
H240   H     0.37220   0.67351   0.32214   0.00000  Uiso   1.00
H241   H     0.35075   0.61921   0.01661   0.00000  Uiso   1.00
H242   H     0.41083   0.65339   0.06811   0.00000  Uiso   1.00
H243   H     0.35849   0.65529   0.09998   0.00000  Uiso   1.00
H244   H     0.34975   0.74290   0.07362   0.00000  Uiso   1.00
H245   H     0.40220   0.74029   0.04433   0.00000  Uiso   1.00
H246   H     0.31977   0.82548   0.31226   0.00000  Uiso   1.00
H247   H     0.37220   0.82630   0.01128   0.00000  Uiso   1.00
H248   H     0.35094   0.88073   0.31690   0.00000  Uiso   1.00
H249   H     0.22352   0.62378   0.09444   0.00000  Uiso   1.00
H250   H     0.41096   0.84647   0.26539   0.00000  Uiso   1.00
H251   H     0.35866   0.84476   0.23346   0.00000  Uiso   1.00
H252   H     0.34969   0.75715   0.25967   0.00000  Uiso   1.00
H253   H     0.40212   0.75955   0.28900   0.00000  Uiso   1.00
H254   H     0.18037   0.67444   0.31205   0.00000  Uiso   1.00
H255   H     0.12799   0.67360   0.01120   0.00000  Uiso   1.00
H256   H     0.14921   0.61919   0.31672   0.00000  Uiso   1.00
H257   H     0.08910   0.65344   0.26536   0.00000  Uiso   1.00
H258   H     0.14136   0.65523   0.23332   0.00000  Uiso   1.00
H259   H     0.15027   0.74285   0.25969   0.00000  Uiso   1.00
H260   H     0.22176   0.87615   0.23806   0.00000  Uiso   1.00
H261   H     0.09784   0.74032   0.28901   0.00000  Uiso   1.00
H262   H     0.03006   0.77554   0.09180   0.00000  Uiso   1.00
H263   H     0.46995   0.72444   0.09179   0.00000  Uiso   1.00
H264   H     0.46993   0.77551   0.24155   0.00000  Uiso   1.00
H265   H     0.03005   0.72444   0.24155   0.00000  Uiso   1.00
H266   H     0.27603   0.53511   0.24053   0.00000  Uiso   1.00
N267   N     0.25000   0.62935   0.16667   0.00000  Uiso   1.00
N268   N     0.25000   0.87065   0.16667   0.00000  Uiso   1.00
O269   O     0.18573   0.79071   0.16667   0.00000  Uiso   1.00
O270   O     0.31427   0.70928   0.16666   0.00000  Uiso   1.00
O271   O     0.31427   0.79071   0.16666   0.00000  Uiso   1.00
O272   O     0.18573   0.70928   0.16667   0.00000  Uiso   1.00
O273   O     0.25000   0.79071   0.09613   0.00000  Uiso   1.00
O274   O     0.25000   0.70929   0.23720   0.00000  Uiso   1.00
O275   O     0.25000   0.79071   0.23720   0.00000  Uiso   1.00
O276   O     0.25000   0.70929   0.09613   0.00000  Uiso   1.00
C277   C     0.66518   0.75000   0.16667   0.00000  Uiso   1.00
C278   C     0.73469   0.94635   0.20751   0.00000  Uiso   1.00
C279   C     0.75000   0.75000   0.07352   0.00000  Uiso   1.00
C280   C     0.75000   0.75000   0.25982   0.00000  Uiso   1.00
C281   C     0.75000   0.52722   0.16667   0.00000  Uiso   1.00
C282   C     0.75000   0.97276   0.16667   0.00000  Uiso   1.00
C283   C     0.75000   0.75000   0.02185   0.00000  Uiso   1.00
C284   C     0.75000   0.75000   0.31148   0.00000  Uiso   1.00
C285   C     0.54776   0.76394   0.12440   0.00000  Uiso   1.00
C286   C     0.95225   0.73604   0.12440   0.00000  Uiso   1.00
C287   C     0.95223   0.76392   0.20894   0.00000  Uiso   1.00
C288   C     0.83482   0.75000   0.16666   0.00000  Uiso   1.00
C289   C     0.54776   0.73604   0.20894   0.00000  Uiso   1.00
C290   C     0.59396   0.76305   0.12348   0.00000  Uiso   1.00
C291   C     0.90604   0.73694   0.12347   0.00000  Uiso   1.00
C292   C     0.90603   0.76303   0.20987   0.00000  Uiso   1.00
C293   C     0.59396   0.73694   0.20987   0.00000  Uiso   1.00
C294   C     0.61713   0.75000   0.16667   0.00000  Uiso   1.00
C295   C     0.88287   0.74999   0.16666   0.00000  Uiso   1.00
C296   C     0.52441   0.74999   0.16667   0.00000  Uiso   1.00
C297   C     0.97559   0.74998   0.16667   0.00000  Uiso   1.00
C298   C     0.61729   0.77476   0.07550   0.00000  Uiso   1.00
C299   C     0.76450   0.60445   0.20702   0.00000  Uiso   1.00
C300   C     0.62234   0.82934   0.06875   0.00000  Uiso   1.00
C301   C     0.64644   0.84111   0.02083   0.00000  Uiso   1.00
C302   C     0.88272   0.72525   0.07548   0.00000  Uiso   1.00
C303   C     0.87761   0.67067   0.06874   0.00000  Uiso   1.00
C304   C     0.85357   0.65893   0.02077   0.00000  Uiso   1.00
C305   C     0.88270   0.77470   0.25785   0.00000  Uiso   1.00
C306   C     0.87771   0.82928   0.26469   0.00000  Uiso   1.00
C307   C     0.85365   0.84101   0.31265   0.00000  Uiso   1.00
C308   C     0.61729   0.72525   0.25785   0.00000  Uiso   1.00
C309   C     0.62234   0.67066   0.26461   0.00000  Uiso   1.00
C310   C     0.76549   0.89552   0.12676   0.00000  Uiso   1.00
C311   C     0.64649   0.65891   0.31251   0.00000  Uiso   1.00
C312   C     0.73550   0.60446   0.12631   0.00000  Uiso   1.00
C313   C     0.73451   0.89552   0.20657   0.00000  Uiso   1.00
C314   C     0.76429   0.55363   0.20796   0.00000  Uiso   1.00
C315   C     0.76531   0.94635   0.12582   0.00000  Uiso   1.00
C316   C     0.73571   0.55363   0.12538   0.00000  Uiso   1.00
Cu317  Cu    0.75000   0.79821   0.16667   0.00000  Uiso   1.00
Cu318  Cu    0.75000   0.70178   0.16667   0.00000  Uiso   1.00
H319   H     0.77648   0.62378   0.23889   0.00000  Uiso   1.00
H320   H     0.77786   0.96487   0.09362   0.00000  Uiso   1.00
H321   H     0.72397   0.53511   0.09280   0.00000  Uiso   1.00
H322   H     0.72214   0.96487   0.23972   0.00000  Uiso   1.00
H323   H     0.68030   0.82555   0.02123   0.00000  Uiso   1.00
H324   H     0.62790   0.82646   0.32216   0.00000  Uiso   1.00
H325   H     0.64919   0.88084   0.01664   0.00000  Uiso   1.00
H326   H     0.58910   0.84657   0.06804   0.00000  Uiso   1.00
H327   H     0.64138   0.84477   0.10002   0.00000  Uiso   1.00
H328   H     0.65029   0.75716   0.07365   0.00000  Uiso   1.00
H329   H     0.59785   0.75968   0.04434   0.00000  Uiso   1.00
H330   H     0.77824   0.87615   0.09528   0.00000  Uiso   1.00
H331   H     0.81973   0.67457   0.02108   0.00000  Uiso   1.00
H332   H     0.87220   0.67351   0.32214   0.00000  Uiso   1.00
H333   H     0.85075   0.61921   0.01661   0.00000  Uiso   1.00
H334   H     0.91083   0.65339   0.06811   0.00000  Uiso   1.00
H335   H     0.85849   0.65529   0.09998   0.00000  Uiso   1.00
H336   H     0.84975   0.74290   0.07362   0.00000  Uiso   1.00
H337   H     0.90220   0.74029   0.04433   0.00000  Uiso   1.00
H338   H     0.81977   0.82548   0.31226   0.00000  Uiso   1.00
H339   H     0.87220   0.82630   0.01128   0.00000  Uiso   1.00
H340   H     0.85094   0.88073   0.31690   0.00000  Uiso   1.00
H341   H     0.72352   0.62378   0.09444   0.00000  Uiso   1.00
H342   H     0.91096   0.84647   0.26539   0.00000  Uiso   1.00
H343   H     0.85866   0.84476   0.23346   0.00000  Uiso   1.00
H344   H     0.84969   0.75715   0.25967   0.00000  Uiso   1.00
H345   H     0.90212   0.75955   0.28900   0.00000  Uiso   1.00
H346   H     0.68037   0.67444   0.31205   0.00000  Uiso   1.00
H347   H     0.62799   0.67360   0.01120   0.00000  Uiso   1.00
H348   H     0.64921   0.61919   0.31672   0.00000  Uiso   1.00
H349   H     0.58910   0.65344   0.26536   0.00000  Uiso   1.00
H350   H     0.64136   0.65523   0.23332   0.00000  Uiso   1.00
H351   H     0.65027   0.74285   0.25969   0.00000  Uiso   1.00
H352   H     0.72176   0.87615   0.23806   0.00000  Uiso   1.00
H353   H     0.59784   0.74032   0.28901   0.00000  Uiso   1.00
H354   H     0.53006   0.77554   0.09180   0.00000  Uiso   1.00
H355   H     0.96995   0.72444   0.09179   0.00000  Uiso   1.00
H356   H     0.96993   0.77551   0.24155   0.00000  Uiso   1.00
H357   H     0.53005   0.72444   0.24155   0.00000  Uiso   1.00
H358   H     0.77603   0.53511   0.24053   0.00000  Uiso   1.00
N359   N     0.75000   0.62935   0.16667   0.00000  Uiso   1.00
N360   N     0.75000   0.87065   0.16667   0.00000  Uiso   1.00
O361   O     0.68573   0.79071   0.16667   0.00000  Uiso   1.00
O362   O     0.81427   0.70928   0.16666   0.00000  Uiso   1.00
O363   O     0.81427   0.79071   0.16666   0.00000  Uiso   1.00
O364   O     0.68573   0.70928   0.16667   0.00000  Uiso   1.00
O365   O     0.75000   0.79071   0.09613   0.00000  Uiso   1.00
O366   O     0.75000   0.70929   0.23720   0.00000  Uiso   1.00
O367   O     0.75000   0.79071   0.23720   0.00000  Uiso   1.00
O368   O     0.75000   0.70929   0.09613   0.00000  Uiso   1.00
C369   C     0.16518   0.25000   0.50000   0.00000  Uiso   1.00
C370   C     0.23469   0.44635   0.54084   0.00000  Uiso   1.00
C371   C     0.25000   0.25000   0.40685   0.00000  Uiso   1.00
C372   C     0.25000   0.25000   0.59315   0.00000  Uiso   1.00
C373   C     0.25000   0.02722   0.50000   0.00000  Uiso   1.00
C374   C     0.25000   0.47276   0.50000   0.00000  Uiso   1.00
C375   C     0.25000   0.25000   0.35519   0.00000  Uiso   1.00
C376   C     0.25000   0.25000   0.64481   0.00000  Uiso   1.00
C377   C     0.04776   0.26394   0.45774   0.00000  Uiso   1.00
C378   C     0.45225   0.23604   0.45773   0.00000  Uiso   1.00
C379   C     0.45223   0.26392   0.54227   0.00000  Uiso   1.00
C380   C     0.33482   0.25000   0.49999   0.00000  Uiso   1.00
C381   C     0.04776   0.23604   0.54227   0.00000  Uiso   1.00
C382   C     0.09396   0.26305   0.45681   0.00000  Uiso   1.00
C383   C     0.40604   0.23694   0.45680   0.00000  Uiso   1.00
C384   C     0.40603   0.26303   0.54320   0.00000  Uiso   1.00
C385   C     0.09396   0.23694   0.54320   0.00000  Uiso   1.00
C386   C     0.11713   0.25000   0.50001   0.00000  Uiso   1.00
C387   C     0.38287   0.24999   0.50000   0.00000  Uiso   1.00
C388   C     0.02441   0.24999   0.50000   0.00000  Uiso   1.00
C389   C     0.47559   0.24998   0.50000   0.00000  Uiso   1.00
C390   C     0.11729   0.27476   0.40883   0.00000  Uiso   1.00
C391   C     0.26450   0.10445   0.54035   0.00000  Uiso   1.00
C392   C     0.12234   0.32934   0.40208   0.00000  Uiso   1.00
C393   C     0.14644   0.34111   0.35416   0.00000  Uiso   1.00
C394   C     0.38272   0.22525   0.40882   0.00000  Uiso   1.00
C395   C     0.37761   0.17067   0.40207   0.00000  Uiso   1.00
C396   C     0.35357   0.15893   0.35410   0.00000  Uiso   1.00
C397   C     0.38270   0.27470   0.59119   0.00000  Uiso   1.00
C398   C     0.37771   0.32928   0.59802   0.00000  Uiso   1.00
C399   C     0.35365   0.34101   0.64599   0.00000  Uiso   1.00
C400   C     0.11729   0.22525   0.59118   0.00000  Uiso   1.00
C401   C     0.12234   0.17066   0.59794   0.00000  Uiso   1.00
C402   C     0.26549   0.39552   0.46010   0.00000  Uiso   1.00
C403   C     0.14649   0.15891   0.64584   0.00000  Uiso   1.00
C404   C     0.23550   0.10446   0.45965   0.00000  Uiso   1.00
C405   C     0.23451   0.39552   0.53990   0.00000  Uiso   1.00
C406   C     0.26429   0.05363   0.54129   0.00000  Uiso   1.00
C407   C     0.26531   0.44635   0.45916   0.00000  Uiso   1.00
C408   C     0.23571   0.05363   0.45871   0.00000  Uiso   1.00
Cu409  Cu    0.25000   0.29821   0.50000   0.00000  Uiso   1.00
Cu410  Cu    0.25000   0.20178   0.50000   0.00000  Uiso   1.00
H411   H     0.27648   0.12378   0.57223   0.00000  Uiso   1.00
H412   H     0.27786   0.46487   0.42695   0.00000  Uiso   1.00
H413   H     0.22397   0.03511   0.42613   0.00000  Uiso   1.00
H414   H     0.22214   0.46487   0.57305   0.00000  Uiso   1.00
H415   H     0.18030   0.32555   0.35457   0.00000  Uiso   1.00
H416   H     0.12790   0.32646   0.65550   0.00000  Uiso   1.00
H417   H     0.14919   0.38084   0.34997   0.00000  Uiso   1.00
H418   H     0.08910   0.34657   0.40138   0.00000  Uiso   1.00
H419   H     0.14138   0.34477   0.43335   0.00000  Uiso   1.00
H420   H     0.15029   0.25716   0.40699   0.00000  Uiso   1.00
H421   H     0.09785   0.25968   0.37767   0.00000  Uiso   1.00
H422   H     0.27824   0.37615   0.42861   0.00000  Uiso   1.00
H423   H     0.31973   0.17457   0.35441   0.00000  Uiso   1.00
H424   H     0.37220   0.17351   0.65547   0.00000  Uiso   1.00
H425   H     0.35075   0.11921   0.34994   0.00000  Uiso   1.00
H426   H     0.41083   0.15339   0.40144   0.00000  Uiso   1.00
H427   H     0.35849   0.15529   0.43331   0.00000  Uiso   1.00
H428   H     0.34975   0.24290   0.40695   0.00000  Uiso   1.00
H429   H     0.40220   0.24029   0.37766   0.00000  Uiso   1.00
H430   H     0.31977   0.32548   0.64560   0.00000  Uiso   1.00
H431   H     0.37220   0.32630   0.34462   0.00000  Uiso   1.00
H432   H     0.35094   0.38073   0.65024   0.00000  Uiso   1.00
H433   H     0.22352   0.12378   0.42777   0.00000  Uiso   1.00
H434   H     0.41096   0.34647   0.59872   0.00000  Uiso   1.00
H435   H     0.35866   0.34476   0.56679   0.00000  Uiso   1.00
H436   H     0.34969   0.25715   0.59300   0.00000  Uiso   1.00
H437   H     0.40212   0.25955   0.62233   0.00000  Uiso   1.00
H438   H     0.18037   0.17444   0.64538   0.00000  Uiso   1.00
H439   H     0.12799   0.17360   0.34453   0.00000  Uiso   1.00
H440   H     0.14921   0.11919   0.65006   0.00000  Uiso   1.00
H441   H     0.08910   0.15344   0.59869   0.00000  Uiso   1.00
H442   H     0.14136   0.15523   0.56665   0.00000  Uiso   1.00
H443   H     0.15027   0.24285   0.59302   0.00000  Uiso   1.00
H444   H     0.22176   0.37615   0.57139   0.00000  Uiso   1.00
H445   H     0.09784   0.24032   0.62234   0.00000  Uiso   1.00
H446   H     0.03006   0.27554   0.42513   0.00000  Uiso   1.00
H447   H     0.46995   0.22444   0.42512   0.00000  Uiso   1.00
H448   H     0.46993   0.27551   0.57489   0.00000  Uiso   1.00
H449   H     0.03005   0.22444   0.57488   0.00000  Uiso   1.00
H450   H     0.27603   0.03511   0.57387   0.00000  Uiso   1.00
N451   N     0.25000   0.12935   0.50000   0.00000  Uiso   1.00
N452   N     0.25000   0.37065   0.50000   0.00000  Uiso   1.00
O453   O     0.18573   0.29071   0.50000   0.00000  Uiso   1.00
O454   O     0.31427   0.20928   0.50000   0.00000  Uiso   1.00
O455   O     0.31427   0.29071   0.50000   0.00000  Uiso   1.00
O456   O     0.18573   0.20928   0.50000   0.00000  Uiso   1.00
O457   O     0.25000   0.29071   0.42946   0.00000  Uiso   1.00
O458   O     0.25000   0.20929   0.57054   0.00000  Uiso   1.00
O459   O     0.25000   0.29071   0.57054   0.00000  Uiso   1.00
O460   O     0.25000   0.20929   0.42946   0.00000  Uiso   1.00
C461   C     0.66518   0.25000   0.50000   0.00000  Uiso   1.00
C462   C     0.73469   0.44635   0.54084   0.00000  Uiso   1.00
C463   C     0.75000   0.25000   0.40685   0.00000  Uiso   1.00
C464   C     0.75000   0.25000   0.59315   0.00000  Uiso   1.00
C465   C     0.75000   0.02722   0.50000   0.00000  Uiso   1.00
C466   C     0.75000   0.47276   0.50000   0.00000  Uiso   1.00
C467   C     0.75000   0.25000   0.35519   0.00000  Uiso   1.00
C468   C     0.75000   0.25000   0.64481   0.00000  Uiso   1.00
C469   C     0.54776   0.26394   0.45774   0.00000  Uiso   1.00
C470   C     0.95225   0.23604   0.45773   0.00000  Uiso   1.00
C471   C     0.95223   0.26392   0.54227   0.00000  Uiso   1.00
C472   C     0.83482   0.25000   0.49999   0.00000  Uiso   1.00
C473   C     0.54776   0.23604   0.54227   0.00000  Uiso   1.00
C474   C     0.59396   0.26305   0.45681   0.00000  Uiso   1.00
C475   C     0.90604   0.23694   0.45680   0.00000  Uiso   1.00
C476   C     0.90603   0.26303   0.54320   0.00000  Uiso   1.00
C477   C     0.59396   0.23694   0.54320   0.00000  Uiso   1.00
C478   C     0.61713   0.25000   0.50001   0.00000  Uiso   1.00
C479   C     0.88287   0.24999   0.50000   0.00000  Uiso   1.00
C480   C     0.52441   0.24999   0.50000   0.00000  Uiso   1.00
C481   C     0.97559   0.24998   0.50000   0.00000  Uiso   1.00
C482   C     0.61729   0.27476   0.40883   0.00000  Uiso   1.00
C483   C     0.76450   0.10445   0.54035   0.00000  Uiso   1.00
C484   C     0.62234   0.32934   0.40208   0.00000  Uiso   1.00
C485   C     0.64644   0.34111   0.35416   0.00000  Uiso   1.00
C486   C     0.88272   0.22525   0.40882   0.00000  Uiso   1.00
C487   C     0.87761   0.17067   0.40207   0.00000  Uiso   1.00
C488   C     0.85357   0.15893   0.35410   0.00000  Uiso   1.00
C489   C     0.88270   0.27470   0.59119   0.00000  Uiso   1.00
C490   C     0.87771   0.32928   0.59802   0.00000  Uiso   1.00
C491   C     0.85365   0.34101   0.64599   0.00000  Uiso   1.00
C492   C     0.61729   0.22525   0.59118   0.00000  Uiso   1.00
C493   C     0.62234   0.17066   0.59794   0.00000  Uiso   1.00
C494   C     0.76549   0.39552   0.46010   0.00000  Uiso   1.00
C495   C     0.64649   0.15891   0.64584   0.00000  Uiso   1.00
C496   C     0.73550   0.10446   0.45965   0.00000  Uiso   1.00
C497   C     0.73451   0.39552   0.53990   0.00000  Uiso   1.00
C498   C     0.76429   0.05363   0.54129   0.00000  Uiso   1.00
C499   C     0.76531   0.44635   0.45916   0.00000  Uiso   1.00
C500   C     0.73571   0.05363   0.45871   0.00000  Uiso   1.00
Cu501  Cu    0.75000   0.29821   0.50000   0.00000  Uiso   1.00
Cu502  Cu    0.75000   0.20178   0.50000   0.00000  Uiso   1.00
H503   H     0.77648   0.12378   0.57223   0.00000  Uiso   1.00
H504   H     0.77786   0.46487   0.42695   0.00000  Uiso   1.00
H505   H     0.72397   0.03511   0.42613   0.00000  Uiso   1.00
H506   H     0.72214   0.46487   0.57305   0.00000  Uiso   1.00
H507   H     0.68030   0.32555   0.35457   0.00000  Uiso   1.00
H508   H     0.62790   0.32646   0.65550   0.00000  Uiso   1.00
H509   H     0.64919   0.38084   0.34997   0.00000  Uiso   1.00
H510   H     0.58910   0.34657   0.40138   0.00000  Uiso   1.00
H511   H     0.64138   0.34477   0.43335   0.00000  Uiso   1.00
H512   H     0.65029   0.25716   0.40699   0.00000  Uiso   1.00
H513   H     0.59785   0.25968   0.37767   0.00000  Uiso   1.00
H514   H     0.77824   0.37615   0.42861   0.00000  Uiso   1.00
H515   H     0.81973   0.17457   0.35441   0.00000  Uiso   1.00
H516   H     0.87220   0.17351   0.65547   0.00000  Uiso   1.00
H517   H     0.85075   0.11921   0.34994   0.00000  Uiso   1.00
H518   H     0.91083   0.15339   0.40144   0.00000  Uiso   1.00
H519   H     0.85849   0.15529   0.43331   0.00000  Uiso   1.00
H520   H     0.84975   0.24290   0.40695   0.00000  Uiso   1.00
H521   H     0.90220   0.24029   0.37766   0.00000  Uiso   1.00
H522   H     0.81977   0.32548   0.64560   0.00000  Uiso   1.00
H523   H     0.87220   0.32630   0.34462   0.00000  Uiso   1.00
H524   H     0.85094   0.38073   0.65024   0.00000  Uiso   1.00
H525   H     0.72352   0.12378   0.42777   0.00000  Uiso   1.00
H526   H     0.91096   0.34647   0.59872   0.00000  Uiso   1.00
H527   H     0.85866   0.34476   0.56679   0.00000  Uiso   1.00
H528   H     0.84969   0.25715   0.59300   0.00000  Uiso   1.00
H529   H     0.90212   0.25955   0.62233   0.00000  Uiso   1.00
H530   H     0.68037   0.17444   0.64538   0.00000  Uiso   1.00
H531   H     0.62799   0.17360   0.34453   0.00000  Uiso   1.00
H532   H     0.64921   0.11919   0.65006   0.00000  Uiso   1.00
H533   H     0.58910   0.15344   0.59869   0.00000  Uiso   1.00
H534   H     0.64136   0.15523   0.56665   0.00000  Uiso   1.00
H535   H     0.65027   0.24285   0.59302   0.00000  Uiso   1.00
H536   H     0.72176   0.37615   0.57139   0.00000  Uiso   1.00
H537   H     0.59784   0.24032   0.62234   0.00000  Uiso   1.00
H538   H     0.53006   0.27554   0.42513   0.00000  Uiso   1.00
H539   H     0.96995   0.22444   0.42512   0.00000  Uiso   1.00
H540   H     0.96993   0.27551   0.57489   0.00000  Uiso   1.00
H541   H     0.53005   0.22444   0.57488   0.00000  Uiso   1.00
H542   H     0.77603   0.03511   0.57387   0.00000  Uiso   1.00
N543   N     0.75000   0.12935   0.50000   0.00000  Uiso   1.00
N544   N     0.75000   0.37065   0.50000   0.00000  Uiso   1.00
O545   O     0.68573   0.29071   0.50000   0.00000  Uiso   1.00
O546   O     0.81427   0.20928   0.50000   0.00000  Uiso   1.00
O547   O     0.81427   0.29071   0.50000   0.00000  Uiso   1.00
O548   O     0.68573   0.20928   0.50000   0.00000  Uiso   1.00
O549   O     0.75000   0.29071   0.42946   0.00000  Uiso   1.00
O550   O     0.75000   0.20929   0.57054   0.00000  Uiso   1.00
O551   O     0.75000   0.29071   0.57054   0.00000  Uiso   1.00
O552   O     0.75000   0.20929   0.42946   0.00000  Uiso   1.00
C553   C     0.16518   0.75000   0.50000   0.00000  Uiso   1.00
C554   C     0.23469   0.94635   0.54084   0.00000  Uiso   1.00
C555   C     0.25000   0.75000   0.40685   0.00000  Uiso   1.00
C556   C     0.25000   0.75000   0.59315   0.00000  Uiso   1.00
C557   C     0.25000   0.52722   0.50000   0.00000  Uiso   1.00
C558   C     0.25000   0.97276   0.50000   0.00000  Uiso   1.00
C559   C     0.25000   0.75000   0.35519   0.00000  Uiso   1.00
C560   C     0.25000   0.75000   0.64481   0.00000  Uiso   1.00
C561   C     0.04776   0.76394   0.45774   0.00000  Uiso   1.00
C562   C     0.45225   0.73604   0.45773   0.00000  Uiso   1.00
C563   C     0.45223   0.76392   0.54227   0.00000  Uiso   1.00
C564   C     0.33482   0.75000   0.49999   0.00000  Uiso   1.00
C565   C     0.04776   0.73604   0.54227   0.00000  Uiso   1.00
C566   C     0.09396   0.76305   0.45681   0.00000  Uiso   1.00
C567   C     0.40604   0.73694   0.45680   0.00000  Uiso   1.00
C568   C     0.40603   0.76303   0.54320   0.00000  Uiso   1.00
C569   C     0.09396   0.73694   0.54320   0.00000  Uiso   1.00
C570   C     0.11713   0.75000   0.50001   0.00000  Uiso   1.00
C571   C     0.38287   0.74999   0.50000   0.00000  Uiso   1.00
C572   C     0.02441   0.74999   0.50000   0.00000  Uiso   1.00
C573   C     0.47559   0.74998   0.50000   0.00000  Uiso   1.00
C574   C     0.11729   0.77476   0.40883   0.00000  Uiso   1.00
C575   C     0.26450   0.60445   0.54035   0.00000  Uiso   1.00
C576   C     0.12234   0.82934   0.40208   0.00000  Uiso   1.00
C577   C     0.14644   0.84111   0.35416   0.00000  Uiso   1.00
C578   C     0.38272   0.72525   0.40882   0.00000  Uiso   1.00
C579   C     0.37761   0.67067   0.40207   0.00000  Uiso   1.00
C580   C     0.35357   0.65893   0.35410   0.00000  Uiso   1.00
C581   C     0.38270   0.77470   0.59119   0.00000  Uiso   1.00
C582   C     0.37771   0.82928   0.59802   0.00000  Uiso   1.00
C583   C     0.35365   0.84101   0.64599   0.00000  Uiso   1.00
C584   C     0.11729   0.72525   0.59118   0.00000  Uiso   1.00
C585   C     0.12234   0.67066   0.59794   0.00000  Uiso   1.00
C586   C     0.26549   0.89552   0.46010   0.00000  Uiso   1.00
C587   C     0.14649   0.65891   0.64584   0.00000  Uiso   1.00
C588   C     0.23550   0.60446   0.45965   0.00000  Uiso   1.00
C589   C     0.23451   0.89552   0.53990   0.00000  Uiso   1.00
C590   C     0.26429   0.55363   0.54129   0.00000  Uiso   1.00
C591   C     0.26531   0.94635   0.45916   0.00000  Uiso   1.00
C592   C     0.23571   0.55363   0.45871   0.00000  Uiso   1.00
Cu593  Cu    0.25000   0.79821   0.50000   0.00000  Uiso   1.00
Cu594  Cu    0.25000   0.70178   0.50000   0.00000  Uiso   1.00
H595   H     0.27648   0.62378   0.57223   0.00000  Uiso   1.00
H596   H     0.27786   0.96487   0.42695   0.00000  Uiso   1.00
H597   H     0.22397   0.53511   0.42613   0.00000  Uiso   1.00
H598   H     0.22214   0.96487   0.57305   0.00000  Uiso   1.00
H599   H     0.18030   0.82555   0.35457   0.00000  Uiso   1.00
H600   H     0.12790   0.82646   0.65550   0.00000  Uiso   1.00
H601   H     0.14919   0.88084   0.34997   0.00000  Uiso   1.00
H602   H     0.08910   0.84657   0.40138   0.00000  Uiso   1.00
H603   H     0.14138   0.84477   0.43335   0.00000  Uiso   1.00
H604   H     0.15029   0.75716   0.40699   0.00000  Uiso   1.00
H605   H     0.09785   0.75968   0.37767   0.00000  Uiso   1.00
H606   H     0.27824   0.87615   0.42861   0.00000  Uiso   1.00
H607   H     0.31973   0.67457   0.35441   0.00000  Uiso   1.00
H608   H     0.37220   0.67351   0.65547   0.00000  Uiso   1.00
H609   H     0.35075   0.61921   0.34994   0.00000  Uiso   1.00
H610   H     0.41083   0.65339   0.40144   0.00000  Uiso   1.00
H611   H     0.35849   0.65529   0.43331   0.00000  Uiso   1.00
H612   H     0.34975   0.74290   0.40695   0.00000  Uiso   1.00
H613   H     0.40220   0.74029   0.37766   0.00000  Uiso   1.00
H614   H     0.31977   0.82548   0.64560   0.00000  Uiso   1.00
H615   H     0.37220   0.82630   0.34462   0.00000  Uiso   1.00
H616   H     0.35094   0.88073   0.65024   0.00000  Uiso   1.00
H617   H     0.22352   0.62378   0.42777   0.00000  Uiso   1.00
H618   H     0.41096   0.84647   0.59872   0.00000  Uiso   1.00
H619   H     0.35866   0.84476   0.56679   0.00000  Uiso   1.00
H620   H     0.34969   0.75715   0.59300   0.00000  Uiso   1.00
H621   H     0.40212   0.75955   0.62233   0.00000  Uiso   1.00
H622   H     0.18037   0.67444   0.64538   0.00000  Uiso   1.00
H623   H     0.12799   0.67360   0.34453   0.00000  Uiso   1.00
H624   H     0.14921   0.61919   0.65006   0.00000  Uiso   1.00
H625   H     0.08910   0.65344   0.59869   0.00000  Uiso   1.00
H626   H     0.14136   0.65523   0.56665   0.00000  Uiso   1.00
H627   H     0.15027   0.74285   0.59302   0.00000  Uiso   1.00
H628   H     0.22176   0.87615   0.57139   0.00000  Uiso   1.00
H629   H     0.09784   0.74032   0.62234   0.00000  Uiso   1.00
H630   H     0.03006   0.77554   0.42513   0.00000  Uiso   1.00
H631   H     0.46995   0.72444   0.42512   0.00000  Uiso   1.00
H632   H     0.46993   0.77551   0.57489   0.00000  Uiso   1.00
H633   H     0.03005   0.72444   0.57488   0.00000  Uiso   1.00
H634   H     0.27603   0.53511   0.57387   0.00000  Uiso   1.00
N635   N     0.25000   0.62935   0.50000   0.00000  Uiso   1.00
N636   N     0.25000   0.87065   0.50000   0.00000  Uiso   1.00
O637   O     0.18573   0.79071   0.50000   0.00000  Uiso   1.00
O638   O     0.31427   0.70928   0.50000   0.00000  Uiso   1.00
O639   O     0.31427   0.79071   0.50000   0.00000  Uiso   1.00
O640   O     0.18573   0.70928   0.50000   0.00000  Uiso   1.00
O641   O     0.25000   0.79071   0.42946   0.00000  Uiso   1.00
O642   O     0.25000   0.70929   0.57054   0.00000  Uiso   1.00
O643   O     0.25000   0.79071   0.57054   0.00000  Uiso   1.00
O644   O     0.25000   0.70929   0.42946   0.00000  Uiso   1.00
C645   C     0.66518   0.75000   0.50000   0.00000  Uiso   1.00
C646   C     0.73469   0.94635   0.54084   0.00000  Uiso   1.00
C647   C     0.75000   0.75000   0.40685   0.00000  Uiso   1.00
C648   C     0.75000   0.75000   0.59315   0.00000  Uiso   1.00
C649   C     0.75000   0.52722   0.50000   0.00000  Uiso   1.00
C650   C     0.75000   0.97276   0.50000   0.00000  Uiso   1.00
C651   C     0.75000   0.75000   0.35519   0.00000  Uiso   1.00
C652   C     0.75000   0.75000   0.64481   0.00000  Uiso   1.00
C653   C     0.54776   0.76394   0.45774   0.00000  Uiso   1.00
C654   C     0.95225   0.73604   0.45773   0.00000  Uiso   1.00
C655   C     0.95223   0.76392   0.54227   0.00000  Uiso   1.00
C656   C     0.83482   0.75000   0.49999   0.00000  Uiso   1.00
C657   C     0.54776   0.73604   0.54227   0.00000  Uiso   1.00
C658   C     0.59396   0.76305   0.45681   0.00000  Uiso   1.00
C659   C     0.90604   0.73694   0.45680   0.00000  Uiso   1.00
C660   C     0.90603   0.76303   0.54320   0.00000  Uiso   1.00
C661   C     0.59396   0.73694   0.54320   0.00000  Uiso   1.00
C662   C     0.61713   0.75000   0.50001   0.00000  Uiso   1.00
C663   C     0.88287   0.74999   0.50000   0.00000  Uiso   1.00
C664   C     0.52441   0.74999   0.50000   0.00000  Uiso   1.00
C665   C     0.97559   0.74998   0.50000   0.00000  Uiso   1.00
C666   C     0.61729   0.77476   0.40883   0.00000  Uiso   1.00
C667   C     0.76450   0.60445   0.54035   0.00000  Uiso   1.00
C668   C     0.62234   0.82934   0.40208   0.00000  Uiso   1.00
C669   C     0.64644   0.84111   0.35416   0.00000  Uiso   1.00
C670   C     0.88272   0.72525   0.40882   0.00000  Uiso   1.00
C671   C     0.87761   0.67067   0.40207   0.00000  Uiso   1.00
C672   C     0.85357   0.65893   0.35410   0.00000  Uiso   1.00
C673   C     0.88270   0.77470   0.59119   0.00000  Uiso   1.00
C674   C     0.87771   0.82928   0.59802   0.00000  Uiso   1.00
C675   C     0.85365   0.84101   0.64599   0.00000  Uiso   1.00
C676   C     0.61729   0.72525   0.59118   0.00000  Uiso   1.00
C677   C     0.62234   0.67066   0.59794   0.00000  Uiso   1.00
C678   C     0.76549   0.89552   0.46010   0.00000  Uiso   1.00
C679   C     0.64649   0.65891   0.64584   0.00000  Uiso   1.00
C680   C     0.73550   0.60446   0.45965   0.00000  Uiso   1.00
C681   C     0.73451   0.89552   0.53990   0.00000  Uiso   1.00
C682   C     0.76429   0.55363   0.54129   0.00000  Uiso   1.00
C683   C     0.76531   0.94635   0.45916   0.00000  Uiso   1.00
C684   C     0.73571   0.55363   0.45871   0.00000  Uiso   1.00
Cu685  Cu    0.75000   0.79821   0.50000   0.00000  Uiso   1.00
Cu686  Cu    0.75000   0.70178   0.50000   0.00000  Uiso   1.00
H687   H     0.77648   0.62378   0.57223   0.00000  Uiso   1.00
H688   H     0.77786   0.96487   0.42695   0.00000  Uiso   1.00
H689   H     0.72397   0.53511   0.42613   0.00000  Uiso   1.00
H690   H     0.72214   0.96487   0.57305   0.00000  Uiso   1.00
H691   H     0.68030   0.82555   0.35457   0.00000  Uiso   1.00
H692   H     0.62790   0.82646   0.65550   0.00000  Uiso   1.00
H693   H     0.64919   0.88084   0.34997   0.00000  Uiso   1.00
H694   H     0.58910   0.84657   0.40138   0.00000  Uiso   1.00
H695   H     0.64138   0.84477   0.43335   0.00000  Uiso   1.00
H696   H     0.65029   0.75716   0.40699   0.00000  Uiso   1.00
H697   H     0.59785   0.75968   0.37767   0.00000  Uiso   1.00
H698   H     0.77824   0.87615   0.42861   0.00000  Uiso   1.00
H699   H     0.81973   0.67457   0.35441   0.00000  Uiso   1.00
H700   H     0.87220   0.67351   0.65547   0.00000  Uiso   1.00
H701   H     0.85075   0.61921   0.34994   0.00000  Uiso   1.00
H702   H     0.91083   0.65339   0.40144   0.00000  Uiso   1.00
H703   H     0.85849   0.65529   0.43331   0.00000  Uiso   1.00
H704   H     0.84975   0.74290   0.40695   0.00000  Uiso   1.00
H705   H     0.90220   0.74029   0.37766   0.00000  Uiso   1.00
H706   H     0.81977   0.82548   0.64560   0.00000  Uiso   1.00
H707   H     0.87220   0.82630   0.34462   0.00000  Uiso   1.00
H708   H     0.85094   0.88073   0.65024   0.00000  Uiso   1.00
H709   H     0.72352   0.62378   0.42777   0.00000  Uiso   1.00
H710   H     0.91096   0.84647   0.59872   0.00000  Uiso   1.00
H711   H     0.85866   0.84476   0.56679   0.00000  Uiso   1.00
H712   H     0.84969   0.75715   0.59300   0.00000  Uiso   1.00
H713   H     0.90212   0.75955   0.62233   0.00000  Uiso   1.00
H714   H     0.68037   0.67444   0.64538   0.00000  Uiso   1.00
H715   H     0.62799   0.67360   0.34453   0.00000  Uiso   1.00
H716   H     0.64921   0.61919   0.65006   0.00000  Uiso   1.00
H717   H     0.58910   0.65344   0.59869   0.00000  Uiso   1.00
H718   H     0.64136   0.65523   0.56665   0.00000  Uiso   1.00
H719   H     0.65027   0.74285   0.59302   0.00000  Uiso   1.00
H720   H     0.72176   0.87615   0.57139   0.00000  Uiso   1.00
H721   H     0.59784   0.74032   0.62234   0.00000  Uiso   1.00
H722   H     0.53006   0.77554   0.42513   0.00000  Uiso   1.00
H723   H     0.96995   0.72444   0.42512   0.00000  Uiso   1.00
H724   H     0.96993   0.77551   0.57489   0.00000  Uiso   1.00
H725   H     0.53005   0.72444   0.57488   0.00000  Uiso   1.00
H726   H     0.77603   0.53511   0.57387   0.00000  Uiso   1.00
N727   N     0.75000   0.62935   0.50000   0.00000  Uiso   1.00
N728   N     0.75000   0.87065   0.50000   0.00000  Uiso   1.00
O729   O     0.68573   0.79071   0.50000   0.00000  Uiso   1.00
O730   O     0.81427   0.70928   0.50000   0.00000  Uiso   1.00
O731   O     0.81427   0.79071   0.50000   0.00000  Uiso   1.00
O732   O     0.68573   0.70928   0.50000   0.00000  Uiso   1.00
O733   O     0.75000   0.79071   0.42946   0.00000  Uiso   1.00
O734   O     0.75000   0.70929   0.57054   0.00000  Uiso   1.00
O735   O     0.75000   0.79071   0.57054   0.00000  Uiso   1.00
O736   O     0.75000   0.70929   0.42946   0.00000  Uiso   1.00
C737   C     0.16518   0.25000   0.83334   0.00000  Uiso   1.00
C738   C     0.23469   0.44635   0.87418   0.00000  Uiso   1.00
C739   C     0.25000   0.25000   0.74018   0.00000  Uiso   1.00
C740   C     0.25000   0.25000   0.92648   0.00000  Uiso   1.00
C741   C     0.25000   0.02722   0.83333   0.00000  Uiso   1.00
C742   C     0.25000   0.47276   0.83333   0.00000  Uiso   1.00
C743   C     0.25000   0.25000   0.68852   0.00000  Uiso   1.00
C744   C     0.25000   0.25000   0.97815   0.00000  Uiso   1.00
C745   C     0.04776   0.26394   0.79107   0.00000  Uiso   1.00
C746   C     0.45225   0.23604   0.79107   0.00000  Uiso   1.00
C747   C     0.45223   0.26392   0.87561   0.00000  Uiso   1.00
C748   C     0.33482   0.25000   0.83332   0.00000  Uiso   1.00
C749   C     0.04776   0.23604   0.87560   0.00000  Uiso   1.00
C750   C     0.09396   0.26305   0.79014   0.00000  Uiso   1.00
C751   C     0.40604   0.23694   0.79013   0.00000  Uiso   1.00
C752   C     0.40603   0.26303   0.87653   0.00000  Uiso   1.00
C753   C     0.09396   0.23694   0.87653   0.00000  Uiso   1.00
C754   C     0.11713   0.25000   0.83334   0.00000  Uiso   1.00
C755   C     0.38287   0.24999   0.83333   0.00000  Uiso   1.00
C756   C     0.02441   0.24999   0.83334   0.00000  Uiso   1.00
C757   C     0.47559   0.24998   0.83334   0.00000  Uiso   1.00
C758   C     0.11729   0.27476   0.74217   0.00000  Uiso   1.00
C759   C     0.26450   0.10445   0.87369   0.00000  Uiso   1.00
C760   C     0.12234   0.32934   0.73541   0.00000  Uiso   1.00
C761   C     0.14644   0.34111   0.68750   0.00000  Uiso   1.00
C762   C     0.38272   0.22525   0.74215   0.00000  Uiso   1.00
C763   C     0.37761   0.17067   0.73541   0.00000  Uiso   1.00
C764   C     0.35357   0.15893   0.68744   0.00000  Uiso   1.00
C765   C     0.38270   0.27470   0.92452   0.00000  Uiso   1.00
C766   C     0.37771   0.32928   0.93136   0.00000  Uiso   1.00
C767   C     0.35365   0.34101   0.97932   0.00000  Uiso   1.00
C768   C     0.11729   0.22525   0.92451   0.00000  Uiso   1.00
C769   C     0.12234   0.17066   0.93128   0.00000  Uiso   1.00
C770   C     0.26549   0.39552   0.79343   0.00000  Uiso   1.00
C771   C     0.14649   0.15891   0.97918   0.00000  Uiso   1.00
C772   C     0.23550   0.10446   0.79298   0.00000  Uiso   1.00
C773   C     0.23451   0.39552   0.87324   0.00000  Uiso   1.00
C774   C     0.26429   0.05363   0.87462   0.00000  Uiso   1.00
C775   C     0.26531   0.44635   0.79249   0.00000  Uiso   1.00
C776   C     0.23571   0.05363   0.79204   0.00000  Uiso   1.00
Cu777  Cu    0.25000   0.29821   0.83333   0.00000  Uiso   1.00
Cu778  Cu    0.25000   0.20178   0.83333   0.00000  Uiso   1.00
H779   H     0.27648   0.12378   0.90556   0.00000  Uiso   1.00
H780   H     0.27786   0.46487   0.76028   0.00000  Uiso   1.00
H781   H     0.22397   0.03511   0.75947   0.00000  Uiso   1.00
H782   H     0.22214   0.46487   0.90638   0.00000  Uiso   1.00
H783   H     0.18030   0.32555   0.68790   0.00000  Uiso   1.00
H784   H     0.12790   0.32646   0.98883   0.00000  Uiso   1.00
H785   H     0.14919   0.38084   0.68331   0.00000  Uiso   1.00
H786   H     0.08910   0.34657   0.73471   0.00000  Uiso   1.00
H787   H     0.14138   0.34477   0.76668   0.00000  Uiso   1.00
H788   H     0.15029   0.25716   0.74032   0.00000  Uiso   1.00
H789   H     0.09785   0.25968   0.71100   0.00000  Uiso   1.00
H790   H     0.27824   0.37615   0.76194   0.00000  Uiso   1.00
H791   H     0.31973   0.17457   0.68774   0.00000  Uiso   1.00
H792   H     0.37220   0.17351   0.98880   0.00000  Uiso   1.00
H793   H     0.35075   0.11921   0.68328   0.00000  Uiso   1.00
H794   H     0.41083   0.15339   0.73477   0.00000  Uiso   1.00
H795   H     0.35849   0.15529   0.76665   0.00000  Uiso   1.00
H796   H     0.34975   0.24290   0.74028   0.00000  Uiso   1.00
H797   H     0.40220   0.24029   0.71099   0.00000  Uiso   1.00
H798   H     0.31977   0.32548   0.97893   0.00000  Uiso   1.00
H799   H     0.37220   0.32630   0.67795   0.00000  Uiso   1.00
H800   H     0.35094   0.38073   0.98357   0.00000  Uiso   1.00
H801   H     0.22352   0.12378   0.76111   0.00000  Uiso   1.00
H802   H     0.41096   0.34647   0.93205   0.00000  Uiso   1.00
H803   H     0.35866   0.34476   0.90012   0.00000  Uiso   1.00
H804   H     0.34969   0.25715   0.92633   0.00000  Uiso   1.00
H805   H     0.40212   0.25955   0.95566   0.00000  Uiso   1.00
H806   H     0.18037   0.17444   0.97871   0.00000  Uiso   1.00
H807   H     0.12799   0.17360   0.67787   0.00000  Uiso   1.00
H808   H     0.14921   0.11919   0.98339   0.00000  Uiso   1.00
H809   H     0.08910   0.15344   0.93203   0.00000  Uiso   1.00
H810   H     0.14136   0.15523   0.89998   0.00000  Uiso   1.00
H811   H     0.15027   0.24285   0.92636   0.00000  Uiso   1.00
H812   H     0.22176   0.37615   0.90472   0.00000  Uiso   1.00
H813   H     0.09784   0.24032   0.95568   0.00000  Uiso   1.00
H814   H     0.03006   0.27554   0.75846   0.00000  Uiso   1.00
H815   H     0.46995   0.22444   0.75846   0.00000  Uiso   1.00
H816   H     0.46993   0.27551   0.90822   0.00000  Uiso   1.00
H817   H     0.03005   0.22444   0.90821   0.00000  Uiso   1.00
H818   H     0.27603   0.03511   0.90720   0.00000  Uiso   1.00
N819   N     0.25000   0.12935   0.83333   0.00000  Uiso   1.00
N820   N     0.25000   0.37065   0.83333   0.00000  Uiso   1.00
O821   O     0.18573   0.29071   0.83334   0.00000  Uiso   1.00
O822   O     0.31427   0.20928   0.83333   0.00000  Uiso   1.00
O823   O     0.31427   0.29071   0.83333   0.00000  Uiso   1.00
O824   O     0.18573   0.20928   0.83334   0.00000  Uiso   1.00
O825   O     0.25000   0.29071   0.76280   0.00000  Uiso   1.00
O826   O     0.25000   0.20929   0.90387   0.00000  Uiso   1.00
O827   O     0.25000   0.29071   0.90387   0.00000  Uiso   1.00
O828   O     0.25000   0.20929   0.76280   0.00000  Uiso   1.00
C829   C     0.66518   0.25000   0.83334   0.00000  Uiso   1.00
C830   C     0.73469   0.44635   0.87418   0.00000  Uiso   1.00
C831   C     0.75000   0.25000   0.74018   0.00000  Uiso   1.00
C832   C     0.75000   0.25000   0.92648   0.00000  Uiso   1.00
C833   C     0.75000   0.02722   0.83333   0.00000  Uiso   1.00
C834   C     0.75000   0.47276   0.83333   0.00000  Uiso   1.00
C835   C     0.75000   0.25000   0.68852   0.00000  Uiso   1.00
C836   C     0.75000   0.25000   0.97815   0.00000  Uiso   1.00
C837   C     0.54776   0.26394   0.79107   0.00000  Uiso   1.00
C838   C     0.95225   0.23604   0.79107   0.00000  Uiso   1.00
C839   C     0.95223   0.26392   0.87561   0.00000  Uiso   1.00
C840   C     0.83482   0.25000   0.83332   0.00000  Uiso   1.00
C841   C     0.54776   0.23604   0.87560   0.00000  Uiso   1.00
C842   C     0.59396   0.26305   0.79014   0.00000  Uiso   1.00
C843   C     0.90604   0.23694   0.79013   0.00000  Uiso   1.00
C844   C     0.90603   0.26303   0.87653   0.00000  Uiso   1.00
C845   C     0.59396   0.23694   0.87653   0.00000  Uiso   1.00
C846   C     0.61713   0.25000   0.83334   0.00000  Uiso   1.00
C847   C     0.88287   0.24999   0.83333   0.00000  Uiso   1.00
C848   C     0.52441   0.24999   0.83334   0.00000  Uiso   1.00
C849   C     0.97559   0.24998   0.83334   0.00000  Uiso   1.00
C850   C     0.61729   0.27476   0.74217   0.00000  Uiso   1.00
C851   C     0.76450   0.10445   0.87369   0.00000  Uiso   1.00
C852   C     0.62234   0.32934   0.73541   0.00000  Uiso   1.00
C853   C     0.64644   0.34111   0.68750   0.00000  Uiso   1.00
C854   C     0.88272   0.22525   0.74215   0.00000  Uiso   1.00
C855   C     0.87761   0.17067   0.73541   0.00000  Uiso   1.00
C856   C     0.85357   0.15893   0.68744   0.00000  Uiso   1.00
C857   C     0.88270   0.27470   0.92452   0.00000  Uiso   1.00
C858   C     0.87771   0.32928   0.93136   0.00000  Uiso   1.00
C859   C     0.85365   0.34101   0.97932   0.00000  Uiso   1.00
C860   C     0.61729   0.22525   0.92451   0.00000  Uiso   1.00
C861   C     0.62234   0.17066   0.93128   0.00000  Uiso   1.00
C862   C     0.76549   0.39552   0.79343   0.00000  Uiso   1.00
C863   C     0.64649   0.15891   0.97918   0.00000  Uiso   1.00
C864   C     0.73550   0.10446   0.79298   0.00000  Uiso   1.00
C865   C     0.73451   0.39552   0.87324   0.00000  Uiso   1.00
C866   C     0.76429   0.05363   0.87462   0.00000  Uiso   1.00
C867   C     0.76531   0.44635   0.79249   0.00000  Uiso   1.00
C868   C     0.73571   0.05363   0.79204   0.00000  Uiso   1.00
Cu869  Cu    0.75000   0.29821   0.83333   0.00000  Uiso   1.00
Cu870  Cu    0.75000   0.20178   0.83333   0.00000  Uiso   1.00
H871   H     0.77648   0.12378   0.90556   0.00000  Uiso   1.00
H872   H     0.77786   0.46487   0.76028   0.00000  Uiso   1.00
H873   H     0.72397   0.03511   0.75947   0.00000  Uiso   1.00
H874   H     0.72214   0.46487   0.90638   0.00000  Uiso   1.00
H875   H     0.68030   0.32555   0.68790   0.00000  Uiso   1.00
H876   H     0.62790   0.32646   0.98883   0.00000  Uiso   1.00
H877   H     0.64919   0.38084   0.68331   0.00000  Uiso   1.00
H878   H     0.58910   0.34657   0.73471   0.00000  Uiso   1.00
H879   H     0.64138   0.34477   0.76668   0.00000  Uiso   1.00
H880   H     0.65029   0.25716   0.74032   0.00000  Uiso   1.00
H881   H     0.59785   0.25968   0.71100   0.00000  Uiso   1.00
H882   H     0.77824   0.37615   0.76194   0.00000  Uiso   1.00
H883   H     0.81973   0.17457   0.68774   0.00000  Uiso   1.00
H884   H     0.87220   0.17351   0.98880   0.00000  Uiso   1.00
H885   H     0.85075   0.11921   0.68328   0.00000  Uiso   1.00
H886   H     0.91083   0.15339   0.73477   0.00000  Uiso   1.00
H887   H     0.85849   0.15529   0.76665   0.00000  Uiso   1.00
H888   H     0.84975   0.24290   0.74028   0.00000  Uiso   1.00
H889   H     0.90220   0.24029   0.71099   0.00000  Uiso   1.00
H890   H     0.81977   0.32548   0.97893   0.00000  Uiso   1.00
H891   H     0.87220   0.32630   0.67795   0.00000  Uiso   1.00
H892   H     0.85094   0.38073   0.98357   0.00000  Uiso   1.00
H893   H     0.72352   0.12378   0.76111   0.00000  Uiso   1.00
H894   H     0.91096   0.34647   0.93205   0.00000  Uiso   1.00
H895   H     0.85866   0.34476   0.90012   0.00000  Uiso   1.00
H896   H     0.84969   0.25715   0.92633   0.00000  Uiso   1.00
H897   H     0.90212   0.25955   0.95566   0.00000  Uiso   1.00
H898   H     0.68037   0.17444   0.97871   0.00000  Uiso   1.00
H899   H     0.62799   0.17360   0.67787   0.00000  Uiso   1.00
H900   H     0.64921   0.11919   0.98339   0.00000  Uiso   1.00
H901   H     0.58910   0.15344   0.93203   0.00000  Uiso   1.00
H902   H     0.64136   0.15523   0.89998   0.00000  Uiso   1.00
H903   H     0.65027   0.24285   0.92636   0.00000  Uiso   1.00
H904   H     0.72176   0.37615   0.90472   0.00000  Uiso   1.00
H905   H     0.59784   0.24032   0.95568   0.00000  Uiso   1.00
H906   H     0.53006   0.27554   0.75846   0.00000  Uiso   1.00
H907   H     0.96995   0.22444   0.75846   0.00000  Uiso   1.00
H908   H     0.96993   0.27551   0.90822   0.00000  Uiso   1.00
H909   H     0.53005   0.22444   0.90821   0.00000  Uiso   1.00
H910   H     0.77603   0.03511   0.90720   0.00000  Uiso   1.00
N911   N     0.75000   0.12935   0.83333   0.00000  Uiso   1.00
N912   N     0.75000   0.37065   0.83333   0.00000  Uiso   1.00
O913   O     0.68573   0.29071   0.83334   0.00000  Uiso   1.00
O914   O     0.81427   0.20928   0.83333   0.00000  Uiso   1.00
O915   O     0.81427   0.29071   0.83333   0.00000  Uiso   1.00
O916   O     0.68573   0.20928   0.83334   0.00000  Uiso   1.00
O917   O     0.75000   0.29071   0.76280   0.00000  Uiso   1.00
O918   O     0.75000   0.20929   0.90387   0.00000  Uiso   1.00
O919   O     0.75000   0.29071   0.90387   0.00000  Uiso   1.00
O920   O     0.75000   0.20929   0.76280   0.00000  Uiso   1.00
C921   C     0.16518   0.75000   0.83334   0.00000  Uiso   1.00
C922   C     0.23469   0.94635   0.87418   0.00000  Uiso   1.00
C923   C     0.25000   0.75000   0.74018   0.00000  Uiso   1.00
C924   C     0.25000   0.75000   0.92648   0.00000  Uiso   1.00
C925   C     0.25000   0.52722   0.83333   0.00000  Uiso   1.00
C926   C     0.25000   0.97276   0.83333   0.00000  Uiso   1.00
C927   C     0.25000   0.75000   0.68852   0.00000  Uiso   1.00
C928   C     0.25000   0.75000   0.97815   0.00000  Uiso   1.00
C929   C     0.04776   0.76394   0.79107   0.00000  Uiso   1.00
C930   C     0.45225   0.73604   0.79107   0.00000  Uiso   1.00
C931   C     0.45223   0.76392   0.87561   0.00000  Uiso   1.00
C932   C     0.33482   0.75000   0.83332   0.00000  Uiso   1.00
C933   C     0.04776   0.73604   0.87560   0.00000  Uiso   1.00
C934   C     0.09396   0.76305   0.79014   0.00000  Uiso   1.00
C935   C     0.40604   0.73694   0.79013   0.00000  Uiso   1.00
C936   C     0.40603   0.76303   0.87653   0.00000  Uiso   1.00
C937   C     0.09396   0.73694   0.87653   0.00000  Uiso   1.00
C938   C     0.11713   0.75000   0.83334   0.00000  Uiso   1.00
C939   C     0.38287   0.74999   0.83333   0.00000  Uiso   1.00
C940   C     0.02441   0.74999   0.83334   0.00000  Uiso   1.00
C941   C     0.47559   0.74998   0.83334   0.00000  Uiso   1.00
C942   C     0.11729   0.77476   0.74217   0.00000  Uiso   1.00
C943   C     0.26450   0.60445   0.87369   0.00000  Uiso   1.00
C944   C     0.12234   0.82934   0.73541   0.00000  Uiso   1.00
C945   C     0.14644   0.84111   0.68750   0.00000  Uiso   1.00
C946   C     0.38272   0.72525   0.74215   0.00000  Uiso   1.00
C947   C     0.37761   0.67067   0.73541   0.00000  Uiso   1.00
C948   C     0.35357   0.65893   0.68744   0.00000  Uiso   1.00
C949   C     0.38270   0.77470   0.92452   0.00000  Uiso   1.00
C950   C     0.37771   0.82928   0.93136   0.00000  Uiso   1.00
C951   C     0.35365   0.84101   0.97932   0.00000  Uiso   1.00
C952   C     0.11729   0.72525   0.92451   0.00000  Uiso   1.00
C953   C     0.12234   0.67066   0.93128   0.00000  Uiso   1.00
C954   C     0.26549   0.89552   0.79343   0.00000  Uiso   1.00
C955   C     0.14649   0.65891   0.97918   0.00000  Uiso   1.00
C956   C     0.23550   0.60446   0.79298   0.00000  Uiso   1.00
C957   C     0.23451   0.89552   0.87324   0.00000  Uiso   1.00
C958   C     0.26429   0.55363   0.87462   0.00000  Uiso   1.00
C959   C     0.26531   0.94635   0.79249   0.00000  Uiso   1.00
C960   C     0.23571   0.55363   0.79204   0.00000  Uiso   1.00
Cu961  Cu    0.25000   0.79821   0.83333   0.00000  Uiso   1.00
Cu962  Cu    0.25000   0.70178   0.83333   0.00000  Uiso   1.00
H963   H     0.27648   0.62378   0.90556   0.00000  Uiso   1.00
H964   H     0.27786   0.96487   0.76028   0.00000  Uiso   1.00
H965   H     0.22397   0.53511   0.75947   0.00000  Uiso   1.00
H966   H     0.22214   0.96487   0.90638   0.00000  Uiso   1.00
H967   H     0.18030   0.82555   0.68790   0.00000  Uiso   1.00
H968   H     0.12790   0.82646   0.98883   0.00000  Uiso   1.00
H969   H     0.14919   0.88084   0.68331   0.00000  Uiso   1.00
H970   H     0.08910   0.84657   0.73471   0.00000  Uiso   1.00
H971   H     0.14138   0.84477   0.76668   0.00000  Uiso   1.00
H972   H     0.15029   0.75716   0.74032   0.00000  Uiso   1.00
H973   H     0.09785   0.75968   0.71100   0.00000  Uiso   1.00
H974   H     0.27824   0.87615   0.76194   0.00000  Uiso   1.00
H975   H     0.31973   0.67457   0.68774   0.00000  Uiso   1.00
H976   H     0.37220   0.67351   0.98880   0.00000  Uiso   1.00
H977   H     0.35075   0.61921   0.68328   0.00000  Uiso   1.00
H978   H     0.41083   0.65339   0.73477   0.00000  Uiso   1.00
H979   H     0.35849   0.65529   0.76665   0.00000  Uiso   1.00
H980   H     0.34975   0.74290   0.74028   0.00000  Uiso   1.00
H981   H     0.40220   0.74029   0.71099   0.00000  Uiso   1.00
H982   H     0.31977   0.82548   0.97893   0.00000  Uiso   1.00
H983   H     0.37220   0.82630   0.67795   0.00000  Uiso   1.00
H984   H     0.35094   0.88073   0.98357   0.00000  Uiso   1.00
H985   H     0.22352   0.62378   0.76111   0.00000  Uiso   1.00
H986   H     0.41096   0.84647   0.93205   0.00000  Uiso   1.00
H987   H     0.35866   0.84476   0.90012   0.00000  Uiso   1.00
H988   H     0.34969   0.75715   0.92633   0.00000  Uiso   1.00
H989   H     0.40212   0.75955   0.95566   0.00000  Uiso   1.00
H990   H     0.18037   0.67444   0.97871   0.00000  Uiso   1.00
H991   H     0.12799   0.67360   0.67787   0.00000  Uiso   1.00
H992   H     0.14921   0.61919   0.98339   0.00000  Uiso   1.00
H993   H     0.08910   0.65344   0.93203   0.00000  Uiso   1.00
H994   H     0.14136   0.65523   0.89998   0.00000  Uiso   1.00
H995   H     0.15027   0.74285   0.92636   0.00000  Uiso   1.00
H996   H     0.22176   0.87615   0.90472   0.00000  Uiso   1.00
H997   H     0.09784   0.74032   0.95568   0.00000  Uiso   1.00
H998   H     0.03006   0.77554   0.75846   0.00000  Uiso   1.00
H999   H     0.46995   0.72444   0.75846   0.00000  Uiso   1.00
H1000  H     0.46993   0.77551   0.90822   0.00000  Uiso   1.00
H1001  H     0.03005   0.72444   0.90821   0.00000  Uiso   1.00
H1002  H     0.27603   0.53511   0.90720   0.00000  Uiso   1.00
N1003  N     0.25000   0.62935   0.83333   0.00000  Uiso   1.00
N1004  N     0.25000   0.87065   0.83333   0.00000  Uiso   1.00
O1005  O     0.18573   0.79071   0.83334   0.00000  Uiso   1.00
O1006  O     0.31427   0.70928   0.83333   0.00000  Uiso   1.00
O1007  O     0.31427   0.79071   0.83333   0.00000  Uiso   1.00
O1008  O     0.18573   0.70928   0.83334   0.00000  Uiso   1.00
O1009  O     0.25000   0.79071   0.76280   0.00000  Uiso   1.00
O1010  O     0.25000   0.70929   0.90387   0.00000  Uiso   1.00
O1011  O     0.25000   0.79071   0.90387   0.00000  Uiso   1.00
O1012  O     0.25000   0.70929   0.76280   0.00000  Uiso   1.00
C1013  C     0.66518   0.75000   0.83334   0.00000  Uiso   1.00
C1014  C     0.73469   0.94635   0.87418   0.00000  Uiso   1.00
C1015  C     0.75000   0.75000   0.74018   0.00000  Uiso   1.00
C1016  C     0.75000   0.75000   0.92648   0.00000  Uiso   1.00
C1017  C     0.75000   0.52722   0.83333   0.00000  Uiso   1.00
C1018  C     0.75000   0.97276   0.83333   0.00000  Uiso   1.00
C1019  C     0.75000   0.75000   0.68852   0.00000  Uiso   1.00
C1020  C     0.75000   0.75000   0.97815   0.00000  Uiso   1.00
C1021  C     0.54776   0.76394   0.79107   0.00000  Uiso   1.00
C1022  C     0.95225   0.73604   0.79107   0.00000  Uiso   1.00
C1023  C     0.95223   0.76392   0.87561   0.00000  Uiso   1.00
C1024  C     0.83482   0.75000   0.83332   0.00000  Uiso   1.00
C1025  C     0.54776   0.73604   0.87560   0.00000  Uiso   1.00
C1026  C     0.59396   0.76305   0.79014   0.00000  Uiso   1.00
C1027  C     0.90604   0.73694   0.79013   0.00000  Uiso   1.00
C1028  C     0.90603   0.76303   0.87653   0.00000  Uiso   1.00
C1029  C     0.59396   0.73694   0.87653   0.00000  Uiso   1.00
C1030  C     0.61713   0.75000   0.83334   0.00000  Uiso   1.00
C1031  C     0.88287   0.74999   0.83333   0.00000  Uiso   1.00
C1032  C     0.52441   0.74999   0.83334   0.00000  Uiso   1.00
C1033  C     0.97559   0.74998   0.83334   0.00000  Uiso   1.00
C1034  C     0.61729   0.77476   0.74217   0.00000  Uiso   1.00
C1035  C     0.76450   0.60445   0.87369   0.00000  Uiso   1.00
C1036  C     0.62234   0.82934   0.73541   0.00000  Uiso   1.00
C1037  C     0.64644   0.84111   0.68750   0.00000  Uiso   1.00
C1038  C     0.88272   0.72525   0.74215   0.00000  Uiso   1.00
C1039  C     0.87761   0.67067   0.73541   0.00000  Uiso   1.00
C1040  C     0.85357   0.65893   0.68744   0.00000  Uiso   1.00
C1041  C     0.88270   0.77470   0.92452   0.00000  Uiso   1.00
C1042  C     0.87771   0.82928   0.93136   0.00000  Uiso   1.00
C1043  C     0.85365   0.84101   0.97932   0.00000  Uiso   1.00
C1044  C     0.61729   0.72525   0.92451   0.00000  Uiso   1.00
C1045  C     0.62234   0.67066   0.93128   0.00000  Uiso   1.00
C1046  C     0.76549   0.89552   0.79343   0.00000  Uiso   1.00
C1047  C     0.64649   0.65891   0.97918   0.00000  Uiso   1.00
C1048  C     0.73550   0.60446   0.79298   0.00000  Uiso   1.00
C1049  C     0.73451   0.89552   0.87324   0.00000  Uiso   1.00
C1050  C     0.76429   0.55363   0.87462   0.00000  Uiso   1.00
C1051  C     0.76531   0.94635   0.79249   0.00000  Uiso   1.00
C1052  C     0.73571   0.55363   0.79204   0.00000  Uiso   1.00
Cu1053 Cu    0.75000   0.79821   0.83333   0.00000  Uiso   1.00
Cu1054 Cu    0.75000   0.70178   0.83333   0.00000  Uiso   1.00
H1055  H     0.77648   0.62378   0.90556   0.00000  Uiso   1.00
H1056  H     0.77786   0.96487   0.76028   0.00000  Uiso   1.00
H1057  H     0.72397   0.53511   0.75947   0.00000  Uiso   1.00
H1058  H     0.72214   0.96487   0.90638   0.00000  Uiso   1.00
H1059  H     0.68030   0.82555   0.68790   0.00000  Uiso   1.00
H1060  H     0.62790   0.82646   0.98883   0.00000  Uiso   1.00
H1061  H     0.64919   0.88084   0.68331   0.00000  Uiso   1.00
H1062  H     0.58910   0.84657   0.73471   0.00000  Uiso   1.00
H1063  H     0.64138   0.84477   0.76668   0.00000  Uiso   1.00
H1064  H     0.65029   0.75716   0.74032   0.00000  Uiso   1.00
H1065  H     0.59785   0.75968   0.71100   0.00000  Uiso   1.00
H1066  H     0.77824   0.87615   0.76194   0.00000  Uiso   1.00
H1067  H     0.81973   0.67457   0.68774   0.00000  Uiso   1.00
H1068  H     0.87220   0.67351   0.98880   0.00000  Uiso   1.00
H1069  H     0.85075   0.61921   0.68328   0.00000  Uiso   1.00
H1070  H     0.91083   0.65339   0.73477   0.00000  Uiso   1.00
H1071  H     0.85849   0.65529   0.76665   0.00000  Uiso   1.00
H1072  H     0.84975   0.74290   0.74028   0.00000  Uiso   1.00
H1073  H     0.90220   0.74029   0.71099   0.00000  Uiso   1.00
H1074  H     0.81977   0.82548   0.97893   0.00000  Uiso   1.00
H1075  H     0.87220   0.82630   0.67795   0.00000  Uiso   1.00
H1076  H     0.85094   0.88073   0.98357   0.00000  Uiso   1.00
H1077  H     0.72352   0.62378   0.76111   0.00000  Uiso   1.00
H1078  H     0.91096   0.84647   0.93205   0.00000  Uiso   1.00
H1079  H     0.85866   0.84476   0.90012   0.00000  Uiso   1.00
H1080  H     0.84969   0.75715   0.92633   0.00000  Uiso   1.00
H1081  H     0.90212   0.75955   0.95566   0.00000  Uiso   1.00
H1082  H     0.68037   0.67444   0.97871   0.00000  Uiso   1.00
H1083  H     0.62799   0.67360   0.67787   0.00000  Uiso   1.00
H1084  H     0.64921   0.61919   0.98339   0.00000  Uiso   1.00
H1085  H     0.58910   0.65344   0.93203   0.00000  Uiso   1.00
H1086  H     0.64136   0.65523   0.89998   0.00000  Uiso   1.00
H1087  H     0.65027   0.74285   0.92636   0.00000  Uiso   1.00
H1088  H     0.72176   0.87615   0.90472   0.00000  Uiso   1.00
H1089  H     0.59784   0.74032   0.95568   0.00000  Uiso   1.00
H1090  H     0.53006   0.77554   0.75846   0.00000  Uiso   1.00
H1091  H     0.96995   0.72444   0.75846   0.00000  Uiso   1.00
H1092  H     0.96993   0.77551   0.90822   0.00000  Uiso   1.00
H1093  H     0.53005   0.72444   0.90821   0.00000  Uiso   1.00
H1094  H     0.77603   0.53511   0.90720   0.00000  Uiso   1.00
N1095  N     0.75000   0.62935   0.83333   0.00000  Uiso   1.00
N1096  N     0.75000   0.87065   0.83333   0.00000  Uiso   1.00
O1097  O     0.68573   0.79071   0.83334   0.00000  Uiso   1.00
O1098  O     0.81427   0.70928   0.83333   0.00000  Uiso   1.00
O1099  O     0.81427   0.79071   0.83333   0.00000  Uiso   1.00
O1100  O     0.68573   0.70928   0.83334   0.00000  Uiso   1.00
O1101  O     0.75000   0.79071   0.76280   0.00000  Uiso   1.00
O1102  O     0.75000   0.70929   0.90387   0.00000  Uiso   1.00
O1103  O     0.75000   0.79071   0.90387   0.00000  Uiso   1.00
O1104  O     0.75000   0.70929   0.76280   0.00000  Uiso   1.00
loop_
_geom_bond_atom_site_label_1
_geom_bond_atom_site_label_2
_geom_bond_distance
_geom_bond_site_symmetry_2
_ccdc_geom_bond_type
C1     O88     1.288   .     A
C1     O85     1.288   .     A
C1     C18     1.451   .     S
C2     H46     1.083   .     S
C2     C6      1.407   .     A
C2     C37     1.410   .     A
C3     C7      1.403   .     S
C3     O92     1.285   .     A
C3     O89     1.285   .     A
C4     C8      1.403   .     S
C4     O90     1.285   .     A
C4     O91     1.285   .     A
C5     C38     1.407   .     A
C5     C40     1.407   .     A
C5     C190    1.510   1_545 S
C6     C39     1.407   .     A
C6     C189    1.510   .     S
C7     C744    1.187   1_554 S
C8     C375    1.187   .     S
C9     C14     1.396   .     A
C9     C20     1.402   .     A
C9     H78     1.083   .     S
C10    C15     1.396   .     A
C10    C21     1.402   .     A
C10    H79     1.083   .     S
C11    C21     1.402   .     A
C11    C16     1.396   .     A
C11    H80     1.083   .     S
C12    O87     1.288   .     A
C12    O86     1.288   .     A
C12    C19     1.451   .     S
C13    H81     1.083   .     S
C13    C20     1.402   .     A
C13    C17     1.396   .     A
C14    C18     1.413   .     A
C14    C22     1.517   .     S
C15    C19     1.413   .     A
C15    C26     1.517   .     S
C16    C29     1.517   .     S
C16    C19     1.413   .     A
C17    C18     1.413   .     A
C17    C32     1.517   .     S
C20    C113    1.474   1_455 S
C21    C112    1.474   .     S
C22    H53     1.112   .     S
C22    C24     1.532   .     S
C22    H52     1.110   .     S
C23    N83     1.367   .     A
C23    H43     1.081   .     S
C23    C38     1.409   .     A
C24    H50     1.112   .     S
C24    C25     1.526   .     S
C24    H51     1.111   .     S
C25    H47     1.110   .     S
C25    H49     1.110   .     S
C25    H784    1.111   1_554 S
C26    C27     1.532   .     S
C26    H61     1.112   .     S
C26    H60     1.110   .     S
C27    H58     1.112   .     S
C27    H59     1.111   .     S
C27    C28     1.527   .     S
C28    H57     1.110   .     S
C28    H55     1.110   .     S
C28    H792    1.111   1_554 S
C29    H69     1.112   .     S
C29    C30     1.532   .     S
C29    H68     1.110   .     S
C30    H67     1.111   .     S
C30    H66     1.112   .     S
C30    C31     1.527   .     S
C31    H62     1.110   .     S
C31    H64     1.110   .     S
C31    H431    1.111   .     S
C32    H75     1.110   .     S
C32    H77     1.112   .     S
C32    C33     1.532   .     S
C33    H73     1.112   .     S
C33    C35     1.527   .     S
C33    H74     1.111   .     S
C34    N84     1.367   .     A
C34    C39     1.410   .     A
C34    H54     1.081   .     S
C35    H70     1.110   .     S
C35    H72     1.110   .     S
C35    H439    1.111   .     S
C36    N83     1.367   .     A
C36    C40     1.409   .     A
C36    H65     1.081   .     S
C37    N84     1.367   .     A
C37    H76     1.081   .     S
C38    H82     1.083   .     S
C39    H44     1.083   .     S
C40    H45     1.083   .     S
Cu41   O89     1.927   .     S
Cu41   Cu42    2.674   .     S
Cu41   O87     1.952   .     S
Cu41   N84     2.009   .     S
Cu41   O91     1.927   .     S
Cu41   O85     1.952   .     S
Cu42   O86     1.952   .     S
Cu42   O90     1.927   .     S
Cu42   O88     1.952   .     S
Cu42   N83     2.009   .     S
Cu42   O92     1.927   .     S
H48    C393    1.111   .     S
H56    C396    1.111   .     S
H63    C767    1.111   1_554 S
H71    C771    1.111   1_554 S
C93    O180    1.288   .     A
C93    O177    1.288   .     A
C93    C110    1.451   .     S
C94    H138    1.083   .     S
C94    C98     1.407   .     A
C94    C129    1.410   .     A
C95    C99     1.403   .     S
C95    O184    1.285   .     A
C95    O181    1.285   .     A
C96    C100    1.403   .     S
C96    O182    1.285   .     A
C96    O183    1.285   .     A
C97    C130    1.407   .     A
C97    C132    1.407   .     A
C97    C282    1.510   1_545 S
C98    C131    1.407   .     A
C98    C281    1.510   .     S
C99    C836    1.187   1_554 S
C100   C467    1.187   .     S
C101   C106    1.396   .     A
C101   C112    1.402   .     A
C101   H170    1.083   .     S
C102   C107    1.396   .     A
C102   C113    1.402   .     A
C102   H171    1.083   .     S
C103   C113    1.402   .     A
C103   C108    1.396   .     A
C103   H172    1.083   .     S
C104   O179    1.288   .     A
C104   O178    1.288   .     A
C104   C111    1.451   .     S
C105   H173    1.083   .     S
C105   C112    1.402   .     A
C105   C109    1.396   .     A
C106   C110    1.413   .     A
C106   C114    1.517   .     S
C107   C111    1.413   .     A
C107   C118    1.517   .     S
C108   C121    1.517   .     S
C108   C111    1.413   .     A
C109   C110    1.413   .     A
C109   C124    1.517   .     S
C113   C20     1.474   1_655 S
C114   H145    1.112   .     S
C114   C116    1.532   .     S
C114   H144    1.110   .     S
C115   N175    1.367   .     A
C115   H135    1.081   .     S
C115   C130    1.409   .     A
C116   H142    1.112   .     S
C116   C117    1.526   .     S
C116   H143    1.111   .     S
C117   H139    1.110   .     S
C117   H141    1.110   .     S
C117   H876    1.111   1_554 S
C118   C119    1.532   .     S
C118   H153    1.112   .     S
C118   H152    1.110   .     S
C119   H150    1.112   .     S
C119   H151    1.111   .     S
C119   C120    1.527   .     S
C120   H149    1.110   .     S
C120   H147    1.110   .     S
C120   H884    1.111   1_554 S
C121   H161    1.112   .     S
C121   C122    1.532   .     S
C121   H160    1.110   .     S
C122   H159    1.111   .     S
C122   H158    1.112   .     S
C122   C123    1.527   .     S
C123   H154    1.110   .     S
C123   H156    1.110   .     S
C123   H523    1.111   .     S
C124   H167    1.110   .     S
C124   H169    1.112   .     S
C124   C125    1.532   .     S
C125   H165    1.112   .     S
C125   C127    1.527   .     S
C125   H166    1.111   .     S
C126   N176    1.367   .     A
C126   C131    1.410   .     A
C126   H146    1.081   .     S
C127   H162    1.110   .     S
C127   H164    1.110   .     S
C127   H531    1.111   .     S
C128   N175    1.367   .     A
C128   C132    1.409   .     A
C128   H157    1.081   .     S
C129   N176    1.367   .     A
C129   H168    1.081   .     S
C130   H174    1.083   .     S
C131   H136    1.083   .     S
C132   H137    1.083   .     S
Cu133  O181    1.927   .     S
Cu133  Cu134   2.674   .     S
Cu133  O179    1.952   .     S
Cu133  N176    2.009   .     S
Cu133  O183    1.927   .     S
Cu133  O177    1.952   .     S
Cu134  O178    1.952   .     S
Cu134  O182    1.927   .     S
Cu134  O180    1.952   .     S
Cu134  N175    2.009   .     S
Cu134  O184    1.927   .     S
H140   C485    1.111   .     S
H148   C488    1.111   .     S
H155   C859    1.111   1_554 S
H163   C863    1.111   1_554 S
C185   O272    1.288   .     A
C185   O269    1.288   .     A
C185   C202    1.451   .     S
C186   H230    1.083   .     S
C186   C190    1.407   .     A
C186   C221    1.410   .     A
C187   C191    1.403   .     S
C187   O276    1.285   .     A
C187   O273    1.285   .     A
C188   C192    1.403   .     S
C188   O274    1.285   .     A
C188   O275    1.285   .     A
C189   C222    1.407   .     A
C189   C224    1.407   .     A
C190   C223    1.407   .     A
C190   C5      1.510   1_565 S
C191   C928    1.187   1_554 S
C192   C559    1.187   .     S
C193   C198    1.396   .     A
C193   C204    1.402   .     A
C193   H262    1.083   .     S
C194   C199    1.396   .     A
C194   C205    1.402   .     A
C194   H263    1.083   .     S
C195   C205    1.402   .     A
C195   C200    1.396   .     A
C195   H264    1.083   .     S
C196   O271    1.288   .     A
C196   O270    1.288   .     A
C196   C203    1.451   .     S
C197   H265    1.083   .     S
C197   C204    1.402   .     A
C197   C201    1.396   .     A
C198   C202    1.413   .     A
C198   C206    1.517   .     S
C199   C203    1.413   .     A
C199   C210    1.517   .     S
C200   C213    1.517   .     S
C200   C203    1.413   .     A
C201   C202    1.413   .     A
C201   C216    1.517   .     S
C204   C297    1.474   1_455 S
C205   C296    1.474   .     S
C206   H237    1.112   .     S
C206   C208    1.532   .     S
C206   H236    1.110   .     S
C207   N267    1.367   .     A
C207   H227    1.081   .     S
C207   C222    1.409   .     A
C208   H234    1.112   .     S
C208   C209    1.526   .     S
C208   H235    1.111   .     S
C209   H231    1.110   .     S
C209   H233    1.110   .     S
C209   H968    1.111   1_554 S
C210   C211    1.532   .     S
C210   H245    1.112   .     S
C210   H244    1.110   .     S
C211   H242    1.112   .     S
C211   H243    1.111   .     S
C211   C212    1.527   .     S
C212   H241    1.110   .     S
C212   H239    1.110   .     S
C212   H976    1.111   1_554 S
C213   H253    1.112   .     S
C213   C214    1.532   .     S
C213   H252    1.110   .     S
C214   H251    1.111   .     S
C214   H250    1.112   .     S
C214   C215    1.527   .     S
C215   H246    1.110   .     S
C215   H248    1.110   .     S
C215   H615    1.111   .     S
C216   H259    1.110   .     S
C216   H261    1.112   .     S
C216   C217    1.532   .     S
C217   H257    1.112   .     S
C217   C219    1.527   .     S
C217   H258    1.111   .     S
C218   N268    1.367   .     A
C218   C223    1.410   .     A
C218   H238    1.081   .     S
C219   H254    1.110   .     S
C219   H256    1.110   .     S
C219   H623    1.111   .     S
C220   N267    1.367   .     A
C220   C224    1.409   .     A
C220   H249    1.081   .     S
C221   N268    1.367   .     A
C221   H260    1.081   .     S
C222   H266    1.083   .     S
C223   H228    1.083   .     S
C224   H229    1.083   .     S
Cu225  O273    1.927   .     S
Cu225  Cu226   2.674   .     S
Cu225  O271    1.952   .     S
Cu225  N268    2.009   .     S
Cu225  O275    1.927   .     S
Cu225  O269    1.952   .     S
Cu226  O270    1.952   .     S
Cu226  O274    1.927   .     S
Cu226  O272    1.952   .     S
Cu226  N267    2.009   .     S
Cu226  O276    1.927   .     S
H232   C577    1.111   .     S
H240   C580    1.111   .     S
H247   C951    1.111   1_554 S
H255   C955    1.111   1_554 S
C277   O364    1.288   .     A
C277   O361    1.288   .     A
C277   C294    1.451   .     S
C278   H322    1.083   .     S
C278   C282    1.407   .     A
C278   C313    1.410   .     A
C279   C283    1.403   .     S
C279   O368    1.285   .     A
C279   O365    1.285   .     A
C280   C284    1.403   .     S
C280   O366    1.285   .     A
C280   O367    1.285   .     A
C281   C314    1.407   .     A
C281   C316    1.407   .     A
C282   C315    1.407   .     A
C282   C97     1.510   1_565 S
C283   C1020   1.187   1_554 S
C284   C651    1.187   .     S
C285   C290    1.396   .     A
C285   C296    1.402   .     A
C285   H354    1.083   .     S
C286   C291    1.396   .     A
C286   C297    1.402   .     A
C286   H355    1.083   .     S
C287   C297    1.402   .     A
C287   C292    1.396   .     A
C287   H356    1.083   .     S
C288   O363    1.288   .     A
C288   O362    1.288   .     A
C288   C295    1.451   .     S
C289   H357    1.083   .     S
C289   C296    1.402   .     A
C289   C293    1.396   .     A
C290   C294    1.413   .     A
C290   C298    1.517   .     S
C291   C295    1.413   .     A
C291   C302    1.517   .     S
C292   C305    1.517   .     S
C292   C295    1.413   .     A
C293   C294    1.413   .     A
C293   C308    1.517   .     S
C297   C204    1.474   1_655 S
C298   H329    1.112   .     S
C298   C300    1.532   .     S
C298   H328    1.110   .     S
C299   N359    1.367   .     A
C299   H319    1.081   .     S
C299   C314    1.409   .     A
C300   H326    1.112   .     S
C300   C301    1.526   .     S
C300   H327    1.111   .     S
C301   H323    1.110   .     S
C301   H325    1.110   .     S
C301   H1060   1.111   1_554 S
C302   C303    1.532   .     S
C302   H337    1.112   .     S
C302   H336    1.110   .     S
C303   H334    1.112   .     S
C303   H335    1.111   .     S
C303   C304    1.527   .     S
C304   H333    1.110   .     S
C304   H331    1.110   .     S
C304   H1068   1.111   1_554 S
C305   H345    1.112   .     S
C305   C306    1.532   .     S
C305   H344    1.110   .     S
C306   H343    1.111   .     S
C306   H342    1.112   .     S
C306   C307    1.527   .     S
C307   H338    1.110   .     S
C307   H340    1.110   .     S
C307   H707    1.111   .     S
C308   H351    1.110   .     S
C308   H353    1.112   .     S
C308   C309    1.532   .     S
C309   H349    1.112   .     S
C309   C311    1.527   .     S
C309   H350    1.111   .     S
C310   N360    1.367   .     A
C310   C315    1.410   .     A
C310   H330    1.081   .     S
C311   H346    1.110   .     S
C311   H348    1.110   .     S
C311   H715    1.111   .     S
C312   N359    1.367   .     A
C312   C316    1.409   .     A
C312   H341    1.081   .     S
C313   N360    1.367   .     A
C313   H352    1.081   .     S
C314   H358    1.083   .     S
C315   H320    1.083   .     S
C316   H321    1.083   .     S
Cu317  O365    1.927   .     S
Cu317  Cu318   2.674   .     S
Cu317  O363    1.952   .     S
Cu317  N360    2.009   .     S
Cu317  O367    1.927   .     S
Cu317  O361    1.952   .     S
Cu318  O362    1.952   .     S
Cu318  O366    1.927   .     S
Cu318  O364    1.952   .     S
Cu318  N359    2.009   .     S
Cu318  O368    1.927   .     S
H324   C669    1.111   .     S
H332   C672    1.111   .     S
H339   C1043   1.111   1_554 S
H347   C1047   1.111   1_554 S
C369   O456    1.288   .     A
C369   O453    1.288   .     A
C369   C386    1.451   .     S
C370   H414    1.083   .     S
C370   C374    1.407   .     A
C370   C405    1.410   .     A
C371   C375    1.403   .     S
C371   O460    1.285   .     A
C371   O457    1.285   .     A
C372   C376    1.403   .     S
C372   O458    1.285   .     A
C372   O459    1.285   .     A
C373   C406    1.407   .     A
C373   C408    1.407   .     A
C373   C558    1.510   1_545 S
C374   C407    1.407   .     A
C374   C557    1.510   .     S
C376   C743    1.187   .     S
C377   C382    1.396   .     A
C377   C388    1.402   .     A
C377   H446    1.083   .     S
C378   C383    1.396   .     A
C378   C389    1.402   .     A
C378   H447    1.083   .     S
C379   C389    1.402   .     A
C379   C384    1.396   .     A
C379   H448    1.083   .     S
C380   O455    1.288   .     A
C380   O454    1.288   .     A
C380   C387    1.451   .     S
C381   H449    1.083   .     S
C381   C388    1.402   .     A
C381   C385    1.396   .     A
C382   C386    1.413   .     A
C382   C390    1.517   .     S
C383   C387    1.413   .     A
C383   C394    1.517   .     S
C384   C397    1.517   .     S
C384   C387    1.413   .     A
C385   C386    1.413   .     A
C385   C400    1.517   .     S
C388   C481    1.474   1_455 S
C389   C480    1.474   .     S
C390   H421    1.112   .     S
C390   C392    1.532   .     S
C390   H420    1.110   .     S
C391   N451    1.367   .     A
C391   H411    1.081   .     S
C391   C406    1.409   .     A
C392   H418    1.112   .     S
C392   C393    1.526   .     S
C392   H419    1.111   .     S
C393   H415    1.110   .     S
C393   H417    1.110   .     S
C394   C395    1.532   .     S
C394   H429    1.112   .     S
C394   H428    1.110   .     S
C395   H426    1.112   .     S
C395   H427    1.111   .     S
C395   C396    1.527   .     S
C396   H425    1.110   .     S
C396   H423    1.110   .     S
C397   H437    1.112   .     S
C397   C398    1.532   .     S
C397   H436    1.110   .     S
C398   H435    1.111   .     S
C398   H434    1.112   .     S
C398   C399    1.527   .     S
C399   H430    1.110   .     S
C399   H432    1.110   .     S
C399   H799    1.111   .     S
C400   H443    1.110   .     S
C400   H445    1.112   .     S
C400   C401    1.532   .     S
C401   H441    1.112   .     S
C401   C403    1.527   .     S
C401   H442    1.111   .     S
C402   N452    1.367   .     A
C402   C407    1.410   .     A
C402   H422    1.081   .     S
C403   H438    1.110   .     S
C403   H440    1.110   .     S
C403   H807    1.111   .     S
C404   N451    1.367   .     A
C404   C408    1.409   .     A
C404   H433    1.081   .     S
C405   N452    1.367   .     A
C405   H444    1.081   .     S
C406   H450    1.083   .     S
C407   H412    1.083   .     S
C408   H413    1.083   .     S
Cu409  O457    1.927   .     S
Cu409  Cu410   2.674   .     S
Cu409  O455    1.952   .     S
Cu409  N452    2.009   .     S
Cu409  O459    1.927   .     S
Cu409  O453    1.952   .     S
Cu410  O454    1.952   .     S
Cu410  O458    1.927   .     S
Cu410  O456    1.952   .     S
Cu410  N451    2.009   .     S
Cu410  O460    1.927   .     S
H416   C761    1.111   .     S
H424   C764    1.111   .     S
C461   O548    1.288   .     A
C461   O545    1.288   .     A
C461   C478    1.451   .     S
C462   H506    1.083   .     S
C462   C466    1.407   .     A
C462   C497    1.410   .     A
C463   C467    1.403   .     S
C463   O552    1.285   .     A
C463   O549    1.285   .     A
C464   C468    1.403   .     S
C464   O550    1.285   .     A
C464   O551    1.285   .     A
C465   C498    1.407   .     A
C465   C500    1.407   .     A
C465   C650    1.510   1_545 S
C466   C499    1.407   .     A
C466   C649    1.510   .     S
C468   C835    1.187   .     S
C469   C474    1.396   .     A
C469   C480    1.402   .     A
C469   H538    1.083   .     S
C470   C475    1.396   .     A
C470   C481    1.402   .     A
C470   H539    1.083   .     S
C471   C481    1.402   .     A
C471   C476    1.396   .     A
C471   H540    1.083   .     S
C472   O547    1.288   .     A
C472   O546    1.288   .     A
C472   C479    1.451   .     S
C473   H541    1.083   .     S
C473   C480    1.402   .     A
C473   C477    1.396   .     A
C474   C478    1.413   .     A
C474   C482    1.517   .     S
C475   C479    1.413   .     A
C475   C486    1.517   .     S
C476   C489    1.517   .     S
C476   C479    1.413   .     A
C477   C478    1.413   .     A
C477   C492    1.517   .     S
C481   C388    1.474   1_655 S
C482   H513    1.112   .     S
C482   C484    1.532   .     S
C482   H512    1.110   .     S
C483   N543    1.367   .     A
C483   H503    1.081   .     S
C483   C498    1.409   .     A
C484   H510    1.112   .     S
C484   C485    1.526   .     S
C484   H511    1.111   .     S
C485   H507    1.110   .     S
C485   H509    1.110   .     S
C486   C487    1.532   .     S
C486   H521    1.112   .     S
C486   H520    1.110   .     S
C487   H518    1.112   .     S
C487   H519    1.111   .     S
C487   C488    1.527   .     S
C488   H517    1.110   .     S
C488   H515    1.110   .     S
C489   H529    1.112   .     S
C489   C490    1.532   .     S
C489   H528    1.110   .     S
C490   H527    1.111   .     S
C490   H526    1.112   .     S
C490   C491    1.527   .     S
C491   H522    1.110   .     S
C491   H524    1.110   .     S
C491   H891    1.111   .     S
C492   H535    1.110   .     S
C492   H537    1.112   .     S
C492   C493    1.532   .     S
C493   H533    1.112   .     S
C493   C495    1.527   .     S
C493   H534    1.111   .     S
C494   N544    1.367   .     A
C494   C499    1.410   .     A
C494   H514    1.081   .     S
C495   H530    1.110   .     S
C495   H532    1.110   .     S
C495   H899    1.111   .     S
C496   N543    1.367   .     A
C496   C500    1.409   .     A
C496   H525    1.081   .     S
C497   N544    1.367   .     A
C497   H536    1.081   .     S
C498   H542    1.083   .     S
C499   H504    1.083   .     S
C500   H505    1.083   .     S
Cu501  O549    1.927   .     S
Cu501  Cu502   2.674   .     S
Cu501  O547    1.952   .     S
Cu501  N544    2.009   .     S
Cu501  O551    1.927   .     S
Cu501  O545    1.952   .     S
Cu502  O546    1.952   .     S
Cu502  O550    1.927   .     S
Cu502  O548    1.952   .     S
Cu502  N543    2.009   .     S
Cu502  O552    1.927   .     S
H508   C853    1.111   .     S
H516   C856    1.111   .     S
C553   O640    1.288   .     A
C553   O637    1.288   .     A
C553   C570    1.451   .     S
C554   H598    1.083   .     S
C554   C558    1.407   .     A
C554   C589    1.410   .     A
C555   C559    1.403   .     S
C555   O644    1.285   .     A
C555   O641    1.285   .     A
C556   C560    1.403   .     S
C556   O642    1.285   .     A
C556   O643    1.285   .     A
C557   C590    1.407   .     A
C557   C592    1.407   .     A
C558   C591    1.407   .     A
C558   C373    1.510   1_565 S
C560   C927    1.187   .     S
C561   C566    1.396   .     A
C561   C572    1.402   .     A
C561   H630    1.083   .     S
C562   C567    1.396   .     A
C562   C573    1.402   .     A
C562   H631    1.083   .     S
C563   C573    1.402   .     A
C563   C568    1.396   .     A
C563   H632    1.083   .     S
C564   O639    1.288   .     A
C564   O638    1.288   .     A
C564   C571    1.451   .     S
C565   H633    1.083   .     S
C565   C572    1.402   .     A
C565   C569    1.396   .     A
C566   C570    1.413   .     A
C566   C574    1.517   .     S
C567   C571    1.413   .     A
C567   C578    1.517   .     S
C568   C581    1.517   .     S
C568   C571    1.413   .     A
C569   C570    1.413   .     A
C569   C584    1.517   .     S
C572   C665    1.474   1_455 S
C573   C664    1.474   .     S
C574   H605    1.112   .     S
C574   C576    1.532   .     S
C574   H604    1.110   .     S
C575   N635    1.367   .     A
C575   H595    1.081   .     S
C575   C590    1.409   .     A
C576   H602    1.112   .     S
C576   C577    1.526   .     S
C576   H603    1.111   .     S
C577   H599    1.110   .     S
C577   H601    1.110   .     S
C578   C579    1.532   .     S
C578   H613    1.112   .     S
C578   H612    1.110   .     S
C579   H610    1.112   .     S
C579   H611    1.111   .     S
C579   C580    1.527   .     S
C580   H609    1.110   .     S
C580   H607    1.110   .     S
C581   H621    1.112   .     S
C581   C582    1.532   .     S
C581   H620    1.110   .     S
C582   H619    1.111   .     S
C582   H618    1.112   .     S
C582   C583    1.527   .     S
C583   H614    1.110   .     S
C583   H616    1.110   .     S
C583   H983    1.111   .     S
C584   H627    1.110   .     S
C584   H629    1.112   .     S
C584   C585    1.532   .     S
C585   H625    1.112   .     S
C585   C587    1.527   .     S
C585   H626    1.111   .     S
C586   N636    1.367   .     A
C586   C591    1.410   .     A
C586   H606    1.081   .     S
C587   H622    1.110   .     S
C587   H624    1.110   .     S
C587   H991    1.111   .     S
C588   N635    1.367   .     A
C588   C592    1.409   .     A
C588   H617    1.081   .     S
C589   N636    1.367   .     A
C589   H628    1.081   .     S
C590   H634    1.083   .     S
C591   H596    1.083   .     S
C592   H597    1.083   .     S
Cu593  O641    1.927   .     S
Cu593  Cu594   2.674   .     S
Cu593  O639    1.952   .     S
Cu593  N636    2.009   .     S
Cu593  O643    1.927   .     S
Cu593  O637    1.952   .     S
Cu594  O638    1.952   .     S
Cu594  O642    1.927   .     S
Cu594  O640    1.952   .     S
Cu594  N635    2.009   .     S
Cu594  O644    1.927   .     S
H600   C945    1.111   .     S
H608   C948    1.111   .     S
C645   O732    1.288   .     A
C645   O729    1.288   .     A
C645   C662    1.451   .     S
C646   H690    1.083   .     S
C646   C650    1.407   .     A
C646   C681    1.410   .     A
C647   C651    1.403   .     S
C647   O736    1.285   .     A
C647   O733    1.285   .     A
C648   C652    1.403   .     S
C648   O734    1.285   .     A
C648   O735    1.285   .     A
C649   C682    1.407   .     A
C649   C684    1.407   .     A
C650   C683    1.407   .     A
C650   C465    1.510   1_565 S
C652   C1019   1.187   .     S
C653   C658    1.396   .     A
C653   C664    1.402   .     A
C653   H722    1.083   .     S
C654   C659    1.396   .     A
C654   C665    1.402   .     A
C654   H723    1.083   .     S
C655   C665    1.402   .     A
C655   C660    1.396   .     A
C655   H724    1.083   .     S
C656   O731    1.288   .     A
C656   O730    1.288   .     A
C656   C663    1.451   .     S
C657   H725    1.083   .     S
C657   C664    1.402   .     A
C657   C661    1.396   .     A
C658   C662    1.413   .     A
C658   C666    1.517   .     S
C659   C663    1.413   .     A
C659   C670    1.517   .     S
C660   C673    1.517   .     S
C660   C663    1.413   .     A
C661   C662    1.413   .     A
C661   C676    1.517   .     S
C665   C572    1.474   1_655 S
C666   H697    1.112   .     S
C666   C668    1.532   .     S
C666   H696    1.110   .     S
C667   N727    1.367   .     A
C667   H687    1.081   .     S
C667   C682    1.409   .     A
C668   H694    1.112   .     S
C668   C669    1.526   .     S
C668   H695    1.111   .     S
C669   H691    1.110   .     S
C669   H693    1.110   .     S
C670   C671    1.532   .     S
C670   H705    1.112   .     S
C670   H704    1.110   .     S
C671   H702    1.112   .     S
C671   H703    1.111   .     S
C671   C672    1.527   .     S
C672   H701    1.110   .     S
C672   H699    1.110   .     S
C673   H713    1.112   .     S
C673   C674    1.532   .     S
C673   H712    1.110   .     S
C674   H711    1.111   .     S
C674   H710    1.112   .     S
C674   C675    1.527   .     S
C675   H706    1.110   .     S
C675   H708    1.110   .     S
C675   H1075   1.111   .     S
C676   H719    1.110   .     S
C676   H721    1.112   .     S
C676   C677    1.532   .     S
C677   H717    1.112   .     S
C677   C679    1.527   .     S
C677   H718    1.111   .     S
C678   N728    1.367   .     A
C678   C683    1.410   .     A
C678   H698    1.081   .     S
C679   H714    1.110   .     S
C679   H716    1.110   .     S
C679   H1083   1.111   .     S
C680   N727    1.367   .     A
C680   C684    1.409   .     A
C680   H709    1.081   .     S
C681   N728    1.367   .     A
C681   H720    1.081   .     S
C682   H726    1.083   .     S
C683   H688    1.083   .     S
C684   H689    1.083   .     S
Cu685  O733    1.927   .     S
Cu685  Cu686   2.674   .     S
Cu685  O731    1.952   .     S
Cu685  N728    2.009   .     S
Cu685  O735    1.927   .     S
Cu685  O729    1.952   .     S
Cu686  O730    1.952   .     S
Cu686  O734    1.927   .     S
Cu686  O732    1.952   .     S
Cu686  N727    2.009   .     S
Cu686  O736    1.927   .     S
H692   C1037   1.111   .     S
H700   C1040   1.111   .     S
C737   O824    1.288   .     A
C737   O821    1.288   .     A
C737   C754    1.451   .     S
C738   H782    1.083   .     S
C738   C742    1.407   .     A
C738   C773    1.410   .     A
C739   C743    1.403   .     S
C739   O828    1.285   .     A
C739   O825    1.285   .     A
C740   C744    1.403   .     S
C740   O826    1.285   .     A
C740   O827    1.285   .     A
C741   C774    1.407   .     A
C741   C776    1.407   .     A
C741   C926    1.510   1_545 S
C742   C775    1.407   .     A
C742   C925    1.510   .     S
C744   C7      1.187   1_556 S
C745   C750    1.396   .     A
C745   C756    1.402   .     A
C745   H814    1.083   .     S
C746   C751    1.396   .     A
C746   C757    1.402   .     A
C746   H815    1.083   .     S
C747   C757    1.402   .     A
C747   C752    1.396   .     A
C747   H816    1.083   .     S
C748   O823    1.288   .     A
C748   O822    1.288   .     A
C748   C755    1.451   .     S
C749   H817    1.083   .     S
C749   C756    1.402   .     A
C749   C753    1.396   .     A
C750   C754    1.413   .     A
C750   C758    1.517   .     S
C751   C755    1.413   .     A
C751   C762    1.517   .     S
C752   C765    1.517   .     S
C752   C755    1.413   .     A
C753   C754    1.413   .     A
C753   C768    1.517   .     S
C756   C849    1.474   1_455 S
C757   C848    1.474   .     S
C758   H789    1.112   .     S
C758   C760    1.532   .     S
C758   H788    1.110   .     S
C759   N819    1.367   .     A
C759   H779    1.081   .     S
C759   C774    1.409   .     A
C760   H786    1.112   .     S
C760   C761    1.526   .     S
C760   H787    1.111   .     S
C761   H783    1.110   .     S
C761   H785    1.110   .     S
C762   C763    1.532   .     S
C762   H797    1.112   .     S
C762   H796    1.110   .     S
C763   H794    1.112   .     S
C763   H795    1.111   .     S
C763   C764    1.527   .     S
C764   H793    1.110   .     S
C764   H791    1.110   .     S
C765   H805    1.112   .     S
C765   C766    1.532   .     S
C765   H804    1.110   .     S
C766   H803    1.111   .     S
C766   H802    1.112   .     S
C766   C767    1.527   .     S
C767   H798    1.110   .     S
C767   H800    1.110   .     S
C767   H63     1.111   1_556 S
C768   H811    1.110   .     S
C768   H813    1.112   .     S
C768   C769    1.532   .     S
C769   H809    1.112   .     S
C769   C771    1.527   .     S
C769   H810    1.111   .     S
C770   N820    1.367   .     A
C770   C775    1.410   .     A
C770   H790    1.081   .     S
C771   H806    1.110   .     S
C771   H808    1.110   .     S
C771   H71     1.111   1_556 S
C772   N819    1.367   .     A
C772   C776    1.409   .     A
C772   H801    1.081   .     S
C773   N820    1.367   .     A
C773   H812    1.081   .     S
C774   H818    1.083   .     S
C775   H780    1.083   .     S
C776   H781    1.083   .     S
Cu777  O825    1.927   .     S
Cu777  Cu778   2.674   .     S
Cu777  O823    1.952   .     S
Cu777  N820    2.009   .     S
Cu777  O827    1.927   .     S
Cu777  O821    1.952   .     S
Cu778  O822    1.952   .     S
Cu778  O826    1.927   .     S
Cu778  O824    1.952   .     S
Cu778  N819    2.009   .     S
Cu778  O828    1.927   .     S
H784   C25     1.111   1_556 S
H792   C28     1.111   1_556 S
C829   O916    1.288   .     A
C829   O913    1.288   .     A
C829   C846    1.451   .     S
C830   H874    1.083   .     S
C830   C834    1.407   .     A
C830   C865    1.410   .     A
C831   C835    1.403   .     S
C831   O920    1.285   .     A
C831   O917    1.285   .     A
C832   C836    1.403   .     S
C832   O918    1.285   .     A
C832   O919    1.285   .     A
C833   C866    1.407   .     A
C833   C868    1.407   .     A
C833   C1018   1.510   1_545 S
C834   C867    1.407   .     A
C834   C1017   1.510   .     S
C836   C99     1.187   1_556 S
C837   C842    1.396   .     A
C837   C848    1.402   .     A
C837   H906    1.083   .     S
C838   C843    1.396   .     A
C838   C849    1.402   .     A
C838   H907    1.083   .     S
C839   C849    1.402   .     A
C839   C844    1.396   .     A
C839   H908    1.083   .     S
C840   O915    1.288   .     A
C840   O914    1.288   .     A
C840   C847    1.451   .     S
C841   H909    1.083   .     S
C841   C848    1.402   .     A
C841   C845    1.396   .     A
C842   C846    1.413   .     A
C842   C850    1.517   .     S
C843   C847    1.413   .     A
C843   C854    1.517   .     S
C844   C857    1.517   .     S
C844   C847    1.413   .     A
C845   C846    1.413   .     A
C845   C860    1.517   .     S
C849   C756    1.474   1_655 S
C850   H881    1.112   .     S
C850   C852    1.532   .     S
C850   H880    1.110   .     S
C851   N911    1.367   .     A
C851   H871    1.081   .     S
C851   C866    1.409   .     A
C852   H878    1.112   .     S
C852   C853    1.526   .     S
C852   H879    1.111   .     S
C853   H875    1.110   .     S
C853   H877    1.110   .     S
C854   C855    1.532   .     S
C854   H889    1.112   .     S
C854   H888    1.110   .     S
C855   H886    1.112   .     S
C855   H887    1.111   .     S
C855   C856    1.527   .     S
C856   H885    1.110   .     S
C856   H883    1.110   .     S
C857   H897    1.112   .     S
C857   C858    1.532   .     S
C857   H896    1.110   .     S
C858   H895    1.111   .     S
C858   H894    1.112   .     S
C858   C859    1.527   .     S
C859   H890    1.110   .     S
C859   H892    1.110   .     S
C859   H155    1.111   1_556 S
C860   H903    1.110   .     S
C860   H905    1.112   .     S
C860   C861    1.532   .     S
C861   H901    1.112   .     S
C861   C863    1.527   .     S
C861   H902    1.111   .     S
C862   N912    1.367   .     A
C862   C867    1.410   .     A
C862   H882    1.081   .     S
C863   H898    1.110   .     S
C863   H900    1.110   .     S
C863   H163    1.111   1_556 S
C864   N911    1.367   .     A
C864   C868    1.409   .     A
C864   H893    1.081   .     S
C865   N912    1.367   .     A
C865   H904    1.081   .     S
C866   H910    1.083   .     S
C867   H872    1.083   .     S
C868   H873    1.083   .     S
Cu869  O917    1.927   .     S
Cu869  Cu870   2.674   .     S
Cu869  O915    1.952   .     S
Cu869  N912    2.009   .     S
Cu869  O919    1.927   .     S
Cu869  O913    1.952   .     S
Cu870  O914    1.952   .     S
Cu870  O918    1.927   .     S
Cu870  O916    1.952   .     S
Cu870  N911    2.009   .     S
Cu870  O920    1.927   .     S
H876   C117    1.111   1_556 S
H884   C120    1.111   1_556 S
C921   O1008   1.288   .     A
C921   O1005   1.288   .     A
C921   C938    1.451   .     S
C922   H966    1.083   .     S
C922   C926    1.407   .     A
C922   C957    1.410   .     A
C923   C927    1.403   .     S
C923   O1012   1.285   .     A
C923   O1009   1.285   .     A
C924   C928    1.403   .     S
C924   O1010   1.285   .     A
C924   O1011   1.285   .     A
C925   C958    1.407   .     A
C925   C960    1.407   .     A
C926   C959    1.407   .     A
C926   C741    1.510   1_565 S
C928   C191    1.187   1_556 S
C929   C934    1.396   .     A
C929   C940    1.402   .     A
C929   H998    1.083   .     S
C930   C935    1.396   .     A
C930   C941    1.402   .     A
C930   H999    1.083   .     S
C931   C941    1.402   .     A
C931   C936    1.396   .     A
C931   H1000   1.083   .     S
C932   O1007   1.288   .     A
C932   O1006   1.288   .     A
C932   C939    1.451   .     S
C933   H1001   1.083   .     S
C933   C940    1.402   .     A
C933   C937    1.396   .     A
C934   C938    1.413   .     A
C934   C942    1.517   .     S
C935   C939    1.413   .     A
C935   C946    1.517   .     S
C936   C949    1.517   .     S
C936   C939    1.413   .     A
C937   C938    1.413   .     A
C937   C952    1.517   .     S
C940   C1033   1.474   1_455 S
C941   C1032   1.474   .     S
C942   H973    1.112   .     S
C942   C944    1.532   .     S
C942   H972    1.110   .     S
C943   N1003   1.367   .     A
C943   H963    1.081   .     S
C943   C958    1.409   .     A
C944   H970    1.112   .     S
C944   C945    1.526   .     S
C944   H971    1.111   .     S
C945   H967    1.110   .     S
C945   H969    1.110   .     S
C946   C947    1.532   .     S
C946   H981    1.112   .     S
C946   H980    1.110   .     S
C947   H978    1.112   .     S
C947   H979    1.111   .     S
C947   C948    1.527   .     S
C948   H977    1.110   .     S
C948   H975    1.110   .     S
C949   H989    1.112   .     S
C949   C950    1.532   .     S
C949   H988    1.110   .     S
C950   H987    1.111   .     S
C950   H986    1.112   .     S
C950   C951    1.527   .     S
C951   H982    1.110   .     S
C951   H984    1.110   .     S
C951   H247    1.111   1_556 S
C952   H995    1.110   .     S
C952   H997    1.112   .     S
C952   C953    1.532   .     S
C953   H993    1.112   .     S
C953   C955    1.527   .     S
C953   H994    1.111   .     S
C954   N1004   1.367   .     A
C954   C959    1.410   .     A
C954   H974    1.081   .     S
C955   H990    1.110   .     S
C955   H992    1.110   .     S
C955   H255    1.111   1_556 S
C956   N1003   1.367   .     A
C956   C960    1.409   .     A
C956   H985    1.081   .     S
C957   N1004   1.367   .     A
C957   H996    1.081   .     S
C958   H1002   1.083   .     S
C959   H964    1.083   .     S
C960   H965    1.083   .     S
Cu961  O1009   1.927   .     S
Cu961  Cu962   2.674   .     S
Cu961  O1007   1.952   .     S
Cu961  N1004   2.009   .     S
Cu961  O1011   1.927   .     S
Cu961  O1005   1.952   .     S
Cu962  O1006   1.952   .     S
Cu962  O1010   1.927   .     S
Cu962  O1008   1.952   .     S
Cu962  N1003   2.009   .     S
Cu962  O1012   1.927   .     S
H968   C209    1.111   1_556 S
H976   C212    1.111   1_556 S
C1013  O1100   1.288   .     A
C1013  O1097   1.288   .     A
C1013  C1030   1.451   .     S
C1014  H1058   1.083   .     S
C1014  C1018   1.407   .     A
C1014  C1049   1.410   .     A
C1015  C1019   1.403   .     S
C1015  O1104   1.285   .     A
C1015  O1101   1.285   .     A
C1016  C1020   1.403   .     S
C1016  O1102   1.285   .     A
C1016  O1103   1.285   .     A
C1017  C1050   1.407   .     A
C1017  C1052   1.407   .     A
C1018  C1051   1.407   .     A
C1018  C833    1.510   1_565 S
C1020  C283    1.187   1_556 S
C1021  C1026   1.396   .     A
C1021  C1032   1.402   .     A
C1021  H1090   1.083   .     S
C1022  C1027   1.396   .     A
C1022  C1033   1.402   .     A
C1022  H1091   1.083   .     S
C1023  C1033   1.402   .     A
C1023  C1028   1.396   .     A
C1023  H1092   1.083   .     S
C1024  O1099   1.288   .     A
C1024  O1098   1.288   .     A
C1024  C1031   1.451   .     S
C1025  H1093   1.083   .     S
C1025  C1032   1.402   .     A
C1025  C1029   1.396   .     A
C1026  C1030   1.413   .     A
C1026  C1034   1.517   .     S
C1027  C1031   1.413   .     A
C1027  C1038   1.517   .     S
C1028  C1041   1.517   .     S
C1028  C1031   1.413   .     A
C1029  C1030   1.413   .     A
C1029  C1044   1.517   .     S
C1033  C940    1.474   1_655 S
C1034  H1065   1.112   .     S
C1034  C1036   1.532   .     S
C1034  H1064   1.110   .     S
C1035  N1095   1.367   .     A
C1035  H1055   1.081   .     S
C1035  C1050   1.409   .     A
C1036  H1062   1.112   .     S
C1036  C1037   1.526   .     S
C1036  H1063   1.111   .     S
C1037  H1059   1.110   .     S
C1037  H1061   1.110   .     S
C1038  C1039   1.532   .     S
C1038  H1073   1.112   .     S
C1038  H1072   1.110   .     S
C1039  H1070   1.112   .     S
C1039  H1071   1.111   .     S
C1039  C1040   1.527   .     S
C1040  H1069   1.110   .     S
C1040  H1067   1.110   .     S
C1041  H1081   1.112   .     S
C1041  C1042   1.532   .     S
C1041  H1080   1.110   .     S
C1042  H1079   1.111   .     S
C1042  H1078   1.112   .     S
C1042  C1043   1.527   .     S
C1043  H1074   1.110   .     S
C1043  H1076   1.110   .     S
C1043  H339    1.111   1_556 S
C1044  H1087   1.110   .     S
C1044  H1089   1.112   .     S
C1044  C1045   1.532   .     S
C1045  H1085   1.112   .     S
C1045  C1047   1.527   .     S
C1045  H1086   1.111   .     S
C1046  N1096   1.367   .     A
C1046  C1051   1.410   .     A
C1046  H1066   1.081   .     S
C1047  H1082   1.110   .     S
C1047  H1084   1.110   .     S
C1047  H347    1.111   1_556 S
C1048  N1095   1.367   .     A
C1048  C1052   1.409   .     A
C1048  H1077   1.081   .     S
C1049  N1096   1.367   .     A
C1049  H1088   1.081   .     S
C1050  H1094   1.083   .     S
C1051  H1056   1.083   .     S
C1052  H1057   1.083   .     S
Cu1053 O1101   1.927   .     S
Cu1053 Cu1054  2.674   .     S
Cu1053 O1099   1.952   .     S
Cu1053 N1096   2.009   .     S
Cu1053 O1103   1.927   .     S
Cu1053 O1097   1.952   .     S
Cu1054 O1098   1.952   .     S
Cu1054 O1102   1.927   .     S
Cu1054 O1100   1.952   .     S
Cu1054 N1095   2.009   .     S
Cu1054 O1104   1.927   .     S
H1060  C301    1.111   1_556 S
H1068  C304    1.111   1_556 S
