data_str_m3_o10_o18_pcu_sym.127
_audit_creation_date              2020-01-03
_audit_creation_method            'Materials Studio'
_symmetry_space_group_name_H-M    'P1'
_symmetry_Int_Tables_number       1
_symmetry_cell_setting            triclinic
loop_
_symmetry_equiv_pos_as_xyz
  x,y,z
_cell_length_a                    24.4585
_cell_length_b                    26.0440
_cell_length_c                    27.5936
_cell_angle_alpha                 103.9064
_cell_angle_beta                  93.2371
_cell_angle_gamma                 91.5473
loop_
_atom_site_label
_atom_site_type_symbol
_atom_site_fract_x
_atom_site_fract_y
_atom_site_fract_z
_atom_site_U_iso_or_equiv
_atom_site_adp_type
_atom_site_occupancy
C1     C     0.01382   0.26440   0.25001   0.00000  Uiso   1.00
C2     C     0.31252   0.16264   0.15884   0.00000  Uiso   1.00
C3     C     0.03309   0.17860   0.39515   0.00000  Uiso   1.00
C4     C     0.30110   0.15878   0.10520   0.00000  Uiso   1.00
C5     C     0.02272   0.22711   0.48016   0.00000  Uiso   1.00
C6     C     0.31744   0.12184   0.01855   0.00000  Uiso   1.00
C7     C     0.00219   0.21081   0.43043   0.00000  Uiso   1.00
C8     C     0.00211   0.13321   0.06904   0.00000  Uiso   1.00
C9     C     0.08302   0.16060   0.41048   0.00000  Uiso   1.00
C10    C     0.25065   0.17624   0.09023   0.00000  Uiso   1.00
C11    C     0.10626   0.17877   0.45938   0.00000  Uiso   1.00
C12    C     0.31947   0.06888   0.24980   0.00000  Uiso   1.00
C13    C     0.23202   0.16656   0.03985   0.00000  Uiso   1.00
C14    C     0.07473   0.21200   0.49468   0.00000  Uiso   1.00
C15    C     0.26559   0.13722   0.00387   0.00000  Uiso   1.00
C16    C     0.16006   0.16553   0.47378   0.00000  Uiso   1.00
C17    C     0.17985   0.18288   0.02474   0.00000  Uiso   1.00
C18    C     0.06787   0.01177   0.29235   0.00000  Uiso   1.00
C19    C     0.26522   0.32151   0.20724   0.00000  Uiso   1.00
C20    C     0.15232   0.10929   0.19054   0.00000  Uiso   1.00
C21    C     0.10469   0.08242   0.16257   0.00000  Uiso   1.00
C22    C     0.10451   0.04733   0.11531   0.00000  Uiso   1.00
C23    C     0.14712   0.21645   0.05874   0.00000  Uiso   1.00
C24    C     0.15304   0.03441   0.09336   0.00000  Uiso   1.00
C25    C     0.20123   0.05371   0.12064   0.00000  Uiso   1.00
C26    C     0.20025   0.08791   0.16832   0.00000  Uiso   1.00
C27    C     0.18095   0.22490   0.30889   0.00000  Uiso   1.00
C28    C     0.22857   0.25248   0.33636   0.00000  Uiso   1.00
C29    C     0.22862   0.29037   0.38202   0.00000  Uiso   1.00
C30    C     0.18014   0.30444   0.40353   0.00000  Uiso   1.00
C31    C     0.13201   0.28297   0.37743   0.00000  Uiso   1.00
C32    C     0.13297   0.24647   0.33096   0.00000  Uiso   1.00
C33    C     0.19526   0.13669   0.43884   0.00000  Uiso   1.00
C34    C     0.09563   0.23043   0.04388   0.00000  Uiso   1.00
C35    C     0.24697   0.12316   0.45373   0.00000  Uiso   1.00
C36    C     0.02041   0.31996   0.25786   0.00000  Uiso   1.00
C37    C     0.31284   0.01326   0.24166   0.00000  Uiso   1.00
C38    C     0.02086   0.17102   0.34117   0.00000  Uiso   1.00
H39    H     0.07213   0.25626   0.07116   0.00000  Uiso   1.00
H40    H     0.18495   0.12471   0.39921   0.00000  Uiso   1.00
H41    H     0.10872   0.33090   0.28570   0.00000  Uiso   1.00
H42    H     0.22461   0.00320   0.21341   0.00000  Uiso   1.00
H43    H     0.06557   0.08450   0.17526   0.00000  Uiso   1.00
H44    H     0.06623   0.02955   0.09609   0.00000  Uiso   1.00
H45    H     0.15342   0.00741   0.05682   0.00000  Uiso   1.00
H46    H     0.23993   0.04070   0.10567   0.00000  Uiso   1.00
H47    H     0.23861   0.09215   0.18490   0.00000  Uiso   1.00
H48    H     0.26799   0.24868   0.32465   0.00000  Uiso   1.00
H49    H     0.26683   0.30916   0.40051   0.00000  Uiso   1.00
H50    H     0.27244   0.10111   0.42570   0.00000  Uiso   1.00
H51    H     0.17974   0.00018   0.43890   0.00000  Uiso   1.00
H52    H     0.09328   0.29616   0.39222   0.00000  Uiso   1.00
H53    H     0.09434   0.24083   0.31514   0.00000  Uiso   1.00
H54    H     0.22482   0.19474   0.11903   0.00000  Uiso   1.00
H55    H     0.10403   0.13376   0.38259   0.00000  Uiso   1.00
H56    H     0.04151   0.12008   0.07976   0.00000  Uiso   1.00
H57    H     0.29663   0.22461   0.41941   0.00000  Uiso   1.00
H58    H     0.33182   0.25248   0.00708   0.00000  Uiso   1.00
H59    H     0.01036   0.10033   0.49097   0.00000  Uiso   1.00
H60    H     0.16061   0.23429   0.09706   0.00000  Uiso   1.00
N61    N     0.14695   0.15216   0.23739   0.00000  Uiso   1.00
N62    N     0.18638   0.18117   0.26260   0.00000  Uiso   1.00
O63    O     0.29719   0.24631   0.25309   0.00000  Uiso   1.00
O64    O     0.27167   0.28582   0.17054   0.00000  Uiso   1.00
O65    O     0.03614   0.08702   0.24690   0.00000  Uiso   1.00
O66    O     0.05822   0.23702   0.24501   0.00000  Uiso   1.00
O67    O     0.27512   0.09632   0.25498   0.00000  Uiso   1.00
O68    O     0.30328   0.17397   0.32247   0.00000  Uiso   1.00
O69    O     0.03005   0.15937   0.17753   0.00000  Uiso   1.00
O70    O     0.06431   0.16467   0.31439   0.00000  Uiso   1.00
O71    O     0.26902   0.16866   0.18561   0.00000  Uiso   1.00
O72    O     0.06101   0.04661   0.32961   0.00000  Uiso   1.00
Zn73   Zn    0.27033   0.17287   0.25539   0.00000  Uiso   1.00
Zn74   Zn    0.06300   0.16046   0.24460   0.00000  Uiso   1.00
C75    C     0.34715   0.26440   0.25001   0.00000  Uiso   1.00
C76    C     0.64585   0.16264   0.15884   0.00000  Uiso   1.00
C77    C     0.36642   0.17860   0.39515   0.00000  Uiso   1.00
C78    C     0.63443   0.15878   0.10520   0.00000  Uiso   1.00
C79    C     0.35605   0.22711   0.48016   0.00000  Uiso   1.00
C80    C     0.65078   0.12184   0.01855   0.00000  Uiso   1.00
C81    C     0.33552   0.21081   0.43043   0.00000  Uiso   1.00
C82    C     0.33545   0.13321   0.06904   0.00000  Uiso   1.00
C83    C     0.41635   0.16060   0.41048   0.00000  Uiso   1.00
C84    C     0.58398   0.17624   0.09023   0.00000  Uiso   1.00
C85    C     0.43959   0.17877   0.45938   0.00000  Uiso   1.00
C86    C     0.65281   0.06888   0.24980   0.00000  Uiso   1.00
C87    C     0.56535   0.16656   0.03985   0.00000  Uiso   1.00
C88    C     0.40806   0.21200   0.49468   0.00000  Uiso   1.00
C89    C     0.59893   0.13722   0.00387   0.00000  Uiso   1.00
C90    C     0.49339   0.16553   0.47378   0.00000  Uiso   1.00
C91    C     0.51319   0.18288   0.02474   0.00000  Uiso   1.00
C92    C     0.40121   0.01177   0.29235   0.00000  Uiso   1.00
C93    C     0.59856   0.32151   0.20724   0.00000  Uiso   1.00
C94    C     0.48566   0.10929   0.19054   0.00000  Uiso   1.00
C95    C     0.43803   0.08242   0.16257   0.00000  Uiso   1.00
C96    C     0.43784   0.04733   0.11531   0.00000  Uiso   1.00
C97    C     0.48046   0.21645   0.05874   0.00000  Uiso   1.00
C98    C     0.48638   0.03441   0.09336   0.00000  Uiso   1.00
C99    C     0.53457   0.05371   0.12064   0.00000  Uiso   1.00
C100   C     0.53358   0.08791   0.16832   0.00000  Uiso   1.00
C101   C     0.51428   0.22490   0.30889   0.00000  Uiso   1.00
C102   C     0.56191   0.25248   0.33636   0.00000  Uiso   1.00
C103   C     0.56196   0.29037   0.38202   0.00000  Uiso   1.00
C104   C     0.51347   0.30444   0.40353   0.00000  Uiso   1.00
C105   C     0.46534   0.28297   0.37743   0.00000  Uiso   1.00
C106   C     0.46630   0.24647   0.33096   0.00000  Uiso   1.00
C107   C     0.52859   0.13669   0.43884   0.00000  Uiso   1.00
C108   C     0.42896   0.23043   0.04388   0.00000  Uiso   1.00
C109   C     0.58030   0.12316   0.45373   0.00000  Uiso   1.00
C110   C     0.35374   0.31996   0.25786   0.00000  Uiso   1.00
C111   C     0.64617   0.01326   0.24166   0.00000  Uiso   1.00
C112   C     0.35420   0.17102   0.34117   0.00000  Uiso   1.00
H113   H     0.40546   0.25626   0.07116   0.00000  Uiso   1.00
H114   H     0.51828   0.12471   0.39921   0.00000  Uiso   1.00
H115   H     0.44206   0.33090   0.28570   0.00000  Uiso   1.00
H116   H     0.55794   0.00320   0.21341   0.00000  Uiso   1.00
H117   H     0.39890   0.08450   0.17526   0.00000  Uiso   1.00
H118   H     0.39957   0.02955   0.09609   0.00000  Uiso   1.00
H119   H     0.48675   0.00741   0.05682   0.00000  Uiso   1.00
H120   H     0.57326   0.04070   0.10567   0.00000  Uiso   1.00
H121   H     0.57195   0.09215   0.18490   0.00000  Uiso   1.00
H122   H     0.60132   0.24868   0.32465   0.00000  Uiso   1.00
H123   H     0.60017   0.30916   0.40051   0.00000  Uiso   1.00
H124   H     0.60577   0.10111   0.42570   0.00000  Uiso   1.00
H125   H     0.51308   0.00018   0.43890   0.00000  Uiso   1.00
H126   H     0.42662   0.29616   0.39222   0.00000  Uiso   1.00
H127   H     0.42768   0.24083   0.31514   0.00000  Uiso   1.00
H128   H     0.55816   0.19474   0.11903   0.00000  Uiso   1.00
H129   H     0.43737   0.13376   0.38259   0.00000  Uiso   1.00
H130   H     0.37485   0.12008   0.07976   0.00000  Uiso   1.00
H131   H     0.62996   0.22461   0.41941   0.00000  Uiso   1.00
H132   H     0.66515   0.25248   0.00708   0.00000  Uiso   1.00
H133   H     0.34370   0.10033   0.49097   0.00000  Uiso   1.00
H134   H     0.49394   0.23429   0.09706   0.00000  Uiso   1.00
N135   N     0.48029   0.15216   0.23739   0.00000  Uiso   1.00
N136   N     0.51971   0.18117   0.26260   0.00000  Uiso   1.00
O137   O     0.63052   0.24631   0.25309   0.00000  Uiso   1.00
O138   O     0.60501   0.28582   0.17054   0.00000  Uiso   1.00
O139   O     0.36948   0.08702   0.24690   0.00000  Uiso   1.00
O140   O     0.39155   0.23702   0.24501   0.00000  Uiso   1.00
O141   O     0.60845   0.09632   0.25498   0.00000  Uiso   1.00
O142   O     0.63662   0.17397   0.32247   0.00000  Uiso   1.00
O143   O     0.36338   0.15937   0.17753   0.00000  Uiso   1.00
O144   O     0.39764   0.16467   0.31439   0.00000  Uiso   1.00
O145   O     0.60236   0.16866   0.18561   0.00000  Uiso   1.00
O146   O     0.39435   0.04661   0.32961   0.00000  Uiso   1.00
Zn147  Zn    0.60366   0.17287   0.25539   0.00000  Uiso   1.00
Zn148  Zn    0.39634   0.16046   0.24460   0.00000  Uiso   1.00
C149   C     0.68048   0.26440   0.25001   0.00000  Uiso   1.00
C150   C     0.97918   0.16264   0.15884   0.00000  Uiso   1.00
C151   C     0.69975   0.17860   0.39515   0.00000  Uiso   1.00
C152   C     0.96777   0.15878   0.10520   0.00000  Uiso   1.00
C153   C     0.68938   0.22711   0.48016   0.00000  Uiso   1.00
C154   C     0.98411   0.12184   0.01855   0.00000  Uiso   1.00
C155   C     0.66885   0.21081   0.43043   0.00000  Uiso   1.00
C156   C     0.66878   0.13321   0.06904   0.00000  Uiso   1.00
C157   C     0.74969   0.16060   0.41048   0.00000  Uiso   1.00
C158   C     0.91731   0.17624   0.09023   0.00000  Uiso   1.00
C159   C     0.77292   0.17877   0.45938   0.00000  Uiso   1.00
C160   C     0.98614   0.06888   0.24980   0.00000  Uiso   1.00
C161   C     0.89869   0.16656   0.03985   0.00000  Uiso   1.00
C162   C     0.74139   0.21200   0.49468   0.00000  Uiso   1.00
C163   C     0.93226   0.13722   0.00387   0.00000  Uiso   1.00
C164   C     0.82672   0.16553   0.47378   0.00000  Uiso   1.00
C165   C     0.84652   0.18288   0.02474   0.00000  Uiso   1.00
C166   C     0.73454   0.01177   0.29235   0.00000  Uiso   1.00
C167   C     0.93189   0.32151   0.20724   0.00000  Uiso   1.00
C168   C     0.81899   0.10929   0.19054   0.00000  Uiso   1.00
C169   C     0.77136   0.08242   0.16257   0.00000  Uiso   1.00
C170   C     0.77117   0.04733   0.11531   0.00000  Uiso   1.00
C171   C     0.81379   0.21645   0.05874   0.00000  Uiso   1.00
C172   C     0.81971   0.03441   0.09336   0.00000  Uiso   1.00
C173   C     0.86790   0.05371   0.12064   0.00000  Uiso   1.00
C174   C     0.86692   0.08791   0.16832   0.00000  Uiso   1.00
C175   C     0.84762   0.22490   0.30889   0.00000  Uiso   1.00
C176   C     0.89524   0.25248   0.33636   0.00000  Uiso   1.00
C177   C     0.89529   0.29037   0.38202   0.00000  Uiso   1.00
C178   C     0.84680   0.30444   0.40353   0.00000  Uiso   1.00
C179   C     0.79868   0.28297   0.37743   0.00000  Uiso   1.00
C180   C     0.79963   0.24647   0.33096   0.00000  Uiso   1.00
C181   C     0.86193   0.13669   0.43884   0.00000  Uiso   1.00
C182   C     0.76230   0.23043   0.04388   0.00000  Uiso   1.00
C183   C     0.91363   0.12316   0.45373   0.00000  Uiso   1.00
C184   C     0.68708   0.31996   0.25786   0.00000  Uiso   1.00
C185   C     0.97950   0.01326   0.24166   0.00000  Uiso   1.00
C186   C     0.68753   0.17102   0.34117   0.00000  Uiso   1.00
H187   H     0.73880   0.25626   0.07116   0.00000  Uiso   1.00
H188   H     0.85161   0.12471   0.39921   0.00000  Uiso   1.00
H189   H     0.77539   0.33090   0.28570   0.00000  Uiso   1.00
H190   H     0.89128   0.00320   0.21341   0.00000  Uiso   1.00
H191   H     0.73224   0.08450   0.17526   0.00000  Uiso   1.00
H192   H     0.73290   0.02955   0.09609   0.00000  Uiso   1.00
H193   H     0.82008   0.00741   0.05682   0.00000  Uiso   1.00
H194   H     0.90659   0.04070   0.10567   0.00000  Uiso   1.00
H195   H     0.90528   0.09215   0.18490   0.00000  Uiso   1.00
H196   H     0.93466   0.24868   0.32465   0.00000  Uiso   1.00
H197   H     0.93350   0.30916   0.40051   0.00000  Uiso   1.00
H198   H     0.93910   0.10111   0.42570   0.00000  Uiso   1.00
H199   H     0.84641   0.00018   0.43890   0.00000  Uiso   1.00
H200   H     0.75995   0.29616   0.39222   0.00000  Uiso   1.00
H201   H     0.76101   0.24083   0.31514   0.00000  Uiso   1.00
H202   H     0.89149   0.19474   0.11903   0.00000  Uiso   1.00
H203   H     0.77070   0.13376   0.38259   0.00000  Uiso   1.00
H204   H     0.70818   0.12008   0.07976   0.00000  Uiso   1.00
H205   H     0.96329   0.22461   0.41941   0.00000  Uiso   1.00
H206   H     0.99848   0.25248   0.00708   0.00000  Uiso   1.00
H207   H     0.67703   0.10033   0.49097   0.00000  Uiso   1.00
H208   H     0.82728   0.23429   0.09706   0.00000  Uiso   1.00
N209   N     0.81362   0.15216   0.23739   0.00000  Uiso   1.00
N210   N     0.85305   0.18117   0.26260   0.00000  Uiso   1.00
O211   O     0.96386   0.24631   0.25309   0.00000  Uiso   1.00
O212   O     0.93834   0.28582   0.17054   0.00000  Uiso   1.00
O213   O     0.70281   0.08702   0.24690   0.00000  Uiso   1.00
O214   O     0.72488   0.23702   0.24501   0.00000  Uiso   1.00
O215   O     0.94178   0.09632   0.25498   0.00000  Uiso   1.00
O216   O     0.96995   0.17397   0.32247   0.00000  Uiso   1.00
O217   O     0.69672   0.15937   0.17753   0.00000  Uiso   1.00
O218   O     0.73098   0.16467   0.31439   0.00000  Uiso   1.00
O219   O     0.93569   0.16866   0.18561   0.00000  Uiso   1.00
O220   O     0.72768   0.04661   0.32961   0.00000  Uiso   1.00
Zn221  Zn    0.93700   0.17287   0.25539   0.00000  Uiso   1.00
Zn222  Zn    0.72967   0.16046   0.24460   0.00000  Uiso   1.00
C223   C     0.01382   0.59774   0.25001   0.00000  Uiso   1.00
C224   C     0.31252   0.49598   0.15884   0.00000  Uiso   1.00
C225   C     0.03309   0.51194   0.39515   0.00000  Uiso   1.00
C226   C     0.30110   0.49211   0.10520   0.00000  Uiso   1.00
C227   C     0.02272   0.56044   0.48016   0.00000  Uiso   1.00
C228   C     0.31744   0.45518   0.01855   0.00000  Uiso   1.00
C229   C     0.00219   0.54414   0.43043   0.00000  Uiso   1.00
C230   C     0.00211   0.46655   0.06904   0.00000  Uiso   1.00
C231   C     0.08302   0.49394   0.41048   0.00000  Uiso   1.00
C232   C     0.25065   0.50957   0.09023   0.00000  Uiso   1.00
C233   C     0.10626   0.51210   0.45938   0.00000  Uiso   1.00
C234   C     0.31947   0.40222   0.24980   0.00000  Uiso   1.00
C235   C     0.23202   0.49989   0.03985   0.00000  Uiso   1.00
C236   C     0.07473   0.54533   0.49468   0.00000  Uiso   1.00
C237   C     0.26559   0.47055   0.00387   0.00000  Uiso   1.00
C238   C     0.16006   0.49886   0.47378   0.00000  Uiso   1.00
C239   C     0.17985   0.51622   0.02474   0.00000  Uiso   1.00
C240   C     0.06787   0.34511   0.29235   0.00000  Uiso   1.00
C241   C     0.26522   0.65485   0.20724   0.00000  Uiso   1.00
C242   C     0.15232   0.44262   0.19054   0.00000  Uiso   1.00
C243   C     0.10469   0.41575   0.16257   0.00000  Uiso   1.00
C244   C     0.10451   0.38066   0.11531   0.00000  Uiso   1.00
C245   C     0.14712   0.54978   0.05874   0.00000  Uiso   1.00
C246   C     0.15304   0.36774   0.09336   0.00000  Uiso   1.00
C247   C     0.20123   0.38704   0.12064   0.00000  Uiso   1.00
C248   C     0.20025   0.42124   0.16832   0.00000  Uiso   1.00
C249   C     0.18095   0.55823   0.30889   0.00000  Uiso   1.00
C250   C     0.22857   0.58582   0.33636   0.00000  Uiso   1.00
C251   C     0.22862   0.62370   0.38202   0.00000  Uiso   1.00
C252   C     0.18014   0.63778   0.40353   0.00000  Uiso   1.00
C253   C     0.13201   0.61631   0.37743   0.00000  Uiso   1.00
C254   C     0.13297   0.57980   0.33096   0.00000  Uiso   1.00
C255   C     0.19526   0.47002   0.43884   0.00000  Uiso   1.00
C256   C     0.09563   0.56377   0.04388   0.00000  Uiso   1.00
C257   C     0.24697   0.45650   0.45373   0.00000  Uiso   1.00
C258   C     0.02041   0.65329   0.25786   0.00000  Uiso   1.00
C259   C     0.31284   0.34659   0.24166   0.00000  Uiso   1.00
C260   C     0.02086   0.50435   0.34117   0.00000  Uiso   1.00
H261   H     0.07213   0.58959   0.07116   0.00000  Uiso   1.00
H262   H     0.18495   0.45805   0.39921   0.00000  Uiso   1.00
H263   H     0.10872   0.66424   0.28570   0.00000  Uiso   1.00
H264   H     0.22461   0.33653   0.21341   0.00000  Uiso   1.00
H265   H     0.06557   0.41784   0.17526   0.00000  Uiso   1.00
H266   H     0.06623   0.36289   0.09609   0.00000  Uiso   1.00
H267   H     0.15342   0.34074   0.05682   0.00000  Uiso   1.00
H268   H     0.23993   0.37403   0.10567   0.00000  Uiso   1.00
H269   H     0.23861   0.42548   0.18490   0.00000  Uiso   1.00
H270   H     0.26799   0.58201   0.32465   0.00000  Uiso   1.00
H271   H     0.26683   0.64250   0.40051   0.00000  Uiso   1.00
H272   H     0.27244   0.43445   0.42570   0.00000  Uiso   1.00
H273   H     0.17974   0.33351   0.43890   0.00000  Uiso   1.00
H274   H     0.09328   0.62949   0.39222   0.00000  Uiso   1.00
H275   H     0.09434   0.57416   0.31514   0.00000  Uiso   1.00
H276   H     0.22482   0.52808   0.11903   0.00000  Uiso   1.00
H277   H     0.10403   0.46709   0.38259   0.00000  Uiso   1.00
H278   H     0.04151   0.45342   0.07976   0.00000  Uiso   1.00
H279   H     0.29663   0.55794   0.41941   0.00000  Uiso   1.00
H280   H     0.33182   0.58582   0.00708   0.00000  Uiso   1.00
H281   H     0.01036   0.43366   0.49097   0.00000  Uiso   1.00
H282   H     0.16061   0.56763   0.09706   0.00000  Uiso   1.00
N283   N     0.14695   0.48550   0.23739   0.00000  Uiso   1.00
N284   N     0.18638   0.51450   0.26260   0.00000  Uiso   1.00
O285   O     0.29719   0.57964   0.25309   0.00000  Uiso   1.00
O286   O     0.27167   0.61915   0.17054   0.00000  Uiso   1.00
O287   O     0.03614   0.42036   0.24690   0.00000  Uiso   1.00
O288   O     0.05822   0.57035   0.24501   0.00000  Uiso   1.00
O289   O     0.27512   0.42965   0.25498   0.00000  Uiso   1.00
O290   O     0.30328   0.50730   0.32247   0.00000  Uiso   1.00
O291   O     0.03005   0.49270   0.17753   0.00000  Uiso   1.00
O292   O     0.06431   0.49801   0.31439   0.00000  Uiso   1.00
O293   O     0.26902   0.50199   0.18561   0.00000  Uiso   1.00
O294   O     0.06101   0.37995   0.32961   0.00000  Uiso   1.00
Zn295  Zn    0.27033   0.50621   0.25539   0.00000  Uiso   1.00
Zn296  Zn    0.06300   0.49379   0.24460   0.00000  Uiso   1.00
C297   C     0.34715   0.59774   0.25001   0.00000  Uiso   1.00
C298   C     0.64585   0.49598   0.15884   0.00000  Uiso   1.00
C299   C     0.36642   0.51194   0.39515   0.00000  Uiso   1.00
C300   C     0.63443   0.49211   0.10520   0.00000  Uiso   1.00
C301   C     0.35605   0.56044   0.48016   0.00000  Uiso   1.00
C302   C     0.65078   0.45518   0.01855   0.00000  Uiso   1.00
C303   C     0.33552   0.54414   0.43043   0.00000  Uiso   1.00
C304   C     0.33545   0.46655   0.06904   0.00000  Uiso   1.00
C305   C     0.41635   0.49394   0.41048   0.00000  Uiso   1.00
C306   C     0.58398   0.50957   0.09023   0.00000  Uiso   1.00
C307   C     0.43959   0.51210   0.45938   0.00000  Uiso   1.00
C308   C     0.65281   0.40222   0.24980   0.00000  Uiso   1.00
C309   C     0.56535   0.49989   0.03985   0.00000  Uiso   1.00
C310   C     0.40806   0.54533   0.49468   0.00000  Uiso   1.00
C311   C     0.59893   0.47055   0.00387   0.00000  Uiso   1.00
C312   C     0.49339   0.49886   0.47378   0.00000  Uiso   1.00
C313   C     0.51319   0.51622   0.02474   0.00000  Uiso   1.00
C314   C     0.40121   0.34511   0.29235   0.00000  Uiso   1.00
C315   C     0.59856   0.65485   0.20724   0.00000  Uiso   1.00
C316   C     0.48566   0.44262   0.19054   0.00000  Uiso   1.00
C317   C     0.43803   0.41575   0.16257   0.00000  Uiso   1.00
C318   C     0.43784   0.38066   0.11531   0.00000  Uiso   1.00
C319   C     0.48046   0.54978   0.05874   0.00000  Uiso   1.00
C320   C     0.48638   0.36774   0.09336   0.00000  Uiso   1.00
C321   C     0.53457   0.38704   0.12064   0.00000  Uiso   1.00
C322   C     0.53358   0.42124   0.16832   0.00000  Uiso   1.00
C323   C     0.51428   0.55823   0.30889   0.00000  Uiso   1.00
C324   C     0.56191   0.58582   0.33636   0.00000  Uiso   1.00
C325   C     0.56196   0.62370   0.38202   0.00000  Uiso   1.00
C326   C     0.51347   0.63778   0.40353   0.00000  Uiso   1.00
C327   C     0.46534   0.61631   0.37743   0.00000  Uiso   1.00
C328   C     0.46630   0.57980   0.33096   0.00000  Uiso   1.00
C329   C     0.52859   0.47002   0.43884   0.00000  Uiso   1.00
C330   C     0.42896   0.56377   0.04388   0.00000  Uiso   1.00
C331   C     0.58030   0.45650   0.45373   0.00000  Uiso   1.00
C332   C     0.35374   0.65329   0.25786   0.00000  Uiso   1.00
C333   C     0.64617   0.34659   0.24166   0.00000  Uiso   1.00
C334   C     0.35420   0.50435   0.34117   0.00000  Uiso   1.00
H335   H     0.40546   0.58959   0.07116   0.00000  Uiso   1.00
H336   H     0.51828   0.45805   0.39921   0.00000  Uiso   1.00
H337   H     0.44206   0.66424   0.28570   0.00000  Uiso   1.00
H338   H     0.55794   0.33653   0.21341   0.00000  Uiso   1.00
H339   H     0.39890   0.41784   0.17526   0.00000  Uiso   1.00
H340   H     0.39957   0.36289   0.09609   0.00000  Uiso   1.00
H341   H     0.48675   0.34074   0.05682   0.00000  Uiso   1.00
H342   H     0.57326   0.37403   0.10567   0.00000  Uiso   1.00
H343   H     0.57195   0.42548   0.18490   0.00000  Uiso   1.00
H344   H     0.60132   0.58201   0.32465   0.00000  Uiso   1.00
H345   H     0.60017   0.64250   0.40051   0.00000  Uiso   1.00
H346   H     0.60577   0.43445   0.42570   0.00000  Uiso   1.00
H347   H     0.51308   0.33351   0.43890   0.00000  Uiso   1.00
H348   H     0.42662   0.62949   0.39222   0.00000  Uiso   1.00
H349   H     0.42768   0.57416   0.31514   0.00000  Uiso   1.00
H350   H     0.55816   0.52808   0.11903   0.00000  Uiso   1.00
H351   H     0.43737   0.46709   0.38259   0.00000  Uiso   1.00
H352   H     0.37485   0.45342   0.07976   0.00000  Uiso   1.00
H353   H     0.62996   0.55794   0.41941   0.00000  Uiso   1.00
H354   H     0.66515   0.58582   0.00708   0.00000  Uiso   1.00
H355   H     0.34370   0.43366   0.49097   0.00000  Uiso   1.00
H356   H     0.49394   0.56763   0.09706   0.00000  Uiso   1.00
N357   N     0.48029   0.48550   0.23739   0.00000  Uiso   1.00
N358   N     0.51971   0.51450   0.26260   0.00000  Uiso   1.00
O359   O     0.63052   0.57964   0.25309   0.00000  Uiso   1.00
O360   O     0.60501   0.61915   0.17054   0.00000  Uiso   1.00
O361   O     0.36948   0.42036   0.24690   0.00000  Uiso   1.00
O362   O     0.39155   0.57035   0.24501   0.00000  Uiso   1.00
O363   O     0.60845   0.42965   0.25498   0.00000  Uiso   1.00
O364   O     0.63662   0.50730   0.32247   0.00000  Uiso   1.00
O365   O     0.36338   0.49270   0.17753   0.00000  Uiso   1.00
O366   O     0.39764   0.49801   0.31439   0.00000  Uiso   1.00
O367   O     0.60236   0.50199   0.18561   0.00000  Uiso   1.00
O368   O     0.39435   0.37995   0.32961   0.00000  Uiso   1.00
Zn369  Zn    0.60366   0.50621   0.25539   0.00000  Uiso   1.00
Zn370  Zn    0.39634   0.49379   0.24460   0.00000  Uiso   1.00
C371   C     0.68048   0.59774   0.25001   0.00000  Uiso   1.00
C372   C     0.97918   0.49598   0.15884   0.00000  Uiso   1.00
C373   C     0.69975   0.51194   0.39515   0.00000  Uiso   1.00
C374   C     0.96777   0.49211   0.10520   0.00000  Uiso   1.00
C375   C     0.68938   0.56044   0.48016   0.00000  Uiso   1.00
C376   C     0.98411   0.45518   0.01855   0.00000  Uiso   1.00
C377   C     0.66885   0.54414   0.43043   0.00000  Uiso   1.00
C378   C     0.66878   0.46655   0.06904   0.00000  Uiso   1.00
C379   C     0.74969   0.49394   0.41048   0.00000  Uiso   1.00
C380   C     0.91731   0.50957   0.09023   0.00000  Uiso   1.00
C381   C     0.77292   0.51210   0.45938   0.00000  Uiso   1.00
C382   C     0.98614   0.40222   0.24980   0.00000  Uiso   1.00
C383   C     0.89869   0.49989   0.03985   0.00000  Uiso   1.00
C384   C     0.74139   0.54533   0.49468   0.00000  Uiso   1.00
C385   C     0.93226   0.47055   0.00387   0.00000  Uiso   1.00
C386   C     0.82672   0.49886   0.47378   0.00000  Uiso   1.00
C387   C     0.84652   0.51622   0.02474   0.00000  Uiso   1.00
C388   C     0.73454   0.34511   0.29235   0.00000  Uiso   1.00
C389   C     0.93189   0.65485   0.20724   0.00000  Uiso   1.00
C390   C     0.81899   0.44262   0.19054   0.00000  Uiso   1.00
C391   C     0.77136   0.41575   0.16257   0.00000  Uiso   1.00
C392   C     0.77117   0.38066   0.11531   0.00000  Uiso   1.00
C393   C     0.81379   0.54978   0.05874   0.00000  Uiso   1.00
C394   C     0.81971   0.36774   0.09336   0.00000  Uiso   1.00
C395   C     0.86790   0.38704   0.12064   0.00000  Uiso   1.00
C396   C     0.86692   0.42124   0.16832   0.00000  Uiso   1.00
C397   C     0.84762   0.55823   0.30889   0.00000  Uiso   1.00
C398   C     0.89524   0.58582   0.33636   0.00000  Uiso   1.00
C399   C     0.89529   0.62370   0.38202   0.00000  Uiso   1.00
C400   C     0.84680   0.63778   0.40353   0.00000  Uiso   1.00
C401   C     0.79868   0.61631   0.37743   0.00000  Uiso   1.00
C402   C     0.79963   0.57980   0.33096   0.00000  Uiso   1.00
C403   C     0.86193   0.47002   0.43884   0.00000  Uiso   1.00
C404   C     0.76230   0.56377   0.04388   0.00000  Uiso   1.00
C405   C     0.91363   0.45650   0.45373   0.00000  Uiso   1.00
C406   C     0.68708   0.65329   0.25786   0.00000  Uiso   1.00
C407   C     0.97950   0.34659   0.24166   0.00000  Uiso   1.00
C408   C     0.68753   0.50435   0.34117   0.00000  Uiso   1.00
H409   H     0.73880   0.58959   0.07116   0.00000  Uiso   1.00
H410   H     0.85161   0.45805   0.39921   0.00000  Uiso   1.00
H411   H     0.77539   0.66424   0.28570   0.00000  Uiso   1.00
H412   H     0.89128   0.33653   0.21341   0.00000  Uiso   1.00
H413   H     0.73224   0.41784   0.17526   0.00000  Uiso   1.00
H414   H     0.73290   0.36289   0.09609   0.00000  Uiso   1.00
H415   H     0.82008   0.34074   0.05682   0.00000  Uiso   1.00
H416   H     0.90659   0.37403   0.10567   0.00000  Uiso   1.00
H417   H     0.90528   0.42548   0.18490   0.00000  Uiso   1.00
H418   H     0.93466   0.58201   0.32465   0.00000  Uiso   1.00
H419   H     0.93350   0.64250   0.40051   0.00000  Uiso   1.00
H420   H     0.93910   0.43445   0.42570   0.00000  Uiso   1.00
H421   H     0.84641   0.33351   0.43890   0.00000  Uiso   1.00
H422   H     0.75995   0.62949   0.39222   0.00000  Uiso   1.00
H423   H     0.76101   0.57416   0.31514   0.00000  Uiso   1.00
H424   H     0.89149   0.52808   0.11903   0.00000  Uiso   1.00
H425   H     0.77070   0.46709   0.38259   0.00000  Uiso   1.00
H426   H     0.70818   0.45342   0.07976   0.00000  Uiso   1.00
H427   H     0.96329   0.55794   0.41941   0.00000  Uiso   1.00
H428   H     0.99848   0.58582   0.00708   0.00000  Uiso   1.00
H429   H     0.67703   0.43366   0.49097   0.00000  Uiso   1.00
H430   H     0.82728   0.56763   0.09706   0.00000  Uiso   1.00
N431   N     0.81362   0.48550   0.23739   0.00000  Uiso   1.00
N432   N     0.85305   0.51450   0.26260   0.00000  Uiso   1.00
O433   O     0.96386   0.57964   0.25309   0.00000  Uiso   1.00
O434   O     0.93834   0.61915   0.17054   0.00000  Uiso   1.00
O435   O     0.70281   0.42036   0.24690   0.00000  Uiso   1.00
O436   O     0.72488   0.57035   0.24501   0.00000  Uiso   1.00
O437   O     0.94178   0.42965   0.25498   0.00000  Uiso   1.00
O438   O     0.96995   0.50730   0.32247   0.00000  Uiso   1.00
O439   O     0.69672   0.49270   0.17753   0.00000  Uiso   1.00
O440   O     0.73098   0.49801   0.31439   0.00000  Uiso   1.00
O441   O     0.93569   0.50199   0.18561   0.00000  Uiso   1.00
O442   O     0.72768   0.37995   0.32961   0.00000  Uiso   1.00
Zn443  Zn    0.93700   0.50621   0.25539   0.00000  Uiso   1.00
Zn444  Zn    0.72967   0.49379   0.24460   0.00000  Uiso   1.00
C445   C     0.01382   0.93107   0.25001   0.00000  Uiso   1.00
C446   C     0.31252   0.82931   0.15884   0.00000  Uiso   1.00
C447   C     0.03309   0.84527   0.39515   0.00000  Uiso   1.00
C448   C     0.30110   0.82545   0.10520   0.00000  Uiso   1.00
C449   C     0.02272   0.89377   0.48016   0.00000  Uiso   1.00
C450   C     0.31744   0.78851   0.01855   0.00000  Uiso   1.00
C451   C     0.00219   0.87748   0.43043   0.00000  Uiso   1.00
C452   C     0.00211   0.79988   0.06904   0.00000  Uiso   1.00
C453   C     0.08302   0.82727   0.41048   0.00000  Uiso   1.00
C454   C     0.25065   0.84291   0.09023   0.00000  Uiso   1.00
C455   C     0.10626   0.84543   0.45938   0.00000  Uiso   1.00
C456   C     0.31947   0.73555   0.24980   0.00000  Uiso   1.00
C457   C     0.23202   0.83322   0.03985   0.00000  Uiso   1.00
C458   C     0.07473   0.87867   0.49468   0.00000  Uiso   1.00
C459   C     0.26559   0.80388   0.00387   0.00000  Uiso   1.00
C460   C     0.16006   0.83220   0.47378   0.00000  Uiso   1.00
C461   C     0.17985   0.84955   0.02474   0.00000  Uiso   1.00
C462   C     0.06787   0.67844   0.29235   0.00000  Uiso   1.00
C463   C     0.26522   0.98818   0.20724   0.00000  Uiso   1.00
C464   C     0.15232   0.77595   0.19054   0.00000  Uiso   1.00
C465   C     0.10469   0.74908   0.16257   0.00000  Uiso   1.00
C466   C     0.10451   0.71400   0.11531   0.00000  Uiso   1.00
C467   C     0.14712   0.88312   0.05874   0.00000  Uiso   1.00
C468   C     0.15304   0.70108   0.09336   0.00000  Uiso   1.00
C469   C     0.20123   0.72037   0.12064   0.00000  Uiso   1.00
C470   C     0.20025   0.75457   0.16832   0.00000  Uiso   1.00
C471   C     0.18095   0.89156   0.30889   0.00000  Uiso   1.00
C472   C     0.22857   0.91915   0.33636   0.00000  Uiso   1.00
C473   C     0.22862   0.95704   0.38202   0.00000  Uiso   1.00
C474   C     0.18014   0.97111   0.40353   0.00000  Uiso   1.00
C475   C     0.13201   0.94964   0.37743   0.00000  Uiso   1.00
C476   C     0.13297   0.91313   0.33096   0.00000  Uiso   1.00
C477   C     0.19526   0.80336   0.43884   0.00000  Uiso   1.00
C478   C     0.09563   0.89710   0.04388   0.00000  Uiso   1.00
C479   C     0.24697   0.78983   0.45373   0.00000  Uiso   1.00
C480   C     0.02041   0.98663   0.25786   0.00000  Uiso   1.00
C481   C     0.31284   0.67993   0.24166   0.00000  Uiso   1.00
C482   C     0.02086   0.83769   0.34117   0.00000  Uiso   1.00
H483   H     0.07213   0.92292   0.07116   0.00000  Uiso   1.00
H484   H     0.18495   0.79138   0.39921   0.00000  Uiso   1.00
H485   H     0.10872   0.99757   0.28570   0.00000  Uiso   1.00
H486   H     0.22461   0.66986   0.21341   0.00000  Uiso   1.00
H487   H     0.06557   0.75117   0.17526   0.00000  Uiso   1.00
H488   H     0.06623   0.69622   0.09609   0.00000  Uiso   1.00
H489   H     0.15342   0.67407   0.05682   0.00000  Uiso   1.00
H490   H     0.23993   0.70737   0.10567   0.00000  Uiso   1.00
H491   H     0.23861   0.75881   0.18490   0.00000  Uiso   1.00
H492   H     0.26799   0.91535   0.32465   0.00000  Uiso   1.00
H493   H     0.26683   0.97583   0.40051   0.00000  Uiso   1.00
H494   H     0.27244   0.76778   0.42570   0.00000  Uiso   1.00
H495   H     0.17974   0.66685   0.43890   0.00000  Uiso   1.00
H496   H     0.09328   0.96283   0.39222   0.00000  Uiso   1.00
H497   H     0.09434   0.90750   0.31514   0.00000  Uiso   1.00
H498   H     0.22482   0.86141   0.11903   0.00000  Uiso   1.00
H499   H     0.10403   0.80043   0.38259   0.00000  Uiso   1.00
H500   H     0.04151   0.78675   0.07976   0.00000  Uiso   1.00
H501   H     0.29663   0.89128   0.41941   0.00000  Uiso   1.00
H502   H     0.33182   0.91915   0.00708   0.00000  Uiso   1.00
H503   H     0.01036   0.76699   0.49097   0.00000  Uiso   1.00
H504   H     0.16061   0.90096   0.09706   0.00000  Uiso   1.00
N505   N     0.14695   0.81883   0.23739   0.00000  Uiso   1.00
N506   N     0.18638   0.84784   0.26260   0.00000  Uiso   1.00
O507   O     0.29719   0.91298   0.25309   0.00000  Uiso   1.00
O508   O     0.27167   0.95248   0.17054   0.00000  Uiso   1.00
O509   O     0.03614   0.75369   0.24690   0.00000  Uiso   1.00
O510   O     0.05822   0.90368   0.24501   0.00000  Uiso   1.00
O511   O     0.27512   0.76298   0.25498   0.00000  Uiso   1.00
O512   O     0.30328   0.84063   0.32247   0.00000  Uiso   1.00
O513   O     0.03005   0.82603   0.17753   0.00000  Uiso   1.00
O514   O     0.06431   0.83134   0.31439   0.00000  Uiso   1.00
O515   O     0.26902   0.83533   0.18561   0.00000  Uiso   1.00
O516   O     0.06101   0.71328   0.32961   0.00000  Uiso   1.00
Zn517  Zn    0.27033   0.83954   0.25539   0.00000  Uiso   1.00
Zn518  Zn    0.06300   0.82713   0.24460   0.00000  Uiso   1.00
C519   C     0.34715   0.93107   0.25001   0.00000  Uiso   1.00
C520   C     0.64585   0.82931   0.15884   0.00000  Uiso   1.00
C521   C     0.36642   0.84527   0.39515   0.00000  Uiso   1.00
C522   C     0.63443   0.82545   0.10520   0.00000  Uiso   1.00
C523   C     0.35605   0.89377   0.48016   0.00000  Uiso   1.00
C524   C     0.65078   0.78851   0.01855   0.00000  Uiso   1.00
C525   C     0.33552   0.87748   0.43043   0.00000  Uiso   1.00
C526   C     0.33545   0.79988   0.06904   0.00000  Uiso   1.00
C527   C     0.41635   0.82727   0.41048   0.00000  Uiso   1.00
C528   C     0.58398   0.84291   0.09023   0.00000  Uiso   1.00
C529   C     0.43959   0.84543   0.45938   0.00000  Uiso   1.00
C530   C     0.65281   0.73555   0.24980   0.00000  Uiso   1.00
C531   C     0.56535   0.83322   0.03985   0.00000  Uiso   1.00
C532   C     0.40806   0.87867   0.49468   0.00000  Uiso   1.00
C533   C     0.59893   0.80388   0.00387   0.00000  Uiso   1.00
C534   C     0.49339   0.83220   0.47378   0.00000  Uiso   1.00
C535   C     0.51319   0.84955   0.02474   0.00000  Uiso   1.00
C536   C     0.40121   0.67844   0.29235   0.00000  Uiso   1.00
C537   C     0.59856   0.98818   0.20724   0.00000  Uiso   1.00
C538   C     0.48566   0.77595   0.19054   0.00000  Uiso   1.00
C539   C     0.43803   0.74908   0.16257   0.00000  Uiso   1.00
C540   C     0.43784   0.71400   0.11531   0.00000  Uiso   1.00
C541   C     0.48046   0.88312   0.05874   0.00000  Uiso   1.00
C542   C     0.48638   0.70108   0.09336   0.00000  Uiso   1.00
C543   C     0.53457   0.72037   0.12064   0.00000  Uiso   1.00
C544   C     0.53358   0.75457   0.16832   0.00000  Uiso   1.00
C545   C     0.51428   0.89156   0.30889   0.00000  Uiso   1.00
C546   C     0.56191   0.91915   0.33636   0.00000  Uiso   1.00
C547   C     0.56196   0.95704   0.38202   0.00000  Uiso   1.00
C548   C     0.51347   0.97111   0.40353   0.00000  Uiso   1.00
C549   C     0.46534   0.94964   0.37743   0.00000  Uiso   1.00
C550   C     0.46630   0.91313   0.33096   0.00000  Uiso   1.00
C551   C     0.52859   0.80336   0.43884   0.00000  Uiso   1.00
C552   C     0.42896   0.89710   0.04388   0.00000  Uiso   1.00
C553   C     0.58030   0.78983   0.45373   0.00000  Uiso   1.00
C554   C     0.35374   0.98663   0.25786   0.00000  Uiso   1.00
C555   C     0.64617   0.67993   0.24166   0.00000  Uiso   1.00
C556   C     0.35420   0.83769   0.34117   0.00000  Uiso   1.00
H557   H     0.40546   0.92292   0.07116   0.00000  Uiso   1.00
H558   H     0.51828   0.79138   0.39921   0.00000  Uiso   1.00
H559   H     0.44206   0.99757   0.28570   0.00000  Uiso   1.00
H560   H     0.55794   0.66986   0.21341   0.00000  Uiso   1.00
H561   H     0.39890   0.75117   0.17526   0.00000  Uiso   1.00
H562   H     0.39957   0.69622   0.09609   0.00000  Uiso   1.00
H563   H     0.48675   0.67407   0.05682   0.00000  Uiso   1.00
H564   H     0.57326   0.70737   0.10567   0.00000  Uiso   1.00
H565   H     0.57195   0.75881   0.18490   0.00000  Uiso   1.00
H566   H     0.60132   0.91535   0.32465   0.00000  Uiso   1.00
H567   H     0.60017   0.97583   0.40051   0.00000  Uiso   1.00
H568   H     0.60577   0.76778   0.42570   0.00000  Uiso   1.00
H569   H     0.51308   0.66685   0.43890   0.00000  Uiso   1.00
H570   H     0.42662   0.96283   0.39222   0.00000  Uiso   1.00
H571   H     0.42768   0.90750   0.31514   0.00000  Uiso   1.00
H572   H     0.55816   0.86141   0.11903   0.00000  Uiso   1.00
H573   H     0.43737   0.80043   0.38259   0.00000  Uiso   1.00
H574   H     0.37485   0.78675   0.07976   0.00000  Uiso   1.00
H575   H     0.62996   0.89128   0.41941   0.00000  Uiso   1.00
H576   H     0.66515   0.91915   0.00708   0.00000  Uiso   1.00
H577   H     0.34370   0.76699   0.49097   0.00000  Uiso   1.00
H578   H     0.49394   0.90096   0.09706   0.00000  Uiso   1.00
N579   N     0.48029   0.81883   0.23739   0.00000  Uiso   1.00
N580   N     0.51971   0.84784   0.26260   0.00000  Uiso   1.00
O581   O     0.63052   0.91298   0.25309   0.00000  Uiso   1.00
O582   O     0.60501   0.95248   0.17054   0.00000  Uiso   1.00
O583   O     0.36948   0.75369   0.24690   0.00000  Uiso   1.00
O584   O     0.39155   0.90368   0.24501   0.00000  Uiso   1.00
O585   O     0.60845   0.76298   0.25498   0.00000  Uiso   1.00
O586   O     0.63662   0.84063   0.32247   0.00000  Uiso   1.00
O587   O     0.36338   0.82603   0.17753   0.00000  Uiso   1.00
O588   O     0.39764   0.83134   0.31439   0.00000  Uiso   1.00
O589   O     0.60236   0.83533   0.18561   0.00000  Uiso   1.00
O590   O     0.39435   0.71328   0.32961   0.00000  Uiso   1.00
Zn591  Zn    0.60366   0.83954   0.25539   0.00000  Uiso   1.00
Zn592  Zn    0.39634   0.82713   0.24460   0.00000  Uiso   1.00
C593   C     0.68048   0.93107   0.25001   0.00000  Uiso   1.00
C594   C     0.97918   0.82931   0.15884   0.00000  Uiso   1.00
C595   C     0.69975   0.84527   0.39515   0.00000  Uiso   1.00
C596   C     0.96777   0.82545   0.10520   0.00000  Uiso   1.00
C597   C     0.68938   0.89377   0.48016   0.00000  Uiso   1.00
C598   C     0.98411   0.78851   0.01855   0.00000  Uiso   1.00
C599   C     0.66885   0.87748   0.43043   0.00000  Uiso   1.00
C600   C     0.66878   0.79988   0.06904   0.00000  Uiso   1.00
C601   C     0.74969   0.82727   0.41048   0.00000  Uiso   1.00
C602   C     0.91731   0.84291   0.09023   0.00000  Uiso   1.00
C603   C     0.77292   0.84543   0.45938   0.00000  Uiso   1.00
C604   C     0.98614   0.73555   0.24980   0.00000  Uiso   1.00
C605   C     0.89869   0.83322   0.03985   0.00000  Uiso   1.00
C606   C     0.74139   0.87867   0.49468   0.00000  Uiso   1.00
C607   C     0.93226   0.80388   0.00387   0.00000  Uiso   1.00
C608   C     0.82672   0.83220   0.47378   0.00000  Uiso   1.00
C609   C     0.84652   0.84955   0.02474   0.00000  Uiso   1.00
C610   C     0.73454   0.67844   0.29235   0.00000  Uiso   1.00
C611   C     0.93189   0.98818   0.20724   0.00000  Uiso   1.00
C612   C     0.81899   0.77595   0.19054   0.00000  Uiso   1.00
C613   C     0.77136   0.74908   0.16257   0.00000  Uiso   1.00
C614   C     0.77117   0.71400   0.11531   0.00000  Uiso   1.00
C615   C     0.81379   0.88312   0.05874   0.00000  Uiso   1.00
C616   C     0.81971   0.70108   0.09336   0.00000  Uiso   1.00
C617   C     0.86790   0.72037   0.12064   0.00000  Uiso   1.00
C618   C     0.86692   0.75457   0.16832   0.00000  Uiso   1.00
C619   C     0.84762   0.89156   0.30889   0.00000  Uiso   1.00
C620   C     0.89524   0.91915   0.33636   0.00000  Uiso   1.00
C621   C     0.89529   0.95704   0.38202   0.00000  Uiso   1.00
C622   C     0.84680   0.97111   0.40353   0.00000  Uiso   1.00
C623   C     0.79868   0.94964   0.37743   0.00000  Uiso   1.00
C624   C     0.79963   0.91313   0.33096   0.00000  Uiso   1.00
C625   C     0.86193   0.80336   0.43884   0.00000  Uiso   1.00
C626   C     0.76230   0.89710   0.04388   0.00000  Uiso   1.00
C627   C     0.91363   0.78983   0.45373   0.00000  Uiso   1.00
C628   C     0.68708   0.98663   0.25786   0.00000  Uiso   1.00
C629   C     0.97950   0.67993   0.24166   0.00000  Uiso   1.00
C630   C     0.68753   0.83769   0.34117   0.00000  Uiso   1.00
H631   H     0.73880   0.92292   0.07116   0.00000  Uiso   1.00
H632   H     0.85161   0.79138   0.39921   0.00000  Uiso   1.00
H633   H     0.77539   0.99757   0.28570   0.00000  Uiso   1.00
H634   H     0.89128   0.66986   0.21341   0.00000  Uiso   1.00
H635   H     0.73224   0.75117   0.17526   0.00000  Uiso   1.00
H636   H     0.73290   0.69622   0.09609   0.00000  Uiso   1.00
H637   H     0.82008   0.67407   0.05682   0.00000  Uiso   1.00
H638   H     0.90659   0.70737   0.10567   0.00000  Uiso   1.00
H639   H     0.90528   0.75881   0.18490   0.00000  Uiso   1.00
H640   H     0.93466   0.91535   0.32465   0.00000  Uiso   1.00
H641   H     0.93350   0.97583   0.40051   0.00000  Uiso   1.00
H642   H     0.93910   0.76778   0.42570   0.00000  Uiso   1.00
H643   H     0.84641   0.66685   0.43890   0.00000  Uiso   1.00
H644   H     0.75995   0.96283   0.39222   0.00000  Uiso   1.00
H645   H     0.76101   0.90750   0.31514   0.00000  Uiso   1.00
H646   H     0.89149   0.86141   0.11903   0.00000  Uiso   1.00
H647   H     0.77070   0.80043   0.38259   0.00000  Uiso   1.00
H648   H     0.70818   0.78675   0.07976   0.00000  Uiso   1.00
H649   H     0.96329   0.89128   0.41941   0.00000  Uiso   1.00
H650   H     0.99848   0.91915   0.00708   0.00000  Uiso   1.00
H651   H     0.67703   0.76699   0.49097   0.00000  Uiso   1.00
H652   H     0.82728   0.90096   0.09706   0.00000  Uiso   1.00
N653   N     0.81362   0.81883   0.23739   0.00000  Uiso   1.00
N654   N     0.85305   0.84784   0.26260   0.00000  Uiso   1.00
O655   O     0.96386   0.91298   0.25309   0.00000  Uiso   1.00
O656   O     0.93834   0.95248   0.17054   0.00000  Uiso   1.00
O657   O     0.70281   0.75369   0.24690   0.00000  Uiso   1.00
O658   O     0.72488   0.90368   0.24501   0.00000  Uiso   1.00
O659   O     0.94178   0.76298   0.25498   0.00000  Uiso   1.00
O660   O     0.96995   0.84063   0.32247   0.00000  Uiso   1.00
O661   O     0.69672   0.82603   0.17753   0.00000  Uiso   1.00
O662   O     0.73098   0.83134   0.31439   0.00000  Uiso   1.00
O663   O     0.93569   0.83533   0.18561   0.00000  Uiso   1.00
O664   O     0.72768   0.71328   0.32961   0.00000  Uiso   1.00
Zn665  Zn    0.93700   0.83954   0.25539   0.00000  Uiso   1.00
Zn666  Zn    0.72967   0.82713   0.24460   0.00000  Uiso   1.00
C667   C     0.01382   0.26440   0.75001   0.00000  Uiso   1.00
C668   C     0.31252   0.16264   0.65884   0.00000  Uiso   1.00
C669   C     0.03309   0.17860   0.89515   0.00000  Uiso   1.00
C670   C     0.30110   0.15878   0.60520   0.00000  Uiso   1.00
C671   C     0.02272   0.22711   0.98016   0.00000  Uiso   1.00
C672   C     0.31744   0.12184   0.51855   0.00000  Uiso   1.00
C673   C     0.00219   0.21081   0.93043   0.00000  Uiso   1.00
C674   C     0.00211   0.13321   0.56904   0.00000  Uiso   1.00
C675   C     0.08302   0.16060   0.91048   0.00000  Uiso   1.00
C676   C     0.25065   0.17624   0.59023   0.00000  Uiso   1.00
C677   C     0.10626   0.17877   0.95938   0.00000  Uiso   1.00
C678   C     0.31947   0.06888   0.74980   0.00000  Uiso   1.00
C679   C     0.23202   0.16656   0.53985   0.00000  Uiso   1.00
C680   C     0.07473   0.21200   0.99468   0.00000  Uiso   1.00
C681   C     0.26559   0.13722   0.50387   0.00000  Uiso   1.00
C682   C     0.16006   0.16553   0.97378   0.00000  Uiso   1.00
C683   C     0.17985   0.18288   0.52474   0.00000  Uiso   1.00
C684   C     0.06787   0.01177   0.79235   0.00000  Uiso   1.00
C685   C     0.26522   0.32151   0.70724   0.00000  Uiso   1.00
C686   C     0.15232   0.10929   0.69054   0.00000  Uiso   1.00
C687   C     0.10469   0.08242   0.66257   0.00000  Uiso   1.00
C688   C     0.10451   0.04733   0.61531   0.00000  Uiso   1.00
C689   C     0.14712   0.21645   0.55874   0.00000  Uiso   1.00
C690   C     0.15304   0.03441   0.59336   0.00000  Uiso   1.00
C691   C     0.20123   0.05371   0.62064   0.00000  Uiso   1.00
C692   C     0.20025   0.08791   0.66832   0.00000  Uiso   1.00
C693   C     0.18095   0.22490   0.80889   0.00000  Uiso   1.00
C694   C     0.22857   0.25248   0.83636   0.00000  Uiso   1.00
C695   C     0.22862   0.29037   0.88202   0.00000  Uiso   1.00
C696   C     0.18014   0.30444   0.90353   0.00000  Uiso   1.00
C697   C     0.13201   0.28297   0.87743   0.00000  Uiso   1.00
C698   C     0.13297   0.24647   0.83096   0.00000  Uiso   1.00
C699   C     0.19526   0.13669   0.93884   0.00000  Uiso   1.00
C700   C     0.09563   0.23043   0.54388   0.00000  Uiso   1.00
C701   C     0.24697   0.12316   0.95373   0.00000  Uiso   1.00
C702   C     0.02041   0.31996   0.75786   0.00000  Uiso   1.00
C703   C     0.31284   0.01326   0.74166   0.00000  Uiso   1.00
C704   C     0.02086   0.17102   0.84117   0.00000  Uiso   1.00
H705   H     0.07213   0.25626   0.57116   0.00000  Uiso   1.00
H706   H     0.18495   0.12471   0.89921   0.00000  Uiso   1.00
H707   H     0.10872   0.33090   0.78570   0.00000  Uiso   1.00
H708   H     0.22461   0.00320   0.71341   0.00000  Uiso   1.00
H709   H     0.06557   0.08450   0.67526   0.00000  Uiso   1.00
H710   H     0.06623   0.02955   0.59609   0.00000  Uiso   1.00
H711   H     0.15342   0.00741   0.55682   0.00000  Uiso   1.00
H712   H     0.23993   0.04070   0.60567   0.00000  Uiso   1.00
H713   H     0.23861   0.09215   0.68490   0.00000  Uiso   1.00
H714   H     0.26799   0.24868   0.82465   0.00000  Uiso   1.00
H715   H     0.26683   0.30916   0.90051   0.00000  Uiso   1.00
H716   H     0.27244   0.10111   0.92570   0.00000  Uiso   1.00
H717   H     0.17974   0.00018   0.93890   0.00000  Uiso   1.00
H718   H     0.09328   0.29616   0.89222   0.00000  Uiso   1.00
H719   H     0.09434   0.24083   0.81514   0.00000  Uiso   1.00
H720   H     0.22482   0.19474   0.61903   0.00000  Uiso   1.00
H721   H     0.10403   0.13376   0.88259   0.00000  Uiso   1.00
H722   H     0.04151   0.12008   0.57976   0.00000  Uiso   1.00
H723   H     0.29663   0.22461   0.91941   0.00000  Uiso   1.00
H724   H     0.33182   0.25248   0.50708   0.00000  Uiso   1.00
H725   H     0.01036   0.10033   0.99097   0.00000  Uiso   1.00
H726   H     0.16061   0.23429   0.59706   0.00000  Uiso   1.00
N727   N     0.14695   0.15216   0.73739   0.00000  Uiso   1.00
N728   N     0.18638   0.18117   0.76260   0.00000  Uiso   1.00
O729   O     0.29719   0.24631   0.75309   0.00000  Uiso   1.00
O730   O     0.27167   0.28582   0.67054   0.00000  Uiso   1.00
O731   O     0.03614   0.08702   0.74690   0.00000  Uiso   1.00
O732   O     0.05822   0.23702   0.74501   0.00000  Uiso   1.00
O733   O     0.27512   0.09632   0.75498   0.00000  Uiso   1.00
O734   O     0.30328   0.17397   0.82247   0.00000  Uiso   1.00
O735   O     0.03005   0.15937   0.67753   0.00000  Uiso   1.00
O736   O     0.06431   0.16467   0.81439   0.00000  Uiso   1.00
O737   O     0.26902   0.16866   0.68561   0.00000  Uiso   1.00
O738   O     0.06101   0.04661   0.82961   0.00000  Uiso   1.00
Zn739  Zn    0.27033   0.17287   0.75539   0.00000  Uiso   1.00
Zn740  Zn    0.06300   0.16046   0.74460   0.00000  Uiso   1.00
C741   C     0.34715   0.26440   0.75001   0.00000  Uiso   1.00
C742   C     0.64585   0.16264   0.65884   0.00000  Uiso   1.00
C743   C     0.36642   0.17860   0.89515   0.00000  Uiso   1.00
C744   C     0.63443   0.15878   0.60520   0.00000  Uiso   1.00
C745   C     0.35605   0.22711   0.98016   0.00000  Uiso   1.00
C746   C     0.65078   0.12184   0.51855   0.00000  Uiso   1.00
C747   C     0.33552   0.21081   0.93043   0.00000  Uiso   1.00
C748   C     0.33545   0.13321   0.56904   0.00000  Uiso   1.00
C749   C     0.41635   0.16060   0.91048   0.00000  Uiso   1.00
C750   C     0.58398   0.17624   0.59023   0.00000  Uiso   1.00
C751   C     0.43959   0.17877   0.95938   0.00000  Uiso   1.00
C752   C     0.65281   0.06888   0.74980   0.00000  Uiso   1.00
C753   C     0.56535   0.16656   0.53985   0.00000  Uiso   1.00
C754   C     0.40806   0.21200   0.99468   0.00000  Uiso   1.00
C755   C     0.59893   0.13722   0.50387   0.00000  Uiso   1.00
C756   C     0.49339   0.16553   0.97378   0.00000  Uiso   1.00
C757   C     0.51319   0.18288   0.52474   0.00000  Uiso   1.00
C758   C     0.40121   0.01177   0.79235   0.00000  Uiso   1.00
C759   C     0.59856   0.32151   0.70724   0.00000  Uiso   1.00
C760   C     0.48566   0.10929   0.69054   0.00000  Uiso   1.00
C761   C     0.43803   0.08242   0.66257   0.00000  Uiso   1.00
C762   C     0.43784   0.04733   0.61531   0.00000  Uiso   1.00
C763   C     0.48046   0.21645   0.55874   0.00000  Uiso   1.00
C764   C     0.48638   0.03441   0.59336   0.00000  Uiso   1.00
C765   C     0.53457   0.05371   0.62064   0.00000  Uiso   1.00
C766   C     0.53358   0.08791   0.66832   0.00000  Uiso   1.00
C767   C     0.51428   0.22490   0.80889   0.00000  Uiso   1.00
C768   C     0.56191   0.25248   0.83636   0.00000  Uiso   1.00
C769   C     0.56196   0.29037   0.88202   0.00000  Uiso   1.00
C770   C     0.51347   0.30444   0.90353   0.00000  Uiso   1.00
C771   C     0.46534   0.28297   0.87743   0.00000  Uiso   1.00
C772   C     0.46630   0.24647   0.83096   0.00000  Uiso   1.00
C773   C     0.52859   0.13669   0.93884   0.00000  Uiso   1.00
C774   C     0.42896   0.23043   0.54388   0.00000  Uiso   1.00
C775   C     0.58030   0.12316   0.95373   0.00000  Uiso   1.00
C776   C     0.35374   0.31996   0.75786   0.00000  Uiso   1.00
C777   C     0.64617   0.01326   0.74166   0.00000  Uiso   1.00
C778   C     0.35420   0.17102   0.84117   0.00000  Uiso   1.00
H779   H     0.40546   0.25626   0.57116   0.00000  Uiso   1.00
H780   H     0.51828   0.12471   0.89921   0.00000  Uiso   1.00
H781   H     0.44206   0.33090   0.78570   0.00000  Uiso   1.00
H782   H     0.55794   0.00320   0.71341   0.00000  Uiso   1.00
H783   H     0.39890   0.08450   0.67526   0.00000  Uiso   1.00
H784   H     0.39957   0.02955   0.59609   0.00000  Uiso   1.00
H785   H     0.48675   0.00741   0.55682   0.00000  Uiso   1.00
H786   H     0.57326   0.04070   0.60567   0.00000  Uiso   1.00
H787   H     0.57195   0.09215   0.68490   0.00000  Uiso   1.00
H788   H     0.60132   0.24868   0.82465   0.00000  Uiso   1.00
H789   H     0.60017   0.30916   0.90051   0.00000  Uiso   1.00
H790   H     0.60577   0.10111   0.92570   0.00000  Uiso   1.00
H791   H     0.51308   0.00018   0.93890   0.00000  Uiso   1.00
H792   H     0.42662   0.29616   0.89222   0.00000  Uiso   1.00
H793   H     0.42768   0.24083   0.81514   0.00000  Uiso   1.00
H794   H     0.55816   0.19474   0.61903   0.00000  Uiso   1.00
H795   H     0.43737   0.13376   0.88259   0.00000  Uiso   1.00
H796   H     0.37485   0.12008   0.57976   0.00000  Uiso   1.00
H797   H     0.62996   0.22461   0.91941   0.00000  Uiso   1.00
H798   H     0.66515   0.25248   0.50708   0.00000  Uiso   1.00
H799   H     0.34370   0.10033   0.99097   0.00000  Uiso   1.00
H800   H     0.49394   0.23429   0.59706   0.00000  Uiso   1.00
N801   N     0.48029   0.15216   0.73739   0.00000  Uiso   1.00
N802   N     0.51971   0.18117   0.76260   0.00000  Uiso   1.00
O803   O     0.63052   0.24631   0.75309   0.00000  Uiso   1.00
O804   O     0.60501   0.28582   0.67054   0.00000  Uiso   1.00
O805   O     0.36948   0.08702   0.74690   0.00000  Uiso   1.00
O806   O     0.39155   0.23702   0.74501   0.00000  Uiso   1.00
O807   O     0.60845   0.09632   0.75498   0.00000  Uiso   1.00
O808   O     0.63662   0.17397   0.82247   0.00000  Uiso   1.00
O809   O     0.36338   0.15937   0.67753   0.00000  Uiso   1.00
O810   O     0.39764   0.16467   0.81439   0.00000  Uiso   1.00
O811   O     0.60236   0.16866   0.68561   0.00000  Uiso   1.00
O812   O     0.39435   0.04661   0.82961   0.00000  Uiso   1.00
Zn813  Zn    0.60366   0.17287   0.75539   0.00000  Uiso   1.00
Zn814  Zn    0.39634   0.16046   0.74460   0.00000  Uiso   1.00
C815   C     0.68048   0.26440   0.75001   0.00000  Uiso   1.00
C816   C     0.97918   0.16264   0.65884   0.00000  Uiso   1.00
C817   C     0.69975   0.17860   0.89515   0.00000  Uiso   1.00
C818   C     0.96777   0.15878   0.60520   0.00000  Uiso   1.00
C819   C     0.68938   0.22711   0.98016   0.00000  Uiso   1.00
C820   C     0.98411   0.12184   0.51855   0.00000  Uiso   1.00
C821   C     0.66885   0.21081   0.93043   0.00000  Uiso   1.00
C822   C     0.66878   0.13321   0.56904   0.00000  Uiso   1.00
C823   C     0.74969   0.16060   0.91048   0.00000  Uiso   1.00
C824   C     0.91731   0.17624   0.59023   0.00000  Uiso   1.00
C825   C     0.77292   0.17877   0.95938   0.00000  Uiso   1.00
C826   C     0.98614   0.06888   0.74980   0.00000  Uiso   1.00
C827   C     0.89869   0.16656   0.53985   0.00000  Uiso   1.00
C828   C     0.74139   0.21200   0.99468   0.00000  Uiso   1.00
C829   C     0.93226   0.13722   0.50387   0.00000  Uiso   1.00
C830   C     0.82672   0.16553   0.97378   0.00000  Uiso   1.00
C831   C     0.84652   0.18288   0.52474   0.00000  Uiso   1.00
C832   C     0.73454   0.01177   0.79235   0.00000  Uiso   1.00
C833   C     0.93189   0.32151   0.70724   0.00000  Uiso   1.00
C834   C     0.81899   0.10929   0.69054   0.00000  Uiso   1.00
C835   C     0.77136   0.08242   0.66257   0.00000  Uiso   1.00
C836   C     0.77117   0.04733   0.61531   0.00000  Uiso   1.00
C837   C     0.81379   0.21645   0.55874   0.00000  Uiso   1.00
C838   C     0.81971   0.03441   0.59336   0.00000  Uiso   1.00
C839   C     0.86790   0.05371   0.62064   0.00000  Uiso   1.00
C840   C     0.86692   0.08791   0.66832   0.00000  Uiso   1.00
C841   C     0.84762   0.22490   0.80889   0.00000  Uiso   1.00
C842   C     0.89524   0.25248   0.83636   0.00000  Uiso   1.00
C843   C     0.89529   0.29037   0.88202   0.00000  Uiso   1.00
C844   C     0.84680   0.30444   0.90353   0.00000  Uiso   1.00
C845   C     0.79868   0.28297   0.87743   0.00000  Uiso   1.00
C846   C     0.79963   0.24647   0.83096   0.00000  Uiso   1.00
C847   C     0.86193   0.13669   0.93884   0.00000  Uiso   1.00
C848   C     0.76230   0.23043   0.54388   0.00000  Uiso   1.00
C849   C     0.91363   0.12316   0.95373   0.00000  Uiso   1.00
C850   C     0.68708   0.31996   0.75786   0.00000  Uiso   1.00
C851   C     0.97950   0.01326   0.74166   0.00000  Uiso   1.00
C852   C     0.68753   0.17102   0.84117   0.00000  Uiso   1.00
H853   H     0.73880   0.25626   0.57116   0.00000  Uiso   1.00
H854   H     0.85161   0.12471   0.89921   0.00000  Uiso   1.00
H855   H     0.77539   0.33090   0.78570   0.00000  Uiso   1.00
H856   H     0.89128   0.00320   0.71341   0.00000  Uiso   1.00
H857   H     0.73224   0.08450   0.67526   0.00000  Uiso   1.00
H858   H     0.73290   0.02955   0.59609   0.00000  Uiso   1.00
H859   H     0.82008   0.00741   0.55682   0.00000  Uiso   1.00
H860   H     0.90659   0.04070   0.60567   0.00000  Uiso   1.00
H861   H     0.90528   0.09215   0.68490   0.00000  Uiso   1.00
H862   H     0.93466   0.24868   0.82465   0.00000  Uiso   1.00
H863   H     0.93350   0.30916   0.90051   0.00000  Uiso   1.00
H864   H     0.93910   0.10111   0.92570   0.00000  Uiso   1.00
H865   H     0.84641   0.00018   0.93890   0.00000  Uiso   1.00
H866   H     0.75995   0.29616   0.89222   0.00000  Uiso   1.00
H867   H     0.76101   0.24083   0.81514   0.00000  Uiso   1.00
H868   H     0.89149   0.19474   0.61903   0.00000  Uiso   1.00
H869   H     0.77070   0.13376   0.88259   0.00000  Uiso   1.00
H870   H     0.70818   0.12008   0.57976   0.00000  Uiso   1.00
H871   H     0.96329   0.22461   0.91941   0.00000  Uiso   1.00
H872   H     0.99848   0.25248   0.50708   0.00000  Uiso   1.00
H873   H     0.67703   0.10033   0.99097   0.00000  Uiso   1.00
H874   H     0.82728   0.23429   0.59706   0.00000  Uiso   1.00
N875   N     0.81362   0.15216   0.73739   0.00000  Uiso   1.00
N876   N     0.85305   0.18117   0.76260   0.00000  Uiso   1.00
O877   O     0.96386   0.24631   0.75309   0.00000  Uiso   1.00
O878   O     0.93834   0.28582   0.67054   0.00000  Uiso   1.00
O879   O     0.70281   0.08702   0.74690   0.00000  Uiso   1.00
O880   O     0.72488   0.23702   0.74501   0.00000  Uiso   1.00
O881   O     0.94178   0.09632   0.75498   0.00000  Uiso   1.00
O882   O     0.96995   0.17397   0.82247   0.00000  Uiso   1.00
O883   O     0.69672   0.15937   0.67753   0.00000  Uiso   1.00
O884   O     0.73098   0.16467   0.81439   0.00000  Uiso   1.00
O885   O     0.93569   0.16866   0.68561   0.00000  Uiso   1.00
O886   O     0.72768   0.04661   0.82961   0.00000  Uiso   1.00
Zn887  Zn    0.93700   0.17287   0.75539   0.00000  Uiso   1.00
Zn888  Zn    0.72967   0.16046   0.74460   0.00000  Uiso   1.00
C889   C     0.01382   0.59774   0.75001   0.00000  Uiso   1.00
C890   C     0.31252   0.49598   0.65884   0.00000  Uiso   1.00
C891   C     0.03309   0.51194   0.89515   0.00000  Uiso   1.00
C892   C     0.30110   0.49211   0.60520   0.00000  Uiso   1.00
C893   C     0.02272   0.56044   0.98016   0.00000  Uiso   1.00
C894   C     0.31744   0.45518   0.51855   0.00000  Uiso   1.00
C895   C     0.00219   0.54414   0.93043   0.00000  Uiso   1.00
C896   C     0.00211   0.46655   0.56904   0.00000  Uiso   1.00
C897   C     0.08302   0.49394   0.91048   0.00000  Uiso   1.00
C898   C     0.25065   0.50957   0.59023   0.00000  Uiso   1.00
C899   C     0.10626   0.51210   0.95938   0.00000  Uiso   1.00
C900   C     0.31947   0.40222   0.74980   0.00000  Uiso   1.00
C901   C     0.23202   0.49989   0.53985   0.00000  Uiso   1.00
C902   C     0.07473   0.54533   0.99468   0.00000  Uiso   1.00
C903   C     0.26559   0.47055   0.50387   0.00000  Uiso   1.00
C904   C     0.16006   0.49886   0.97378   0.00000  Uiso   1.00
C905   C     0.17985   0.51622   0.52474   0.00000  Uiso   1.00
C906   C     0.06787   0.34511   0.79235   0.00000  Uiso   1.00
C907   C     0.26522   0.65485   0.70724   0.00000  Uiso   1.00
C908   C     0.15232   0.44262   0.69054   0.00000  Uiso   1.00
C909   C     0.10469   0.41575   0.66257   0.00000  Uiso   1.00
C910   C     0.10451   0.38066   0.61531   0.00000  Uiso   1.00
C911   C     0.14712   0.54978   0.55874   0.00000  Uiso   1.00
C912   C     0.15304   0.36774   0.59336   0.00000  Uiso   1.00
C913   C     0.20123   0.38704   0.62064   0.00000  Uiso   1.00
C914   C     0.20025   0.42124   0.66832   0.00000  Uiso   1.00
C915   C     0.18095   0.55823   0.80889   0.00000  Uiso   1.00
C916   C     0.22857   0.58582   0.83636   0.00000  Uiso   1.00
C917   C     0.22862   0.62370   0.88202   0.00000  Uiso   1.00
C918   C     0.18014   0.63778   0.90353   0.00000  Uiso   1.00
C919   C     0.13201   0.61631   0.87743   0.00000  Uiso   1.00
C920   C     0.13297   0.57980   0.83096   0.00000  Uiso   1.00
C921   C     0.19526   0.47002   0.93884   0.00000  Uiso   1.00
C922   C     0.09563   0.56377   0.54388   0.00000  Uiso   1.00
C923   C     0.24697   0.45650   0.95373   0.00000  Uiso   1.00
C924   C     0.02041   0.65329   0.75786   0.00000  Uiso   1.00
C925   C     0.31284   0.34659   0.74166   0.00000  Uiso   1.00
C926   C     0.02086   0.50435   0.84117   0.00000  Uiso   1.00
H927   H     0.07213   0.58959   0.57116   0.00000  Uiso   1.00
H928   H     0.18495   0.45805   0.89921   0.00000  Uiso   1.00
H929   H     0.10872   0.66424   0.78570   0.00000  Uiso   1.00
H930   H     0.22461   0.33653   0.71341   0.00000  Uiso   1.00
H931   H     0.06557   0.41784   0.67526   0.00000  Uiso   1.00
H932   H     0.06623   0.36289   0.59609   0.00000  Uiso   1.00
H933   H     0.15342   0.34074   0.55682   0.00000  Uiso   1.00
H934   H     0.23993   0.37403   0.60567   0.00000  Uiso   1.00
H935   H     0.23861   0.42548   0.68490   0.00000  Uiso   1.00
H936   H     0.26799   0.58201   0.82465   0.00000  Uiso   1.00
H937   H     0.26683   0.64250   0.90051   0.00000  Uiso   1.00
H938   H     0.27244   0.43445   0.92570   0.00000  Uiso   1.00
H939   H     0.17974   0.33351   0.93890   0.00000  Uiso   1.00
H940   H     0.09328   0.62949   0.89222   0.00000  Uiso   1.00
H941   H     0.09434   0.57416   0.81514   0.00000  Uiso   1.00
H942   H     0.22482   0.52808   0.61903   0.00000  Uiso   1.00
H943   H     0.10403   0.46709   0.88259   0.00000  Uiso   1.00
H944   H     0.04151   0.45342   0.57976   0.00000  Uiso   1.00
H945   H     0.29663   0.55794   0.91941   0.00000  Uiso   1.00
H946   H     0.33182   0.58582   0.50708   0.00000  Uiso   1.00
H947   H     0.01036   0.43366   0.99097   0.00000  Uiso   1.00
H948   H     0.16061   0.56763   0.59706   0.00000  Uiso   1.00
N949   N     0.14695   0.48550   0.73739   0.00000  Uiso   1.00
N950   N     0.18638   0.51450   0.76260   0.00000  Uiso   1.00
O951   O     0.29719   0.57964   0.75309   0.00000  Uiso   1.00
O952   O     0.27167   0.61915   0.67054   0.00000  Uiso   1.00
O953   O     0.03614   0.42036   0.74690   0.00000  Uiso   1.00
O954   O     0.05822   0.57035   0.74501   0.00000  Uiso   1.00
O955   O     0.27512   0.42965   0.75498   0.00000  Uiso   1.00
O956   O     0.30328   0.50730   0.82247   0.00000  Uiso   1.00
O957   O     0.03005   0.49270   0.67753   0.00000  Uiso   1.00
O958   O     0.06431   0.49801   0.81439   0.00000  Uiso   1.00
O959   O     0.26902   0.50199   0.68561   0.00000  Uiso   1.00
O960   O     0.06101   0.37995   0.82961   0.00000  Uiso   1.00
Zn961  Zn    0.27033   0.50621   0.75539   0.00000  Uiso   1.00
Zn962  Zn    0.06300   0.49379   0.74460   0.00000  Uiso   1.00
C963   C     0.34715   0.59774   0.75001   0.00000  Uiso   1.00
C964   C     0.64585   0.49598   0.65884   0.00000  Uiso   1.00
C965   C     0.36642   0.51194   0.89515   0.00000  Uiso   1.00
C966   C     0.63443   0.49211   0.60520   0.00000  Uiso   1.00
C967   C     0.35605   0.56044   0.98016   0.00000  Uiso   1.00
C968   C     0.65078   0.45518   0.51855   0.00000  Uiso   1.00
C969   C     0.33552   0.54414   0.93043   0.00000  Uiso   1.00
C970   C     0.33545   0.46655   0.56904   0.00000  Uiso   1.00
C971   C     0.41635   0.49394   0.91048   0.00000  Uiso   1.00
C972   C     0.58398   0.50957   0.59023   0.00000  Uiso   1.00
C973   C     0.43959   0.51210   0.95938   0.00000  Uiso   1.00
C974   C     0.65281   0.40222   0.74980   0.00000  Uiso   1.00
C975   C     0.56535   0.49989   0.53985   0.00000  Uiso   1.00
C976   C     0.40806   0.54533   0.99468   0.00000  Uiso   1.00
C977   C     0.59893   0.47055   0.50387   0.00000  Uiso   1.00
C978   C     0.49339   0.49886   0.97378   0.00000  Uiso   1.00
C979   C     0.51319   0.51622   0.52474   0.00000  Uiso   1.00
C980   C     0.40121   0.34511   0.79235   0.00000  Uiso   1.00
C981   C     0.59856   0.65485   0.70724   0.00000  Uiso   1.00
C982   C     0.48566   0.44262   0.69054   0.00000  Uiso   1.00
C983   C     0.43803   0.41575   0.66257   0.00000  Uiso   1.00
C984   C     0.43784   0.38066   0.61531   0.00000  Uiso   1.00
C985   C     0.48046   0.54978   0.55874   0.00000  Uiso   1.00
C986   C     0.48638   0.36774   0.59336   0.00000  Uiso   1.00
C987   C     0.53457   0.38704   0.62064   0.00000  Uiso   1.00
C988   C     0.53358   0.42124   0.66832   0.00000  Uiso   1.00
C989   C     0.51428   0.55823   0.80889   0.00000  Uiso   1.00
C990   C     0.56191   0.58582   0.83636   0.00000  Uiso   1.00
C991   C     0.56196   0.62370   0.88202   0.00000  Uiso   1.00
C992   C     0.51347   0.63778   0.90353   0.00000  Uiso   1.00
C993   C     0.46534   0.61631   0.87743   0.00000  Uiso   1.00
C994   C     0.46630   0.57980   0.83096   0.00000  Uiso   1.00
C995   C     0.52859   0.47002   0.93884   0.00000  Uiso   1.00
C996   C     0.42896   0.56377   0.54388   0.00000  Uiso   1.00
C997   C     0.58030   0.45650   0.95373   0.00000  Uiso   1.00
C998   C     0.35374   0.65329   0.75786   0.00000  Uiso   1.00
C999   C     0.64617   0.34659   0.74166   0.00000  Uiso   1.00
C1000  C     0.35420   0.50435   0.84117   0.00000  Uiso   1.00
H1001  H     0.40546   0.58959   0.57116   0.00000  Uiso   1.00
H1002  H     0.51828   0.45805   0.89921   0.00000  Uiso   1.00
H1003  H     0.44206   0.66424   0.78570   0.00000  Uiso   1.00
H1004  H     0.55794   0.33653   0.71341   0.00000  Uiso   1.00
H1005  H     0.39890   0.41784   0.67526   0.00000  Uiso   1.00
H1006  H     0.39957   0.36289   0.59609   0.00000  Uiso   1.00
H1007  H     0.48675   0.34074   0.55682   0.00000  Uiso   1.00
H1008  H     0.57326   0.37403   0.60567   0.00000  Uiso   1.00
H1009  H     0.57195   0.42548   0.68490   0.00000  Uiso   1.00
H1010  H     0.60132   0.58201   0.82465   0.00000  Uiso   1.00
H1011  H     0.60017   0.64250   0.90051   0.00000  Uiso   1.00
H1012  H     0.60577   0.43445   0.92570   0.00000  Uiso   1.00
H1013  H     0.51308   0.33351   0.93890   0.00000  Uiso   1.00
H1014  H     0.42662   0.62949   0.89222   0.00000  Uiso   1.00
H1015  H     0.42768   0.57416   0.81514   0.00000  Uiso   1.00
H1016  H     0.55816   0.52808   0.61903   0.00000  Uiso   1.00
H1017  H     0.43737   0.46709   0.88259   0.00000  Uiso   1.00
H1018  H     0.37485   0.45342   0.57976   0.00000  Uiso   1.00
H1019  H     0.62996   0.55794   0.91941   0.00000  Uiso   1.00
H1020  H     0.66515   0.58582   0.50708   0.00000  Uiso   1.00
H1021  H     0.34370   0.43366   0.99097   0.00000  Uiso   1.00
H1022  H     0.49394   0.56763   0.59706   0.00000  Uiso   1.00
N1023  N     0.48029   0.48550   0.73739   0.00000  Uiso   1.00
N1024  N     0.51971   0.51450   0.76260   0.00000  Uiso   1.00
O1025  O     0.63052   0.57964   0.75309   0.00000  Uiso   1.00
O1026  O     0.60501   0.61915   0.67054   0.00000  Uiso   1.00
O1027  O     0.36948   0.42036   0.74690   0.00000  Uiso   1.00
O1028  O     0.39155   0.57035   0.74501   0.00000  Uiso   1.00
O1029  O     0.60845   0.42965   0.75498   0.00000  Uiso   1.00
O1030  O     0.63662   0.50730   0.82247   0.00000  Uiso   1.00
O1031  O     0.36338   0.49270   0.67753   0.00000  Uiso   1.00
O1032  O     0.39764   0.49801   0.81439   0.00000  Uiso   1.00
O1033  O     0.60236   0.50199   0.68561   0.00000  Uiso   1.00
O1034  O     0.39435   0.37995   0.82961   0.00000  Uiso   1.00
Zn1035 Zn    0.60366   0.50621   0.75539   0.00000  Uiso   1.00
Zn1036 Zn    0.39634   0.49379   0.74460   0.00000  Uiso   1.00
C1037  C     0.68048   0.59774   0.75001   0.00000  Uiso   1.00
C1038  C     0.97918   0.49598   0.65884   0.00000  Uiso   1.00
C1039  C     0.69975   0.51194   0.89515   0.00000  Uiso   1.00
C1040  C     0.96777   0.49211   0.60520   0.00000  Uiso   1.00
C1041  C     0.68938   0.56044   0.98016   0.00000  Uiso   1.00
C1042  C     0.98411   0.45518   0.51855   0.00000  Uiso   1.00
C1043  C     0.66885   0.54414   0.93043   0.00000  Uiso   1.00
C1044  C     0.66878   0.46655   0.56904   0.00000  Uiso   1.00
C1045  C     0.74969   0.49394   0.91048   0.00000  Uiso   1.00
C1046  C     0.91731   0.50957   0.59023   0.00000  Uiso   1.00
C1047  C     0.77292   0.51210   0.95938   0.00000  Uiso   1.00
C1048  C     0.98614   0.40222   0.74980   0.00000  Uiso   1.00
C1049  C     0.89869   0.49989   0.53985   0.00000  Uiso   1.00
C1050  C     0.74139   0.54533   0.99468   0.00000  Uiso   1.00
C1051  C     0.93226   0.47055   0.50387   0.00000  Uiso   1.00
C1052  C     0.82672   0.49886   0.97378   0.00000  Uiso   1.00
C1053  C     0.84652   0.51622   0.52474   0.00000  Uiso   1.00
C1054  C     0.73454   0.34511   0.79235   0.00000  Uiso   1.00
C1055  C     0.93189   0.65485   0.70724   0.00000  Uiso   1.00
C1056  C     0.81899   0.44262   0.69054   0.00000  Uiso   1.00
C1057  C     0.77136   0.41575   0.66257   0.00000  Uiso   1.00
C1058  C     0.77117   0.38066   0.61531   0.00000  Uiso   1.00
C1059  C     0.81379   0.54978   0.55874   0.00000  Uiso   1.00
C1060  C     0.81971   0.36774   0.59336   0.00000  Uiso   1.00
C1061  C     0.86790   0.38704   0.62064   0.00000  Uiso   1.00
C1062  C     0.86692   0.42124   0.66832   0.00000  Uiso   1.00
C1063  C     0.84762   0.55823   0.80889   0.00000  Uiso   1.00
C1064  C     0.89524   0.58582   0.83636   0.00000  Uiso   1.00
C1065  C     0.89529   0.62370   0.88202   0.00000  Uiso   1.00
C1066  C     0.84680   0.63778   0.90353   0.00000  Uiso   1.00
C1067  C     0.79868   0.61631   0.87743   0.00000  Uiso   1.00
C1068  C     0.79963   0.57980   0.83096   0.00000  Uiso   1.00
C1069  C     0.86193   0.47002   0.93884   0.00000  Uiso   1.00
C1070  C     0.76230   0.56377   0.54388   0.00000  Uiso   1.00
C1071  C     0.91363   0.45650   0.95373   0.00000  Uiso   1.00
C1072  C     0.68708   0.65329   0.75786   0.00000  Uiso   1.00
C1073  C     0.97950   0.34659   0.74166   0.00000  Uiso   1.00
C1074  C     0.68753   0.50435   0.84117   0.00000  Uiso   1.00
H1075  H     0.73880   0.58959   0.57116   0.00000  Uiso   1.00
H1076  H     0.85161   0.45805   0.89921   0.00000  Uiso   1.00
H1077  H     0.77539   0.66424   0.78570   0.00000  Uiso   1.00
H1078  H     0.89128   0.33653   0.71341   0.00000  Uiso   1.00
H1079  H     0.73224   0.41784   0.67526   0.00000  Uiso   1.00
H1080  H     0.73290   0.36289   0.59609   0.00000  Uiso   1.00
H1081  H     0.82008   0.34074   0.55682   0.00000  Uiso   1.00
H1082  H     0.90659   0.37403   0.60567   0.00000  Uiso   1.00
H1083  H     0.90528   0.42548   0.68490   0.00000  Uiso   1.00
H1084  H     0.93466   0.58201   0.82465   0.00000  Uiso   1.00
H1085  H     0.93350   0.64250   0.90051   0.00000  Uiso   1.00
H1086  H     0.93910   0.43445   0.92570   0.00000  Uiso   1.00
H1087  H     0.84641   0.33351   0.93890   0.00000  Uiso   1.00
H1088  H     0.75995   0.62949   0.89222   0.00000  Uiso   1.00
H1089  H     0.76101   0.57416   0.81514   0.00000  Uiso   1.00
H1090  H     0.89149   0.52808   0.61903   0.00000  Uiso   1.00
H1091  H     0.77070   0.46709   0.88259   0.00000  Uiso   1.00
H1092  H     0.70818   0.45342   0.57976   0.00000  Uiso   1.00
H1093  H     0.96329   0.55794   0.91941   0.00000  Uiso   1.00
H1094  H     0.99848   0.58582   0.50708   0.00000  Uiso   1.00
H1095  H     0.67703   0.43366   0.99097   0.00000  Uiso   1.00
H1096  H     0.82728   0.56763   0.59706   0.00000  Uiso   1.00
N1097  N     0.81362   0.48550   0.73739   0.00000  Uiso   1.00
N1098  N     0.85305   0.51450   0.76260   0.00000  Uiso   1.00
O1099  O     0.96386   0.57964   0.75309   0.00000  Uiso   1.00
O1100  O     0.93834   0.61915   0.67054   0.00000  Uiso   1.00
O1101  O     0.70281   0.42036   0.74690   0.00000  Uiso   1.00
O1102  O     0.72488   0.57035   0.74501   0.00000  Uiso   1.00
O1103  O     0.94178   0.42965   0.75498   0.00000  Uiso   1.00
O1104  O     0.96995   0.50730   0.82247   0.00000  Uiso   1.00
O1105  O     0.69672   0.49270   0.67753   0.00000  Uiso   1.00
O1106  O     0.73098   0.49801   0.81439   0.00000  Uiso   1.00
O1107  O     0.93569   0.50199   0.68561   0.00000  Uiso   1.00
O1108  O     0.72768   0.37995   0.82961   0.00000  Uiso   1.00
Zn1109 Zn    0.93700   0.50621   0.75539   0.00000  Uiso   1.00
Zn1110 Zn    0.72967   0.49379   0.74460   0.00000  Uiso   1.00
C1111  C     0.01382   0.93107   0.75001   0.00000  Uiso   1.00
C1112  C     0.31252   0.82931   0.65884   0.00000  Uiso   1.00
C1113  C     0.03309   0.84527   0.89515   0.00000  Uiso   1.00
C1114  C     0.30110   0.82545   0.60520   0.00000  Uiso   1.00
C1115  C     0.02272   0.89377   0.98016   0.00000  Uiso   1.00
C1116  C     0.31744   0.78851   0.51855   0.00000  Uiso   1.00
C1117  C     0.00219   0.87748   0.93043   0.00000  Uiso   1.00
C1118  C     0.00211   0.79988   0.56904   0.00000  Uiso   1.00
C1119  C     0.08302   0.82727   0.91048   0.00000  Uiso   1.00
C1120  C     0.25065   0.84291   0.59023   0.00000  Uiso   1.00
C1121  C     0.10626   0.84543   0.95938   0.00000  Uiso   1.00
C1122  C     0.31947   0.73555   0.74980   0.00000  Uiso   1.00
C1123  C     0.23202   0.83322   0.53985   0.00000  Uiso   1.00
C1124  C     0.07473   0.87867   0.99468   0.00000  Uiso   1.00
C1125  C     0.26559   0.80388   0.50387   0.00000  Uiso   1.00
C1126  C     0.16006   0.83220   0.97378   0.00000  Uiso   1.00
C1127  C     0.17985   0.84955   0.52474   0.00000  Uiso   1.00
C1128  C     0.06787   0.67844   0.79235   0.00000  Uiso   1.00
C1129  C     0.26522   0.98818   0.70724   0.00000  Uiso   1.00
C1130  C     0.15232   0.77595   0.69054   0.00000  Uiso   1.00
C1131  C     0.10469   0.74908   0.66257   0.00000  Uiso   1.00
C1132  C     0.10451   0.71400   0.61531   0.00000  Uiso   1.00
C1133  C     0.14712   0.88312   0.55874   0.00000  Uiso   1.00
C1134  C     0.15304   0.70108   0.59336   0.00000  Uiso   1.00
C1135  C     0.20123   0.72037   0.62064   0.00000  Uiso   1.00
C1136  C     0.20025   0.75457   0.66832   0.00000  Uiso   1.00
C1137  C     0.18095   0.89156   0.80889   0.00000  Uiso   1.00
C1138  C     0.22857   0.91915   0.83636   0.00000  Uiso   1.00
C1139  C     0.22862   0.95704   0.88202   0.00000  Uiso   1.00
C1140  C     0.18014   0.97111   0.90353   0.00000  Uiso   1.00
C1141  C     0.13201   0.94964   0.87743   0.00000  Uiso   1.00
C1142  C     0.13297   0.91313   0.83096   0.00000  Uiso   1.00
C1143  C     0.19526   0.80336   0.93884   0.00000  Uiso   1.00
C1144  C     0.09563   0.89710   0.54388   0.00000  Uiso   1.00
C1145  C     0.24697   0.78983   0.95373   0.00000  Uiso   1.00
C1146  C     0.02041   0.98663   0.75786   0.00000  Uiso   1.00
C1147  C     0.31284   0.67993   0.74166   0.00000  Uiso   1.00
C1148  C     0.02086   0.83769   0.84117   0.00000  Uiso   1.00
H1149  H     0.07213   0.92292   0.57116   0.00000  Uiso   1.00
H1150  H     0.18495   0.79138   0.89921   0.00000  Uiso   1.00
H1151  H     0.10872   0.99757   0.78570   0.00000  Uiso   1.00
H1152  H     0.22461   0.66986   0.71341   0.00000  Uiso   1.00
H1153  H     0.06557   0.75117   0.67526   0.00000  Uiso   1.00
H1154  H     0.06623   0.69622   0.59609   0.00000  Uiso   1.00
H1155  H     0.15342   0.67407   0.55682   0.00000  Uiso   1.00
H1156  H     0.23993   0.70737   0.60567   0.00000  Uiso   1.00
H1157  H     0.23861   0.75881   0.68490   0.00000  Uiso   1.00
H1158  H     0.26799   0.91535   0.82465   0.00000  Uiso   1.00
H1159  H     0.26683   0.97583   0.90051   0.00000  Uiso   1.00
H1160  H     0.27244   0.76778   0.92570   0.00000  Uiso   1.00
H1161  H     0.17974   0.66685   0.93890   0.00000  Uiso   1.00
H1162  H     0.09328   0.96283   0.89222   0.00000  Uiso   1.00
H1163  H     0.09434   0.90750   0.81514   0.00000  Uiso   1.00
H1164  H     0.22482   0.86141   0.61903   0.00000  Uiso   1.00
H1165  H     0.10403   0.80043   0.88259   0.00000  Uiso   1.00
H1166  H     0.04151   0.78675   0.57976   0.00000  Uiso   1.00
H1167  H     0.29663   0.89128   0.91941   0.00000  Uiso   1.00
H1168  H     0.33182   0.91915   0.50708   0.00000  Uiso   1.00
H1169  H     0.01036   0.76699   0.99097   0.00000  Uiso   1.00
H1170  H     0.16061   0.90096   0.59706   0.00000  Uiso   1.00
N1171  N     0.14695   0.81883   0.73739   0.00000  Uiso   1.00
N1172  N     0.18638   0.84784   0.76260   0.00000  Uiso   1.00
O1173  O     0.29719   0.91298   0.75309   0.00000  Uiso   1.00
O1174  O     0.27167   0.95248   0.67054   0.00000  Uiso   1.00
O1175  O     0.03614   0.75369   0.74690   0.00000  Uiso   1.00
O1176  O     0.05822   0.90368   0.74501   0.00000  Uiso   1.00
O1177  O     0.27512   0.76298   0.75498   0.00000  Uiso   1.00
O1178  O     0.30328   0.84063   0.82247   0.00000  Uiso   1.00
O1179  O     0.03005   0.82603   0.67753   0.00000  Uiso   1.00
O1180  O     0.06431   0.83134   0.81439   0.00000  Uiso   1.00
O1181  O     0.26902   0.83533   0.68561   0.00000  Uiso   1.00
O1182  O     0.06101   0.71328   0.82961   0.00000  Uiso   1.00
Zn1183 Zn    0.27033   0.83954   0.75539   0.00000  Uiso   1.00
Zn1184 Zn    0.06300   0.82713   0.74460   0.00000  Uiso   1.00
C1185  C     0.34715   0.93107   0.75001   0.00000  Uiso   1.00
C1186  C     0.64585   0.82931   0.65884   0.00000  Uiso   1.00
C1187  C     0.36642   0.84527   0.89515   0.00000  Uiso   1.00
C1188  C     0.63443   0.82545   0.60520   0.00000  Uiso   1.00
C1189  C     0.35605   0.89377   0.98016   0.00000  Uiso   1.00
C1190  C     0.65078   0.78851   0.51855   0.00000  Uiso   1.00
C1191  C     0.33552   0.87748   0.93043   0.00000  Uiso   1.00
C1192  C     0.33545   0.79988   0.56904   0.00000  Uiso   1.00
C1193  C     0.41635   0.82727   0.91048   0.00000  Uiso   1.00
C1194  C     0.58398   0.84291   0.59023   0.00000  Uiso   1.00
C1195  C     0.43959   0.84543   0.95938   0.00000  Uiso   1.00
C1196  C     0.65281   0.73555   0.74980   0.00000  Uiso   1.00
C1197  C     0.56535   0.83322   0.53985   0.00000  Uiso   1.00
C1198  C     0.40806   0.87867   0.99468   0.00000  Uiso   1.00
C1199  C     0.59893   0.80388   0.50387   0.00000  Uiso   1.00
C1200  C     0.49339   0.83220   0.97378   0.00000  Uiso   1.00
C1201  C     0.51319   0.84955   0.52474   0.00000  Uiso   1.00
C1202  C     0.40121   0.67844   0.79235   0.00000  Uiso   1.00
C1203  C     0.59856   0.98818   0.70724   0.00000  Uiso   1.00
C1204  C     0.48566   0.77595   0.69054   0.00000  Uiso   1.00
C1205  C     0.43803   0.74908   0.66257   0.00000  Uiso   1.00
C1206  C     0.43784   0.71400   0.61531   0.00000  Uiso   1.00
C1207  C     0.48046   0.88312   0.55874   0.00000  Uiso   1.00
C1208  C     0.48638   0.70108   0.59336   0.00000  Uiso   1.00
C1209  C     0.53457   0.72037   0.62064   0.00000  Uiso   1.00
C1210  C     0.53358   0.75457   0.66832   0.00000  Uiso   1.00
C1211  C     0.51428   0.89156   0.80889   0.00000  Uiso   1.00
C1212  C     0.56191   0.91915   0.83636   0.00000  Uiso   1.00
C1213  C     0.56196   0.95704   0.88202   0.00000  Uiso   1.00
C1214  C     0.51347   0.97111   0.90353   0.00000  Uiso   1.00
C1215  C     0.46534   0.94964   0.87743   0.00000  Uiso   1.00
C1216  C     0.46630   0.91313   0.83096   0.00000  Uiso   1.00
C1217  C     0.52859   0.80336   0.93884   0.00000  Uiso   1.00
C1218  C     0.42896   0.89710   0.54388   0.00000  Uiso   1.00
C1219  C     0.58030   0.78983   0.95373   0.00000  Uiso   1.00
C1220  C     0.35374   0.98663   0.75786   0.00000  Uiso   1.00
C1221  C     0.64617   0.67993   0.74166   0.00000  Uiso   1.00
C1222  C     0.35420   0.83769   0.84117   0.00000  Uiso   1.00
H1223  H     0.40546   0.92292   0.57116   0.00000  Uiso   1.00
H1224  H     0.51828   0.79138   0.89921   0.00000  Uiso   1.00
H1225  H     0.44206   0.99757   0.78570   0.00000  Uiso   1.00
H1226  H     0.55794   0.66986   0.71341   0.00000  Uiso   1.00
H1227  H     0.39890   0.75117   0.67526   0.00000  Uiso   1.00
H1228  H     0.39957   0.69622   0.59609   0.00000  Uiso   1.00
H1229  H     0.48675   0.67407   0.55682   0.00000  Uiso   1.00
H1230  H     0.57326   0.70737   0.60567   0.00000  Uiso   1.00
H1231  H     0.57195   0.75881   0.68490   0.00000  Uiso   1.00
H1232  H     0.60132   0.91535   0.82465   0.00000  Uiso   1.00
H1233  H     0.60017   0.97583   0.90051   0.00000  Uiso   1.00
H1234  H     0.60577   0.76778   0.92570   0.00000  Uiso   1.00
H1235  H     0.51308   0.66685   0.93890   0.00000  Uiso   1.00
H1236  H     0.42662   0.96283   0.89222   0.00000  Uiso   1.00
H1237  H     0.42768   0.90750   0.81514   0.00000  Uiso   1.00
H1238  H     0.55816   0.86141   0.61903   0.00000  Uiso   1.00
H1239  H     0.43737   0.80043   0.88259   0.00000  Uiso   1.00
H1240  H     0.37485   0.78675   0.57976   0.00000  Uiso   1.00
H1241  H     0.62996   0.89128   0.91941   0.00000  Uiso   1.00
H1242  H     0.66515   0.91915   0.50708   0.00000  Uiso   1.00
H1243  H     0.34370   0.76699   0.99097   0.00000  Uiso   1.00
H1244  H     0.49394   0.90096   0.59706   0.00000  Uiso   1.00
N1245  N     0.48029   0.81883   0.73739   0.00000  Uiso   1.00
N1246  N     0.51971   0.84784   0.76260   0.00000  Uiso   1.00
O1247  O     0.63052   0.91298   0.75309   0.00000  Uiso   1.00
O1248  O     0.60501   0.95248   0.67054   0.00000  Uiso   1.00
O1249  O     0.36948   0.75369   0.74690   0.00000  Uiso   1.00
O1250  O     0.39155   0.90368   0.74501   0.00000  Uiso   1.00
O1251  O     0.60845   0.76298   0.75498   0.00000  Uiso   1.00
O1252  O     0.63662   0.84063   0.82247   0.00000  Uiso   1.00
O1253  O     0.36338   0.82603   0.67753   0.00000  Uiso   1.00
O1254  O     0.39764   0.83134   0.81439   0.00000  Uiso   1.00
O1255  O     0.60236   0.83533   0.68561   0.00000  Uiso   1.00
O1256  O     0.39435   0.71328   0.82961   0.00000  Uiso   1.00
Zn1257 Zn    0.60366   0.83954   0.75539   0.00000  Uiso   1.00
Zn1258 Zn    0.39634   0.82713   0.74460   0.00000  Uiso   1.00
C1259  C     0.68048   0.93107   0.75001   0.00000  Uiso   1.00
C1260  C     0.97918   0.82931   0.65884   0.00000  Uiso   1.00
C1261  C     0.69975   0.84527   0.89515   0.00000  Uiso   1.00
C1262  C     0.96777   0.82545   0.60520   0.00000  Uiso   1.00
C1263  C     0.68938   0.89377   0.98016   0.00000  Uiso   1.00
C1264  C     0.98411   0.78851   0.51855   0.00000  Uiso   1.00
C1265  C     0.66885   0.87748   0.93043   0.00000  Uiso   1.00
C1266  C     0.66878   0.79988   0.56904   0.00000  Uiso   1.00
C1267  C     0.74969   0.82727   0.91048   0.00000  Uiso   1.00
C1268  C     0.91731   0.84291   0.59023   0.00000  Uiso   1.00
C1269  C     0.77292   0.84543   0.95938   0.00000  Uiso   1.00
C1270  C     0.98614   0.73555   0.74980   0.00000  Uiso   1.00
C1271  C     0.89869   0.83322   0.53985   0.00000  Uiso   1.00
C1272  C     0.74139   0.87867   0.99468   0.00000  Uiso   1.00
C1273  C     0.93226   0.80388   0.50387   0.00000  Uiso   1.00
C1274  C     0.82672   0.83220   0.97378   0.00000  Uiso   1.00
C1275  C     0.84652   0.84955   0.52474   0.00000  Uiso   1.00
C1276  C     0.73454   0.67844   0.79235   0.00000  Uiso   1.00
C1277  C     0.93189   0.98818   0.70724   0.00000  Uiso   1.00
C1278  C     0.81899   0.77595   0.69054   0.00000  Uiso   1.00
C1279  C     0.77136   0.74908   0.66257   0.00000  Uiso   1.00
C1280  C     0.77117   0.71400   0.61531   0.00000  Uiso   1.00
C1281  C     0.81379   0.88312   0.55874   0.00000  Uiso   1.00
C1282  C     0.81971   0.70108   0.59336   0.00000  Uiso   1.00
C1283  C     0.86790   0.72037   0.62064   0.00000  Uiso   1.00
C1284  C     0.86692   0.75457   0.66832   0.00000  Uiso   1.00
C1285  C     0.84762   0.89156   0.80889   0.00000  Uiso   1.00
C1286  C     0.89524   0.91915   0.83636   0.00000  Uiso   1.00
C1287  C     0.89529   0.95704   0.88202   0.00000  Uiso   1.00
C1288  C     0.84680   0.97111   0.90353   0.00000  Uiso   1.00
C1289  C     0.79868   0.94964   0.87743   0.00000  Uiso   1.00
C1290  C     0.79963   0.91313   0.83096   0.00000  Uiso   1.00
C1291  C     0.86193   0.80336   0.93884   0.00000  Uiso   1.00
C1292  C     0.76230   0.89710   0.54388   0.00000  Uiso   1.00
C1293  C     0.91363   0.78983   0.95373   0.00000  Uiso   1.00
C1294  C     0.68708   0.98663   0.75786   0.00000  Uiso   1.00
C1295  C     0.97950   0.67993   0.74166   0.00000  Uiso   1.00
C1296  C     0.68753   0.83769   0.84117   0.00000  Uiso   1.00
H1297  H     0.73880   0.92292   0.57116   0.00000  Uiso   1.00
H1298  H     0.85161   0.79138   0.89921   0.00000  Uiso   1.00
H1299  H     0.77539   0.99757   0.78570   0.00000  Uiso   1.00
H1300  H     0.89128   0.66986   0.71341   0.00000  Uiso   1.00
H1301  H     0.73224   0.75117   0.67526   0.00000  Uiso   1.00
H1302  H     0.73290   0.69622   0.59609   0.00000  Uiso   1.00
H1303  H     0.82008   0.67407   0.55682   0.00000  Uiso   1.00
H1304  H     0.90659   0.70737   0.60567   0.00000  Uiso   1.00
H1305  H     0.90528   0.75881   0.68490   0.00000  Uiso   1.00
H1306  H     0.93466   0.91535   0.82465   0.00000  Uiso   1.00
H1307  H     0.93350   0.97583   0.90051   0.00000  Uiso   1.00
H1308  H     0.93910   0.76778   0.92570   0.00000  Uiso   1.00
H1309  H     0.84641   0.66685   0.93890   0.00000  Uiso   1.00
H1310  H     0.75995   0.96283   0.89222   0.00000  Uiso   1.00
H1311  H     0.76101   0.90750   0.81514   0.00000  Uiso   1.00
H1312  H     0.89149   0.86141   0.61903   0.00000  Uiso   1.00
H1313  H     0.77070   0.80043   0.88259   0.00000  Uiso   1.00
H1314  H     0.70818   0.78675   0.57976   0.00000  Uiso   1.00
H1315  H     0.96329   0.89128   0.91941   0.00000  Uiso   1.00
H1316  H     0.99848   0.91915   0.50708   0.00000  Uiso   1.00
H1317  H     0.67703   0.76699   0.99097   0.00000  Uiso   1.00
H1318  H     0.82728   0.90096   0.59706   0.00000  Uiso   1.00
N1319  N     0.81362   0.81883   0.73739   0.00000  Uiso   1.00
N1320  N     0.85305   0.84784   0.76260   0.00000  Uiso   1.00
O1321  O     0.96386   0.91298   0.75309   0.00000  Uiso   1.00
O1322  O     0.93834   0.95248   0.67054   0.00000  Uiso   1.00
O1323  O     0.70281   0.75369   0.74690   0.00000  Uiso   1.00
O1324  O     0.72488   0.90368   0.74501   0.00000  Uiso   1.00
O1325  O     0.94178   0.76298   0.75498   0.00000  Uiso   1.00
O1326  O     0.96995   0.84063   0.82247   0.00000  Uiso   1.00
O1327  O     0.69672   0.82603   0.67753   0.00000  Uiso   1.00
O1328  O     0.73098   0.83134   0.81439   0.00000  Uiso   1.00
O1329  O     0.93569   0.83533   0.68561   0.00000  Uiso   1.00
O1330  O     0.72768   0.71328   0.82961   0.00000  Uiso   1.00
Zn1331 Zn    0.93700   0.83954   0.75539   0.00000  Uiso   1.00
Zn1332 Zn    0.72967   0.82713   0.74460   0.00000  Uiso   1.00
loop_
_geom_bond_atom_site_label_1
_geom_bond_atom_site_label_2
_geom_bond_distance
_geom_bond_site_symmetry_2
_ccdc_geom_bond_type
C1     O66     1.311   .     A
C1     C36     1.414   .     S
C1     O211    1.312   1_455 S
C2     C4      1.469   .     S
C2     O71     1.321   .     A
C2     O143    1.333   .     S
C3     C9      1.399   .     A
C3     C7      1.395   .     A
C3     C38     1.467   .     S
C4     C10     1.401   .     A
C4     C82     1.396   .     S
C5     C14     1.407   .     A
C5     C7      1.395   .     A
C5     H872    1.084   1_455 S
C6     C15     1.407   .     A
C6     C82     1.396   .     S
C6     H799    1.084   1_554 S
C7     H205    1.079   1_455 S
C8     H56     1.081   .     S
C8     C152    1.396   1_455 S
C8     C154    1.396   1_455 S
C9     C11     1.400   .     A
C9     H55     1.073   .     S
C10    H54     1.073   .     S
C10    C13     1.399   .     A
C11    C16     1.428   .     A
C11    C14     1.417   .     A
C12    C37     1.415   .     S
C12    O67     1.311   .     A
C12    O139    1.313   .     S
C13    C17     1.427   .     A
C13    C15     1.416   .     A
C14    C700    1.389   .     S
C15    C701    1.390   1_554 S
C16    C33     1.420   .     A
C16    C683    1.422   .     S
C17    C23     1.419   .     A
C17    C682    1.422   1_554 S
C18    O72     1.220   .     D
C18    C480    1.489   1_545 S
C18    H485    1.085   1_545 S
C19    O64     1.220   .     D
C19    C259    1.490   .     S
C19    H264    1.085   .     S
C20    C21     1.427   .     A
C20    C26     1.419   .     A
C20    N61     1.506   .     S
C21    C22     1.401   .     A
C21    H43     1.036   .     S
C22    C24     1.376   .     A
C22    H44     1.084   .     S
C23    C34     1.387   .     A
C23    H60     1.076   .     S
C24    H45     1.083   .     S
C24    C25     1.376   .     A
C25    H46     1.084   .     S
C25    C26     1.402   .     A
C26    H47     1.012   .     S
C27    N62     1.508   .     S
C27    C32     1.420   .     A
C27    C28     1.428   .     A
C28    H48     1.034   .     S
C28    C29     1.401   .     A
C29    C30     1.375   .     A
C29    H49     1.084   .     S
C30    C31     1.376   .     A
C30    H273    1.083   .     S
C31    C32     1.402   .     A
C31    H52     1.084   .     S
C32    H53     1.010   .     S
C33    H40     1.076   .     S
C33    C35     1.388   .     A
C34    H39     1.084   .     S
C34    C680    1.389   1_554 S
C35    H50     1.085   .     S
C35    C681    1.390   .     S
C36    C240    1.489   .     S
C36    C407    1.348   1_455 S
C37    C554    1.348   1_545 S
C37    C463    1.490   1_545 S
C38    O70     1.320   .     A
C38    O216    1.332   1_455 S
H41    C240    1.085   .     S
H42    C463    1.085   1_545 S
H51    C474    1.083   1_545 S
H57    C81     1.079   .     S
H58    C745    1.084   1_554 S
H59    C820    1.084   1_455 S
N61    Zn74    2.086   .     S
N61    N62     1.272   .     D
N62    Zn73    2.086   .     S
O63    Zn73    2.022   .     S
O63    C75     1.312   .     S
O65    Zn74    2.022   .     S
O65    C160    1.313   1_455 S
O66    Zn74    1.998   .     S
O67    Zn73    1.998   .     S
O68    Zn73    1.970   .     S
O68    C112    1.332   .     S
O69    Zn74    1.970   .     S
O69    C150    1.333   1_455 S
O70    Zn74    1.901   .     S
O71    Zn73    1.901   .     S
C75    O140    1.311   .     A
C75    C110    1.414   .     S
C76    C78     1.469   .     S
C76    O145    1.321   .     A
C76    O217    1.333   .     S
C77    C83     1.399   .     A
C77    C81     1.395   .     A
C77    C112    1.467   .     S
C78    C84     1.401   .     A
C78    C156    1.396   .     S
C79    C88     1.407   .     A
C79    C81     1.395   .     A
C79    H724    1.084   .     S
C80    C89     1.407   .     A
C80    C156    1.396   .     S
C80    H873    1.084   1_554 S
C82    H130    1.081   .     S
C83    C85     1.400   .     A
C83    H129    1.073   .     S
C84    H128    1.073   .     S
C84    C87     1.399   .     A
C85    C90     1.428   .     A
C85    C88     1.417   .     A
C86    C111    1.415   .     S
C86    O141    1.311   .     A
C86    O213    1.313   .     S
C87    C91     1.427   .     A
C87    C89     1.416   .     A
C88    C774    1.389   .     S
C89    C775    1.390   1_554 S
C90    C107    1.420   .     A
C90    C757    1.422   .     S
C91    C97     1.419   .     A
C91    C756    1.422   1_554 S
C92    O146    1.220   .     D
C92    C554    1.489   1_545 S
C92    H559    1.085   1_545 S
C93    O138    1.220   .     D
C93    C333    1.490   .     S
C93    H338    1.085   .     S
C94    C95     1.427   .     A
C94    C100    1.419   .     A
C94    N135    1.506   .     S
C95    C96     1.401   .     A
C95    H117    1.036   .     S
C96    C98     1.376   .     A
C96    H118    1.084   .     S
C97    C108    1.387   .     A
C97    H134    1.076   .     S
C98    H119    1.083   .     S
C98    C99     1.376   .     A
C99    H120    1.084   .     S
C99    C100    1.402   .     A
C100   H121    1.012   .     S
C101   N136    1.508   .     S
C101   C106    1.420   .     A
C101   C102    1.428   .     A
C102   H122    1.034   .     S
C102   C103    1.401   .     A
C103   C104    1.375   .     A
C103   H123    1.084   .     S
C104   C105    1.376   .     A
C104   H347    1.083   .     S
C105   C106    1.402   .     A
C105   H126    1.084   .     S
C106   H127    1.010   .     S
C107   H114    1.076   .     S
C107   C109    1.388   .     A
C108   H113    1.084   .     S
C108   C754    1.389   1_554 S
C109   H124    1.085   .     S
C109   C755    1.390   .     S
C110   C314    1.489   .     S
C110   C259    1.348   .     S
C111   C628    1.348   1_545 S
C111   C537    1.490   1_545 S
C112   O144    1.320   .     A
H115   C314    1.085   .     S
H116   C537    1.085   1_545 S
H125   C548    1.083   1_545 S
H131   C155    1.079   .     S
H132   C819    1.084   1_554 S
H133   C672    1.084   .     S
N135   Zn148   2.086   .     S
N135   N136    1.272   .     D
N136   Zn147   2.086   .     S
O137   Zn147   2.022   .     S
O137   C149    1.312   .     S
O139   Zn148   2.022   .     S
O140   Zn148   1.998   .     S
O141   Zn147   1.998   .     S
O142   Zn147   1.970   .     S
O142   C186    1.332   .     S
O143   Zn148   1.970   .     S
O144   Zn148   1.901   .     S
O145   Zn147   1.901   .     S
C149   O214    1.311   .     A
C149   C184    1.414   .     S
C150   C152    1.469   .     S
C150   O219    1.321   .     A
C150   O69     1.333   1_655 S
C151   C157    1.399   .     A
C151   C155    1.395   .     A
C151   C186    1.467   .     S
C152   C158    1.401   .     A
C152   C8      1.396   1_655 S
C153   C162    1.407   .     A
C153   C155    1.395   .     A
C153   H798    1.084   .     S
C154   C163    1.407   .     A
C154   C8      1.396   1_655 S
C154   H725    1.084   1_654 S
C156   H204    1.081   .     S
C157   C159    1.400   .     A
C157   H203    1.073   .     S
C158   H202    1.073   .     S
C158   C161    1.399   .     A
C159   C164    1.428   .     A
C159   C162    1.417   .     A
C160   C185    1.415   .     S
C160   O215    1.311   .     A
C160   O65     1.313   1_655 S
C161   C165    1.427   .     A
C161   C163    1.416   .     A
C162   C848    1.389   .     S
C163   C849    1.390   1_554 S
C164   C181    1.420   .     A
C164   C831    1.422   .     S
C165   C171    1.419   .     A
C165   C830    1.422   1_554 S
C166   O220    1.220   .     D
C166   C628    1.489   1_545 S
C166   H633    1.085   1_545 S
C167   O212    1.220   .     D
C167   C407    1.490   .     S
C167   H412    1.085   .     S
C168   C169    1.427   .     A
C168   C174    1.419   .     A
C168   N209    1.506   .     S
C169   C170    1.401   .     A
C169   H191    1.036   .     S
C170   C172    1.376   .     A
C170   H192    1.084   .     S
C171   C182    1.387   .     A
C171   H208    1.076   .     S
C172   H193    1.083   .     S
C172   C173    1.376   .     A
C173   H194    1.084   .     S
C173   C174    1.402   .     A
C174   H195    1.012   .     S
C175   N210    1.508   .     S
C175   C180    1.420   .     A
C175   C176    1.428   .     A
C176   H196    1.034   .     S
C176   C177    1.401   .     A
C177   C178    1.375   .     A
C177   H197    1.084   .     S
C178   C179    1.376   .     A
C178   H421    1.083   .     S
C179   C180    1.402   .     A
C179   H200    1.084   .     S
C180   H201    1.010   .     S
C181   H188    1.076   .     S
C181   C183    1.388   .     A
C182   H187    1.084   .     S
C182   C828    1.389   1_554 S
C183   H198    1.085   .     S
C183   C829    1.390   .     S
C184   C388    1.489   .     S
C184   C333    1.348   .     S
C185   C480    1.348   1_645 S
C185   C611    1.490   1_545 S
C186   O218    1.320   .     A
H189   C388    1.085   .     S
H190   C611    1.085   1_545 S
H199   C622    1.083   1_545 S
H205   C7      1.079   1_655 S
H206   C671    1.084   1_654 S
H207   C746    1.084   .     S
N209   Zn222   2.086   .     S
N209   N210    1.272   .     D
N210   Zn221   2.086   .     S
O211   Zn221   2.022   .     S
O211   C1      1.312   1_655 S
O213   Zn222   2.022   .     S
O214   Zn222   1.998   .     S
O215   Zn221   1.998   .     S
O216   Zn221   1.970   .     S
O216   C38     1.332   1_655 S
O217   Zn222   1.970   .     S
O218   Zn222   1.901   .     S
O219   Zn221   1.901   .     S
C223   O288    1.311   .     A
C223   C258    1.414   .     S
C223   O433    1.312   1_455 S
C224   C226    1.469   .     S
C224   O293    1.321   .     A
C224   O365    1.333   .     S
C225   C231    1.399   .     A
C225   C229    1.395   .     A
C225   C260    1.467   .     S
C226   C232    1.401   .     A
C226   C304    1.396   .     S
C227   C236    1.407   .     A
C227   C229    1.395   .     A
C227   H1094   1.084   1_455 S
C228   C237    1.407   .     A
C228   C304    1.396   .     S
C228   H1021   1.084   1_554 S
C229   H427    1.079   1_455 S
C230   H278    1.081   .     S
C230   C374    1.396   1_455 S
C230   C376    1.396   1_455 S
C231   C233    1.400   .     A
C231   H277    1.073   .     S
C232   H276    1.073   .     S
C232   C235    1.399   .     A
C233   C238    1.428   .     A
C233   C236    1.417   .     A
C234   C259    1.415   .     S
C234   O289    1.311   .     A
C234   O361    1.313   .     S
C235   C239    1.427   .     A
C235   C237    1.416   .     A
C236   C922    1.389   .     S
C237   C923    1.390   1_554 S
C238   C255    1.420   .     A
C238   C905    1.422   .     S
C239   C245    1.419   .     A
C239   C904    1.422   1_554 S
C240   O294    1.220   .     D
C241   O286    1.220   .     D
C241   C481    1.490   .     S
C241   H486    1.085   .     S
C242   C243    1.427   .     A
C242   C248    1.419   .     A
C242   N283    1.506   .     S
C243   C244    1.401   .     A
C243   H265    1.036   .     S
C244   C246    1.376   .     A
C244   H266    1.084   .     S
C245   C256    1.387   .     A
C245   H282    1.076   .     S
C246   H267    1.083   .     S
C246   C247    1.376   .     A
C247   H268    1.084   .     S
C247   C248    1.402   .     A
C248   H269    1.012   .     S
C249   N284    1.508   .     S
C249   C254    1.420   .     A
C249   C250    1.428   .     A
C250   H270    1.034   .     S
C250   C251    1.401   .     A
C251   C252    1.375   .     A
C251   H271    1.084   .     S
C252   C253    1.376   .     A
C252   H495    1.083   .     S
C253   C254    1.402   .     A
C253   H274    1.084   .     S
C254   H275    1.010   .     S
C255   H262    1.076   .     S
C255   C257    1.388   .     A
C256   H261    1.084   .     S
C256   C902    1.389   1_554 S
C257   H272    1.085   .     S
C257   C903    1.390   .     S
C258   C462    1.489   .     S
C258   C629    1.348   1_455 S
C260   O292    1.320   .     A
C260   O438    1.332   1_455 S
H263   C462    1.085   .     S
H279   C303    1.079   .     S
H280   C967    1.084   1_554 S
H281   C1042   1.084   1_455 S
N283   Zn296   2.086   .     S
N283   N284    1.272   .     D
N284   Zn295   2.086   .     S
O285   Zn295   2.022   .     S
O285   C297    1.312   .     S
O287   Zn296   2.022   .     S
O287   C382    1.313   1_455 S
O288   Zn296   1.998   .     S
O289   Zn295   1.998   .     S
O290   Zn295   1.970   .     S
O290   C334    1.332   .     S
O291   Zn296   1.970   .     S
O291   C372    1.333   1_455 S
O292   Zn296   1.901   .     S
O293   Zn295   1.901   .     S
C297   O362    1.311   .     A
C297   C332    1.414   .     S
C298   C300    1.469   .     S
C298   O367    1.321   .     A
C298   O439    1.333   .     S
C299   C305    1.399   .     A
C299   C303    1.395   .     A
C299   C334    1.467   .     S
C300   C306    1.401   .     A
C300   C378    1.396   .     S
C301   C310    1.407   .     A
C301   C303    1.395   .     A
C301   H946    1.084   .     S
C302   C311    1.407   .     A
C302   C378    1.396   .     S
C302   H1095   1.084   1_554 S
C304   H352    1.081   .     S
C305   C307    1.400   .     A
C305   H351    1.073   .     S
C306   H350    1.073   .     S
C306   C309    1.399   .     A
C307   C312    1.428   .     A
C307   C310    1.417   .     A
C308   C333    1.415   .     S
C308   O363    1.311   .     A
C308   O435    1.313   .     S
C309   C313    1.427   .     A
C309   C311    1.416   .     A
C310   C996    1.389   .     S
C311   C997    1.390   1_554 S
C312   C329    1.420   .     A
C312   C979    1.422   .     S
C313   C319    1.419   .     A
C313   C978    1.422   1_554 S
C314   O368    1.220   .     D
C315   O360    1.220   .     D
C315   C555    1.490   .     S
C315   H560    1.085   .     S
C316   C317    1.427   .     A
C316   C322    1.419   .     A
C316   N357    1.506   .     S
C317   C318    1.401   .     A
C317   H339    1.036   .     S
C318   C320    1.376   .     A
C318   H340    1.084   .     S
C319   C330    1.387   .     A
C319   H356    1.076   .     S
C320   H341    1.083   .     S
C320   C321    1.376   .     A
C321   H342    1.084   .     S
C321   C322    1.402   .     A
C322   H343    1.012   .     S
C323   N358    1.508   .     S
C323   C328    1.420   .     A
C323   C324    1.428   .     A
C324   H344    1.034   .     S
C324   C325    1.401   .     A
C325   C326    1.375   .     A
C325   H345    1.084   .     S
C326   C327    1.376   .     A
C326   H569    1.083   .     S
C327   C328    1.402   .     A
C327   H348    1.084   .     S
C328   H349    1.010   .     S
C329   H336    1.076   .     S
C329   C331    1.388   .     A
C330   H335    1.084   .     S
C330   C976    1.389   1_554 S
C331   H346    1.085   .     S
C331   C977    1.390   .     S
C332   C536    1.489   .     S
C332   C481    1.348   .     S
C334   O366    1.320   .     A
H337   C536    1.085   .     S
H353   C377    1.079   .     S
H354   C1041   1.084   1_554 S
H355   C894    1.084   .     S
N357   Zn370   2.086   .     S
N357   N358    1.272   .     D
N358   Zn369   2.086   .     S
O359   Zn369   2.022   .     S
O359   C371    1.312   .     S
O361   Zn370   2.022   .     S
O362   Zn370   1.998   .     S
O363   Zn369   1.998   .     S
O364   Zn369   1.970   .     S
O364   C408    1.332   .     S
O365   Zn370   1.970   .     S
O366   Zn370   1.901   .     S
O367   Zn369   1.901   .     S
C371   O436    1.311   .     A
C371   C406    1.414   .     S
C372   C374    1.469   .     S
C372   O441    1.321   .     A
C372   O291    1.333   1_655 S
C373   C379    1.399   .     A
C373   C377    1.395   .     A
C373   C408    1.467   .     S
C374   C380    1.401   .     A
C374   C230    1.396   1_655 S
C375   C384    1.407   .     A
C375   C377    1.395   .     A
C375   H1020   1.084   .     S
C376   C385    1.407   .     A
C376   C230    1.396   1_655 S
C376   H947    1.084   1_654 S
C378   H426    1.081   .     S
C379   C381    1.400   .     A
C379   H425    1.073   .     S
C380   H424    1.073   .     S
C380   C383    1.399   .     A
C381   C386    1.428   .     A
C381   C384    1.417   .     A
C382   C407    1.415   .     S
C382   O437    1.311   .     A
C382   O287    1.313   1_655 S
C383   C387    1.427   .     A
C383   C385    1.416   .     A
C384   C1070   1.389   .     S
C385   C1071   1.390   1_554 S
C386   C403    1.420   .     A
C386   C1053   1.422   .     S
C387   C393    1.419   .     A
C387   C1052   1.422   1_554 S
C388   O442    1.220   .     D
C389   O434    1.220   .     D
C389   C629    1.490   .     S
C389   H634    1.085   .     S
C390   C391    1.427   .     A
C390   C396    1.419   .     A
C390   N431    1.506   .     S
C391   C392    1.401   .     A
C391   H413    1.036   .     S
C392   C394    1.376   .     A
C392   H414    1.084   .     S
C393   C404    1.387   .     A
C393   H430    1.076   .     S
C394   H415    1.083   .     S
C394   C395    1.376   .     A
C395   H416    1.084   .     S
C395   C396    1.402   .     A
C396   H417    1.012   .     S
C397   N432    1.508   .     S
C397   C402    1.420   .     A
C397   C398    1.428   .     A
C398   H418    1.034   .     S
C398   C399    1.401   .     A
C399   C400    1.375   .     A
C399   H419    1.084   .     S
C400   C401    1.376   .     A
C400   H643    1.083   .     S
C401   C402    1.402   .     A
C401   H422    1.084   .     S
C402   H423    1.010   .     S
C403   H410    1.076   .     S
C403   C405    1.388   .     A
C404   H409    1.084   .     S
C404   C1050   1.389   1_554 S
C405   H420    1.085   .     S
C405   C1051   1.390   .     S
C406   C610    1.489   .     S
C406   C555    1.348   .     S
C407   C36     1.348   1_655 S
C408   O440    1.320   .     A
H411   C610    1.085   .     S
H427   C229    1.079   1_655 S
H428   C893    1.084   1_654 S
H429   C968    1.084   .     S
N431   Zn444   2.086   .     S
N431   N432    1.272   .     D
N432   Zn443   2.086   .     S
O433   Zn443   2.022   .     S
O433   C223    1.312   1_655 S
O435   Zn444   2.022   .     S
O436   Zn444   1.998   .     S
O437   Zn443   1.998   .     S
O438   Zn443   1.970   .     S
O438   C260    1.332   1_655 S
O439   Zn444   1.970   .     S
O440   Zn444   1.901   .     S
O441   Zn443   1.901   .     S
C445   O510    1.311   .     A
C445   C480    1.414   .     S
C445   O655    1.312   1_455 S
C446   C448    1.469   .     S
C446   O515    1.321   .     A
C446   O587    1.333   .     S
C447   C453    1.399   .     A
C447   C451    1.395   .     A
C447   C482    1.467   .     S
C448   C454    1.401   .     A
C448   C526    1.396   .     S
C449   C458    1.407   .     A
C449   C451    1.395   .     A
C449   H1316   1.084   1_455 S
C450   C459    1.407   .     A
C450   C526    1.396   .     S
C450   H1243   1.084   1_554 S
C451   H649    1.079   1_455 S
C452   H500    1.081   .     S
C452   C596    1.396   1_455 S
C452   C598    1.396   1_455 S
C453   C455    1.400   .     A
C453   H499    1.073   .     S
C454   H498    1.073   .     S
C454   C457    1.399   .     A
C455   C460    1.428   .     A
C455   C458    1.417   .     A
C456   C481    1.415   .     S
C456   O511    1.311   .     A
C456   O583    1.313   .     S
C457   C461    1.427   .     A
C457   C459    1.416   .     A
C458   C1144   1.389   .     S
C459   C1145   1.390   1_554 S
C460   C477    1.420   .     A
C460   C1127   1.422   .     S
C461   C467    1.419   .     A
C461   C1126   1.422   1_554 S
C462   O516    1.220   .     D
C463   O508    1.220   .     D
C463   C37     1.490   1_565 S
C463   H42     1.085   1_565 S
C464   C465    1.427   .     A
C464   C470    1.419   .     A
C464   N505    1.506   .     S
C465   C466    1.401   .     A
C465   H487    1.036   .     S
C466   C468    1.376   .     A
C466   H488    1.084   .     S
C467   C478    1.387   .     A
C467   H504    1.076   .     S
C468   H489    1.083   .     S
C468   C469    1.376   .     A
C469   H490    1.084   .     S
C469   C470    1.402   .     A
C470   H491    1.012   .     S
C471   N506    1.508   .     S
C471   C476    1.420   .     A
C471   C472    1.428   .     A
C472   H492    1.034   .     S
C472   C473    1.401   .     A
C473   C474    1.375   .     A
C473   H493    1.084   .     S
C474   C475    1.376   .     A
C474   H51     1.083   1_565 S
C475   C476    1.402   .     A
C475   H496    1.084   .     S
C476   H497    1.010   .     S
C477   H484    1.076   .     S
C477   C479    1.388   .     A
C478   H483    1.084   .     S
C478   C1124   1.389   1_554 S
C479   H494    1.085   .     S
C479   C1125   1.390   .     S
C480   C18     1.489   1_565 S
C480   C185    1.348   1_465 S
C482   O514    1.320   .     A
C482   O660    1.332   1_455 S
H485   C18     1.085   1_565 S
H501   C525    1.079   .     S
H502   C1189   1.084   1_554 S
H503   C1264   1.084   1_455 S
N505   Zn518   2.086   .     S
N505   N506    1.272   .     D
N506   Zn517   2.086   .     S
O507   Zn517   2.022   .     S
O507   C519    1.312   .     S
O509   Zn518   2.022   .     S
O509   C604    1.313   1_455 S
O510   Zn518   1.998   .     S
O511   Zn517   1.998   .     S
O512   Zn517   1.970   .     S
O512   C556    1.332   .     S
O513   Zn518   1.970   .     S
O513   C594    1.333   1_455 S
O514   Zn518   1.901   .     S
O515   Zn517   1.901   .     S
C519   O584    1.311   .     A
C519   C554    1.414   .     S
C520   C522    1.469   .     S
C520   O589    1.321   .     A
C520   O661    1.333   .     S
C521   C527    1.399   .     A
C521   C525    1.395   .     A
C521   C556    1.467   .     S
C522   C528    1.401   .     A
C522   C600    1.396   .     S
C523   C532    1.407   .     A
C523   C525    1.395   .     A
C523   H1168   1.084   .     S
C524   C533    1.407   .     A
C524   C600    1.396   .     S
C524   H1317   1.084   1_554 S
C526   H574    1.081   .     S
C527   C529    1.400   .     A
C527   H573    1.073   .     S
C528   H572    1.073   .     S
C528   C531    1.399   .     A
C529   C534    1.428   .     A
C529   C532    1.417   .     A
C530   C555    1.415   .     S
C530   O585    1.311   .     A
C530   O657    1.313   .     S
C531   C535    1.427   .     A
C531   C533    1.416   .     A
C532   C1218   1.389   .     S
C533   C1219   1.390   1_554 S
C534   C551    1.420   .     A
C534   C1201   1.422   .     S
C535   C541    1.419   .     A
C535   C1200   1.422   1_554 S
C536   O590    1.220   .     D
C537   O582    1.220   .     D
C537   C111    1.490   1_565 S
C537   H116    1.085   1_565 S
C538   C539    1.427   .     A
C538   C544    1.419   .     A
C538   N579    1.506   .     S
C539   C540    1.401   .     A
C539   H561    1.036   .     S
C540   C542    1.376   .     A
C540   H562    1.084   .     S
C541   C552    1.387   .     A
C541   H578    1.076   .     S
C542   H563    1.083   .     S
C542   C543    1.376   .     A
C543   H564    1.084   .     S
C543   C544    1.402   .     A
C544   H565    1.012   .     S
C545   N580    1.508   .     S
C545   C550    1.420   .     A
C545   C546    1.428   .     A
C546   H566    1.034   .     S
C546   C547    1.401   .     A
C547   C548    1.375   .     A
C547   H567    1.084   .     S
C548   C549    1.376   .     A
C548   H125    1.083   1_565 S
C549   C550    1.402   .     A
C549   H570    1.084   .     S
C550   H571    1.010   .     S
C551   H558    1.076   .     S
C551   C553    1.388   .     A
C552   H557    1.084   .     S
C552   C1198   1.389   1_554 S
C553   H568    1.085   .     S
C553   C1199   1.390   .     S
C554   C92     1.489   1_565 S
C554   C37     1.348   1_565 S
C556   O588    1.320   .     A
H559   C92     1.085   1_565 S
H575   C599    1.079   .     S
H576   C1263   1.084   1_554 S
H577   C1116   1.084   .     S
N579   Zn592   2.086   .     S
N579   N580    1.272   .     D
N580   Zn591   2.086   .     S
O581   Zn591   2.022   .     S
O581   C593    1.312   .     S
O583   Zn592   2.022   .     S
O584   Zn592   1.998   .     S
O585   Zn591   1.998   .     S
O586   Zn591   1.970   .     S
O586   C630    1.332   .     S
O587   Zn592   1.970   .     S
O588   Zn592   1.901   .     S
O589   Zn591   1.901   .     S
C593   O658    1.311   .     A
C593   C628    1.414   .     S
C594   C596    1.469   .     S
C594   O663    1.321   .     A
C594   O513    1.333   1_655 S
C595   C601    1.399   .     A
C595   C599    1.395   .     A
C595   C630    1.467   .     S
C596   C602    1.401   .     A
C596   C452    1.396   1_655 S
C597   C606    1.407   .     A
C597   C599    1.395   .     A
C597   H1242   1.084   .     S
C598   C607    1.407   .     A
C598   C452    1.396   1_655 S
C598   H1169   1.084   1_654 S
C600   H648    1.081   .     S
C601   C603    1.400   .     A
C601   H647    1.073   .     S
C602   H646    1.073   .     S
C602   C605    1.399   .     A
C603   C608    1.428   .     A
C603   C606    1.417   .     A
C604   C629    1.415   .     S
C604   O659    1.311   .     A
C604   O509    1.313   1_655 S
C605   C609    1.427   .     A
C605   C607    1.416   .     A
C606   C1292   1.389   .     S
C607   C1293   1.390   1_554 S
C608   C625    1.420   .     A
C608   C1275   1.422   .     S
C609   C615    1.419   .     A
C609   C1274   1.422   1_554 S
C610   O664    1.220   .     D
C611   O656    1.220   .     D
C611   C185    1.490   1_565 S
C611   H190    1.085   1_565 S
C612   C613    1.427   .     A
C612   C618    1.419   .     A
C612   N653    1.506   .     S
C613   C614    1.401   .     A
C613   H635    1.036   .     S
C614   C616    1.376   .     A
C614   H636    1.084   .     S
C615   C626    1.387   .     A
C615   H652    1.076   .     S
C616   H637    1.083   .     S
C616   C617    1.376   .     A
C617   H638    1.084   .     S
C617   C618    1.402   .     A
C618   H639    1.012   .     S
C619   N654    1.508   .     S
C619   C624    1.420   .     A
C619   C620    1.428   .     A
C620   H640    1.034   .     S
C620   C621    1.401   .     A
C621   C622    1.375   .     A
C621   H641    1.084   .     S
C622   C623    1.376   .     A
C622   H199    1.083   1_565 S
C623   C624    1.402   .     A
C623   H644    1.084   .     S
C624   H645    1.010   .     S
C625   H632    1.076   .     S
C625   C627    1.388   .     A
C626   H631    1.084   .     S
C626   C1272   1.389   1_554 S
C627   H642    1.085   .     S
C627   C1273   1.390   .     S
C628   C166    1.489   1_565 S
C628   C111    1.348   1_565 S
C629   C258    1.348   1_655 S
C630   O662    1.320   .     A
H633   C166    1.085   1_565 S
H649   C451    1.079   1_655 S
H650   C1115   1.084   1_654 S
H651   C1190   1.084   .     S
N653   Zn666   2.086   .     S
N653   N654    1.272   .     D
N654   Zn665   2.086   .     S
O655   Zn665   2.022   .     S
O655   C445    1.312   1_655 S
O657   Zn666   2.022   .     S
O658   Zn666   1.998   .     S
O659   Zn665   1.998   .     S
O660   Zn665   1.970   .     S
O660   C482    1.332   1_655 S
O661   Zn666   1.970   .     S
O662   Zn666   1.901   .     S
O663   Zn665   1.901   .     S
C667   O732    1.311   .     A
C667   C702    1.414   .     S
C667   O877    1.312   1_455 S
C668   C670    1.469   .     S
C668   O737    1.321   .     A
C668   O809    1.333   .     S
C669   C675    1.399   .     A
C669   C673    1.395   .     A
C669   C704    1.467   .     S
C670   C676    1.401   .     A
C670   C748    1.396   .     S
C671   C680    1.407   .     A
C671   C673    1.395   .     A
C671   H206    1.084   1_456 S
C672   C681    1.407   .     A
C672   C748    1.396   .     S
C673   H871    1.079   1_455 S
C674   H722    1.081   .     S
C674   C818    1.396   1_455 S
C674   C820    1.396   1_455 S
C675   C677    1.400   .     A
C675   H721    1.073   .     S
C676   H720    1.073   .     S
C676   C679    1.399   .     A
C677   C682    1.428   .     A
C677   C680    1.417   .     A
C678   C703    1.415   .     S
C678   O733    1.311   .     A
C678   O805    1.313   .     S
C679   C683    1.427   .     A
C679   C681    1.416   .     A
C680   C34     1.389   1_556 S
C682   C699    1.420   .     A
C682   C17     1.422   1_556 S
C683   C689    1.419   .     A
C684   O738    1.220   .     D
C684   C1146   1.489   1_545 S
C684   H1151   1.085   1_545 S
C685   O730    1.220   .     D
C685   C925    1.490   .     S
C685   H930    1.085   .     S
C686   C687    1.427   .     A
C686   C692    1.419   .     A
C686   N727    1.506   .     S
C687   C688    1.401   .     A
C687   H709    1.036   .     S
C688   C690    1.376   .     A
C688   H710    1.084   .     S
C689   C700    1.387   .     A
C689   H726    1.076   .     S
C690   H711    1.083   .     S
C690   C691    1.376   .     A
C691   H712    1.084   .     S
C691   C692    1.402   .     A
C692   H713    1.012   .     S
C693   N728    1.508   .     S
C693   C698    1.420   .     A
C693   C694    1.428   .     A
C694   H714    1.034   .     S
C694   C695    1.401   .     A
C695   C696    1.375   .     A
C695   H715    1.084   .     S
C696   C697    1.376   .     A
C696   H939    1.083   .     S
C697   C698    1.402   .     A
C697   H718    1.084   .     S
C698   H719    1.010   .     S
C699   H706    1.076   .     S
C699   C701    1.388   .     A
C700   H705    1.084   .     S
C701   H716    1.085   .     S
C701   C15     1.390   1_556 S
C702   C906    1.489   .     S
C702   C1073   1.348   1_455 S
C703   C1220   1.348   1_545 S
C703   C1129   1.490   1_545 S
C704   O736    1.320   .     A
C704   O882    1.332   1_455 S
H707   C906    1.085   .     S
H708   C1129   1.085   1_545 S
H717   C1140   1.083   1_545 S
H723   C747    1.079   .     S
H725   C154    1.084   1_456 S
N727   Zn740   2.086   .     S
N727   N728    1.272   .     D
N728   Zn739   2.086   .     S
O729   Zn739   2.022   .     S
O729   C741    1.312   .     S
O731   Zn740   2.022   .     S
O731   C826    1.313   1_455 S
O732   Zn740   1.998   .     S
O733   Zn739   1.998   .     S
O734   Zn739   1.970   .     S
O734   C778    1.332   .     S
O735   Zn740   1.970   .     S
O735   C816    1.333   1_455 S
O736   Zn740   1.901   .     S
O737   Zn739   1.901   .     S
C741   O806    1.311   .     A
C741   C776    1.414   .     S
C742   C744    1.469   .     S
C742   O811    1.321   .     A
C742   O883    1.333   .     S
C743   C749    1.399   .     A
C743   C747    1.395   .     A
C743   C778    1.467   .     S
C744   C750    1.401   .     A
C744   C822    1.396   .     S
C745   C754    1.407   .     A
C745   C747    1.395   .     A
C745   H58     1.084   1_556 S
C746   C755    1.407   .     A
C746   C822    1.396   .     S
C748   H796    1.081   .     S
C749   C751    1.400   .     A
C749   H795    1.073   .     S
C750   H794    1.073   .     S
C750   C753    1.399   .     A
C751   C756    1.428   .     A
C751   C754    1.417   .     A
C752   C777    1.415   .     S
C752   O807    1.311   .     A
C752   O879    1.313   .     S
C753   C757    1.427   .     A
C753   C755    1.416   .     A
C754   C108    1.389   1_556 S
C756   C773    1.420   .     A
C756   C91     1.422   1_556 S
C757   C763    1.419   .     A
C758   O812    1.220   .     D
C758   C1220   1.489   1_545 S
C758   H1225   1.085   1_545 S
C759   O804    1.220   .     D
C759   C999    1.490   .     S
C759   H1004   1.085   .     S
C760   C761    1.427   .     A
C760   C766    1.419   .     A
C760   N801    1.506   .     S
C761   C762    1.401   .     A
C761   H783    1.036   .     S
C762   C764    1.376   .     A
C762   H784    1.084   .     S
C763   C774    1.387   .     A
C763   H800    1.076   .     S
C764   H785    1.083   .     S
C764   C765    1.376   .     A
C765   H786    1.084   .     S
C765   C766    1.402   .     A
C766   H787    1.012   .     S
C767   N802    1.508   .     S
C767   C772    1.420   .     A
C767   C768    1.428   .     A
C768   H788    1.034   .     S
C768   C769    1.401   .     A
C769   C770    1.375   .     A
C769   H789    1.084   .     S
C770   C771    1.376   .     A
C770   H1013   1.083   .     S
C771   C772    1.402   .     A
C771   H792    1.084   .     S
C772   H793    1.010   .     S
C773   H780    1.076   .     S
C773   C775    1.388   .     A
C774   H779    1.084   .     S
C775   H790    1.085   .     S
C775   C89     1.390   1_556 S
C776   C980    1.489   .     S
C776   C925    1.348   .     S
C777   C1294   1.348   1_545 S
C777   C1203   1.490   1_545 S
C778   O810    1.320   .     A
H781   C980    1.085   .     S
H782   C1203   1.085   1_545 S
H791   C1214   1.083   1_545 S
H797   C821    1.079   .     S
H799   C6      1.084   1_556 S
N801   Zn814   2.086   .     S
N801   N802    1.272   .     D
N802   Zn813   2.086   .     S
O803   Zn813   2.022   .     S
O803   C815    1.312   .     S
O805   Zn814   2.022   .     S
O806   Zn814   1.998   .     S
O807   Zn813   1.998   .     S
O808   Zn813   1.970   .     S
O808   C852    1.332   .     S
O809   Zn814   1.970   .     S
O810   Zn814   1.901   .     S
O811   Zn813   1.901   .     S
C815   O880    1.311   .     A
C815   C850    1.414   .     S
C816   C818    1.469   .     S
C816   O885    1.321   .     A
C816   O735    1.333   1_655 S
C817   C823    1.399   .     A
C817   C821    1.395   .     A
C817   C852    1.467   .     S
C818   C824    1.401   .     A
C818   C674    1.396   1_655 S
C819   C828    1.407   .     A
C819   C821    1.395   .     A
C819   H132    1.084   1_556 S
C820   C829    1.407   .     A
C820   C674    1.396   1_655 S
C820   H59     1.084   1_655 S
C822   H870    1.081   .     S
C823   C825    1.400   .     A
C823   H869    1.073   .     S
C824   H868    1.073   .     S
C824   C827    1.399   .     A
C825   C830    1.428   .     A
C825   C828    1.417   .     A
C826   C851    1.415   .     S
C826   O881    1.311   .     A
C826   O731    1.313   1_655 S
C827   C831    1.427   .     A
C827   C829    1.416   .     A
C828   C182    1.389   1_556 S
C830   C847    1.420   .     A
C830   C165    1.422   1_556 S
C831   C837    1.419   .     A
C832   O886    1.220   .     D
C832   C1294   1.489   1_545 S
C832   H1299   1.085   1_545 S
C833   O878    1.220   .     D
C833   C1073   1.490   .     S
C833   H1078   1.085   .     S
C834   C835    1.427   .     A
C834   C840    1.419   .     A
C834   N875    1.506   .     S
C835   C836    1.401   .     A
C835   H857    1.036   .     S
C836   C838    1.376   .     A
C836   H858    1.084   .     S
C837   C848    1.387   .     A
C837   H874    1.076   .     S
C838   H859    1.083   .     S
C838   C839    1.376   .     A
C839   H860    1.084   .     S
C839   C840    1.402   .     A
C840   H861    1.012   .     S
C841   N876    1.508   .     S
C841   C846    1.420   .     A
C841   C842    1.428   .     A
C842   H862    1.034   .     S
C842   C843    1.401   .     A
C843   C844    1.375   .     A
C843   H863    1.084   .     S
C844   C845    1.376   .     A
C844   H1087   1.083   .     S
C845   C846    1.402   .     A
C845   H866    1.084   .     S
C846   H867    1.010   .     S
C847   H854    1.076   .     S
C847   C849    1.388   .     A
C848   H853    1.084   .     S
C849   H864    1.085   .     S
C849   C163    1.390   1_556 S
C850   C1054   1.489   .     S
C850   C999    1.348   .     S
C851   C1146   1.348   1_645 S
C851   C1277   1.490   1_545 S
C852   O884    1.320   .     A
H855   C1054   1.085   .     S
H856   C1277   1.085   1_545 S
H865   C1288   1.083   1_545 S
H871   C673    1.079   1_655 S
H872   C5      1.084   1_655 S
H873   C80     1.084   1_556 S
N875   Zn888   2.086   .     S
N875   N876    1.272   .     D
N876   Zn887   2.086   .     S
O877   Zn887   2.022   .     S
O877   C667    1.312   1_655 S
O879   Zn888   2.022   .     S
O880   Zn888   1.998   .     S
O881   Zn887   1.998   .     S
O882   Zn887   1.970   .     S
O882   C704    1.332   1_655 S
O883   Zn888   1.970   .     S
O884   Zn888   1.901   .     S
O885   Zn887   1.901   .     S
C889   O954    1.311   .     A
C889   C924    1.414   .     S
C889   O1099   1.312   1_455 S
C890   C892    1.469   .     S
C890   O959    1.321   .     A
C890   O1031   1.333   .     S
C891   C897    1.399   .     A
C891   C895    1.395   .     A
C891   C926    1.467   .     S
C892   C898    1.401   .     A
C892   C970    1.396   .     S
C893   C902    1.407   .     A
C893   C895    1.395   .     A
C893   H428    1.084   1_456 S
C894   C903    1.407   .     A
C894   C970    1.396   .     S
C895   H1093   1.079   1_455 S
C896   H944    1.081   .     S
C896   C1040   1.396   1_455 S
C896   C1042   1.396   1_455 S
C897   C899    1.400   .     A
C897   H943    1.073   .     S
C898   H942    1.073   .     S
C898   C901    1.399   .     A
C899   C904    1.428   .     A
C899   C902    1.417   .     A
C900   C925    1.415   .     S
C900   O955    1.311   .     A
C900   O1027   1.313   .     S
C901   C905    1.427   .     A
C901   C903    1.416   .     A
C902   C256    1.389   1_556 S
C904   C921    1.420   .     A
C904   C239    1.422   1_556 S
C905   C911    1.419   .     A
C906   O960    1.220   .     D
C907   O952    1.220   .     D
C907   C1147   1.490   .     S
C907   H1152   1.085   .     S
C908   C909    1.427   .     A
C908   C914    1.419   .     A
C908   N949    1.506   .     S
C909   C910    1.401   .     A
C909   H931    1.036   .     S
C910   C912    1.376   .     A
C910   H932    1.084   .     S
C911   C922    1.387   .     A
C911   H948    1.076   .     S
C912   H933    1.083   .     S
C912   C913    1.376   .     A
C913   H934    1.084   .     S
C913   C914    1.402   .     A
C914   H935    1.012   .     S
C915   N950    1.508   .     S
C915   C920    1.420   .     A
C915   C916    1.428   .     A
C916   H936    1.034   .     S
C916   C917    1.401   .     A
C917   C918    1.375   .     A
C917   H937    1.084   .     S
C918   C919    1.376   .     A
C918   H1161   1.083   .     S
C919   C920    1.402   .     A
C919   H940    1.084   .     S
C920   H941    1.010   .     S
C921   H928    1.076   .     S
C921   C923    1.388   .     A
C922   H927    1.084   .     S
C923   H938    1.085   .     S
C923   C237    1.390   1_556 S
C924   C1128   1.489   .     S
C924   C1295   1.348   1_455 S
C926   O958    1.320   .     A
C926   O1104   1.332   1_455 S
H929   C1128   1.085   .     S
H945   C969    1.079   .     S
H947   C376    1.084   1_456 S
N949   Zn962   2.086   .     S
N949   N950    1.272   .     D
N950   Zn961   2.086   .     S
O951   Zn961   2.022   .     S
O951   C963    1.312   .     S
O953   Zn962   2.022   .     S
O953   C1048   1.313   1_455 S
O954   Zn962   1.998   .     S
O955   Zn961   1.998   .     S
O956   Zn961   1.970   .     S
O956   C1000   1.332   .     S
O957   Zn962   1.970   .     S
O957   C1038   1.333   1_455 S
O958   Zn962   1.901   .     S
O959   Zn961   1.901   .     S
C963   O1028   1.311   .     A
C963   C998    1.414   .     S
C964   C966    1.469   .     S
C964   O1033   1.321   .     A
C964   O1105   1.333   .     S
C965   C971    1.399   .     A
C965   C969    1.395   .     A
C965   C1000   1.467   .     S
C966   C972    1.401   .     A
C966   C1044   1.396   .     S
C967   C976    1.407   .     A
C967   C969    1.395   .     A
C967   H280    1.084   1_556 S
C968   C977    1.407   .     A
C968   C1044   1.396   .     S
C970   H1018   1.081   .     S
C971   C973    1.400   .     A
C971   H1017   1.073   .     S
C972   H1016   1.073   .     S
C972   C975    1.399   .     A
C973   C978    1.428   .     A
C973   C976    1.417   .     A
C974   C999    1.415   .     S
C974   O1029   1.311   .     A
C974   O1101   1.313   .     S
C975   C979    1.427   .     A
C975   C977    1.416   .     A
C976   C330    1.389   1_556 S
C978   C995    1.420   .     A
C978   C313    1.422   1_556 S
C979   C985    1.419   .     A
C980   O1034   1.220   .     D
C981   O1026   1.220   .     D
C981   C1221   1.490   .     S
C981   H1226   1.085   .     S
C982   C983    1.427   .     A
C982   C988    1.419   .     A
C982   N1023   1.506   .     S
C983   C984    1.401   .     A
C983   H1005   1.036   .     S
C984   C986    1.376   .     A
C984   H1006   1.084   .     S
C985   C996    1.387   .     A
C985   H1022   1.076   .     S
C986   H1007   1.083   .     S
C986   C987    1.376   .     A
C987   H1008   1.084   .     S
C987   C988    1.402   .     A
C988   H1009   1.012   .     S
C989   N1024   1.508   .     S
C989   C994    1.420   .     A
C989   C990    1.428   .     A
C990   H1010   1.034   .     S
C990   C991    1.401   .     A
C991   C992    1.375   .     A
C991   H1011   1.084   .     S
C992   C993    1.376   .     A
C992   H1235   1.083   .     S
C993   C994    1.402   .     A
C993   H1014   1.084   .     S
C994   H1015   1.010   .     S
C995   H1002   1.076   .     S
C995   C997    1.388   .     A
C996   H1001   1.084   .     S
C997   H1012   1.085   .     S
C997   C311    1.390   1_556 S
C998   C1202   1.489   .     S
C998   C1147   1.348   .     S
C1000  O1032   1.320   .     A
H1003  C1202   1.085   .     S
H1019  C1043   1.079   .     S
H1021  C228    1.084   1_556 S
N1023  Zn1036  2.086   .     S
N1023  N1024   1.272   .     D
N1024  Zn1035  2.086   .     S
O1025  Zn1035  2.022   .     S
O1025  C1037   1.312   .     S
O1027  Zn1036  2.022   .     S
O1028  Zn1036  1.998   .     S
O1029  Zn1035  1.998   .     S
O1030  Zn1035  1.970   .     S
O1030  C1074   1.332   .     S
O1031  Zn1036  1.970   .     S
O1032  Zn1036  1.901   .     S
O1033  Zn1035  1.901   .     S
C1037  O1102   1.311   .     A
C1037  C1072   1.414   .     S
C1038  C1040   1.469   .     S
C1038  O1107   1.321   .     A
C1038  O957    1.333   1_655 S
C1039  C1045   1.399   .     A
C1039  C1043   1.395   .     A
C1039  C1074   1.467   .     S
C1040  C1046   1.401   .     A
C1040  C896    1.396   1_655 S
C1041  C1050   1.407   .     A
C1041  C1043   1.395   .     A
C1041  H354    1.084   1_556 S
C1042  C1051   1.407   .     A
C1042  C896    1.396   1_655 S
C1042  H281    1.084   1_655 S
C1044  H1092   1.081   .     S
C1045  C1047   1.400   .     A
C1045  H1091   1.073   .     S
C1046  H1090   1.073   .     S
C1046  C1049   1.399   .     A
C1047  C1052   1.428   .     A
C1047  C1050   1.417   .     A
C1048  C1073   1.415   .     S
C1048  O1103   1.311   .     A
C1048  O953    1.313   1_655 S
C1049  C1053   1.427   .     A
C1049  C1051   1.416   .     A
C1050  C404    1.389   1_556 S
C1052  C1069   1.420   .     A
C1052  C387    1.422   1_556 S
C1053  C1059   1.419   .     A
C1054  O1108   1.220   .     D
C1055  O1100   1.220   .     D
C1055  C1295   1.490   .     S
C1055  H1300   1.085   .     S
C1056  C1057   1.427   .     A
C1056  C1062   1.419   .     A
C1056  N1097   1.506   .     S
C1057  C1058   1.401   .     A
C1057  H1079   1.036   .     S
C1058  C1060   1.376   .     A
C1058  H1080   1.084   .     S
C1059  C1070   1.387   .     A
C1059  H1096   1.076   .     S
C1060  H1081   1.083   .     S
C1060  C1061   1.376   .     A
C1061  H1082   1.084   .     S
C1061  C1062   1.402   .     A
C1062  H1083   1.012   .     S
C1063  N1098   1.508   .     S
C1063  C1068   1.420   .     A
C1063  C1064   1.428   .     A
C1064  H1084   1.034   .     S
C1064  C1065   1.401   .     A
C1065  C1066   1.375   .     A
C1065  H1085   1.084   .     S
C1066  C1067   1.376   .     A
C1066  H1309   1.083   .     S
C1067  C1068   1.402   .     A
C1067  H1088   1.084   .     S
C1068  H1089   1.010   .     S
C1069  H1076   1.076   .     S
C1069  C1071   1.388   .     A
C1070  H1075   1.084   .     S
C1071  H1086   1.085   .     S
C1071  C385    1.390   1_556 S
C1072  C1276   1.489   .     S
C1072  C1221   1.348   .     S
C1073  C702    1.348   1_655 S
C1074  O1106   1.320   .     A
H1077  C1276   1.085   .     S
H1093  C895    1.079   1_655 S
H1094  C227    1.084   1_655 S
H1095  C302    1.084   1_556 S
N1097  Zn1110  2.086   .     S
N1097  N1098   1.272   .     D
N1098  Zn1109  2.086   .     S
O1099  Zn1109  2.022   .     S
O1099  C889    1.312   1_655 S
O1101  Zn1110  2.022   .     S
O1102  Zn1110  1.998   .     S
O1103  Zn1109  1.998   .     S
O1104  Zn1109  1.970   .     S
O1104  C926    1.332   1_655 S
O1105  Zn1110  1.970   .     S
O1106  Zn1110  1.901   .     S
O1107  Zn1109  1.901   .     S
C1111  O1176   1.311   .     A
C1111  C1146   1.414   .     S
C1111  O1321   1.312   1_455 S
C1112  C1114   1.469   .     S
C1112  O1181   1.321   .     A
C1112  O1253   1.333   .     S
C1113  C1119   1.399   .     A
C1113  C1117   1.395   .     A
C1113  C1148   1.467   .     S
C1114  C1120   1.401   .     A
C1114  C1192   1.396   .     S
C1115  C1124   1.407   .     A
C1115  C1117   1.395   .     A
C1115  H650    1.084   1_456 S
C1116  C1125   1.407   .     A
C1116  C1192   1.396   .     S
C1117  H1315   1.079   1_455 S
C1118  H1166   1.081   .     S
C1118  C1262   1.396   1_455 S
C1118  C1264   1.396   1_455 S
C1119  C1121   1.400   .     A
C1119  H1165   1.073   .     S
C1120  H1164   1.073   .     S
C1120  C1123   1.399   .     A
C1121  C1126   1.428   .     A
C1121  C1124   1.417   .     A
C1122  C1147   1.415   .     S
C1122  O1177   1.311   .     A
C1122  O1249   1.313   .     S
C1123  C1127   1.427   .     A
C1123  C1125   1.416   .     A
C1124  C478    1.389   1_556 S
C1126  C1143   1.420   .     A
C1126  C461    1.422   1_556 S
C1127  C1133   1.419   .     A
C1128  O1182   1.220   .     D
C1129  O1174   1.220   .     D
C1129  C703    1.490   1_565 S
C1129  H708    1.085   1_565 S
C1130  C1131   1.427   .     A
C1130  C1136   1.419   .     A
C1130  N1171   1.506   .     S
C1131  C1132   1.401   .     A
C1131  H1153   1.036   .     S
C1132  C1134   1.376   .     A
C1132  H1154   1.084   .     S
C1133  C1144   1.387   .     A
C1133  H1170   1.076   .     S
C1134  H1155   1.083   .     S
C1134  C1135   1.376   .     A
C1135  H1156   1.084   .     S
C1135  C1136   1.402   .     A
C1136  H1157   1.012   .     S
C1137  N1172   1.508   .     S
C1137  C1142   1.420   .     A
C1137  C1138   1.428   .     A
C1138  H1158   1.034   .     S
C1138  C1139   1.401   .     A
C1139  C1140   1.375   .     A
C1139  H1159   1.084   .     S
C1140  C1141   1.376   .     A
C1140  H717    1.083   1_565 S
C1141  C1142   1.402   .     A
C1141  H1162   1.084   .     S
C1142  H1163   1.010   .     S
C1143  H1150   1.076   .     S
C1143  C1145   1.388   .     A
C1144  H1149   1.084   .     S
C1145  H1160   1.085   .     S
C1145  C459    1.390   1_556 S
C1146  C684    1.489   1_565 S
C1146  C851    1.348   1_465 S
C1148  O1180   1.320   .     A
C1148  O1326   1.332   1_455 S
H1151  C684    1.085   1_565 S
H1167  C1191   1.079   .     S
H1169  C598    1.084   1_456 S
N1171  Zn1184  2.086   .     S
N1171  N1172   1.272   .     D
N1172  Zn1183  2.086   .     S
O1173  Zn1183  2.022   .     S
O1173  C1185   1.312   .     S
O1175  Zn1184  2.022   .     S
O1175  C1270   1.313   1_455 S
O1176  Zn1184  1.998   .     S
O1177  Zn1183  1.998   .     S
O1178  Zn1183  1.970   .     S
O1178  C1222   1.332   .     S
O1179  Zn1184  1.970   .     S
O1179  C1260   1.333   1_455 S
O1180  Zn1184  1.901   .     S
O1181  Zn1183  1.901   .     S
C1185  O1250   1.311   .     A
C1185  C1220   1.414   .     S
C1186  C1188   1.469   .     S
C1186  O1255   1.321   .     A
C1186  O1327   1.333   .     S
C1187  C1193   1.399   .     A
C1187  C1191   1.395   .     A
C1187  C1222   1.467   .     S
C1188  C1194   1.401   .     A
C1188  C1266   1.396   .     S
C1189  C1198   1.407   .     A
C1189  C1191   1.395   .     A
C1189  H502    1.084   1_556 S
C1190  C1199   1.407   .     A
C1190  C1266   1.396   .     S
C1192  H1240   1.081   .     S
C1193  C1195   1.400   .     A
C1193  H1239   1.073   .     S
C1194  H1238   1.073   .     S
C1194  C1197   1.399   .     A
C1195  C1200   1.428   .     A
C1195  C1198   1.417   .     A
C1196  C1221   1.415   .     S
C1196  O1251   1.311   .     A
C1196  O1323   1.313   .     S
C1197  C1201   1.427   .     A
C1197  C1199   1.416   .     A
C1198  C552    1.389   1_556 S
C1200  C1217   1.420   .     A
C1200  C535    1.422   1_556 S
C1201  C1207   1.419   .     A
C1202  O1256   1.220   .     D
C1203  O1248   1.220   .     D
C1203  C777    1.490   1_565 S
C1203  H782    1.085   1_565 S
C1204  C1205   1.427   .     A
C1204  C1210   1.419   .     A
C1204  N1245   1.506   .     S
C1205  C1206   1.401   .     A
C1205  H1227   1.036   .     S
C1206  C1208   1.376   .     A
C1206  H1228   1.084   .     S
C1207  C1218   1.387   .     A
C1207  H1244   1.076   .     S
C1208  H1229   1.083   .     S
C1208  C1209   1.376   .     A
C1209  H1230   1.084   .     S
C1209  C1210   1.402   .     A
C1210  H1231   1.012   .     S
C1211  N1246   1.508   .     S
C1211  C1216   1.420   .     A
C1211  C1212   1.428   .     A
C1212  H1232   1.034   .     S
C1212  C1213   1.401   .     A
C1213  C1214   1.375   .     A
C1213  H1233   1.084   .     S
C1214  C1215   1.376   .     A
C1214  H791    1.083   1_565 S
C1215  C1216   1.402   .     A
C1215  H1236   1.084   .     S
C1216  H1237   1.010   .     S
C1217  H1224   1.076   .     S
C1217  C1219   1.388   .     A
C1218  H1223   1.084   .     S
C1219  H1234   1.085   .     S
C1219  C533    1.390   1_556 S
C1220  C758    1.489   1_565 S
C1220  C703    1.348   1_565 S
C1222  O1254   1.320   .     A
H1225  C758    1.085   1_565 S
H1241  C1265   1.079   .     S
H1243  C450    1.084   1_556 S
N1245  Zn1258  2.086   .     S
N1245  N1246   1.272   .     D
N1246  Zn1257  2.086   .     S
O1247  Zn1257  2.022   .     S
O1247  C1259   1.312   .     S
O1249  Zn1258  2.022   .     S
O1250  Zn1258  1.998   .     S
O1251  Zn1257  1.998   .     S
O1252  Zn1257  1.970   .     S
O1252  C1296   1.332   .     S
O1253  Zn1258  1.970   .     S
O1254  Zn1258  1.901   .     S
O1255  Zn1257  1.901   .     S
C1259  O1324   1.311   .     A
C1259  C1294   1.414   .     S
C1260  C1262   1.469   .     S
C1260  O1329   1.321   .     A
C1260  O1179   1.333   1_655 S
C1261  C1267   1.399   .     A
C1261  C1265   1.395   .     A
C1261  C1296   1.467   .     S
C1262  C1268   1.401   .     A
C1262  C1118   1.396   1_655 S
C1263  C1272   1.407   .     A
C1263  C1265   1.395   .     A
C1263  H576    1.084   1_556 S
C1264  C1273   1.407   .     A
C1264  C1118   1.396   1_655 S
C1264  H503    1.084   1_655 S
C1266  H1314   1.081   .     S
C1267  C1269   1.400   .     A
C1267  H1313   1.073   .     S
C1268  H1312   1.073   .     S
C1268  C1271   1.399   .     A
C1269  C1274   1.428   .     A
C1269  C1272   1.417   .     A
C1270  C1295   1.415   .     S
C1270  O1325   1.311   .     A
C1270  O1175   1.313   1_655 S
C1271  C1275   1.427   .     A
C1271  C1273   1.416   .     A
C1272  C626    1.389   1_556 S
C1274  C1291   1.420   .     A
C1274  C609    1.422   1_556 S
C1275  C1281   1.419   .     A
C1276  O1330   1.220   .     D
C1277  O1322   1.220   .     D
C1277  C851    1.490   1_565 S
C1277  H856    1.085   1_565 S
C1278  C1279   1.427   .     A
C1278  C1284   1.419   .     A
C1278  N1319   1.506   .     S
C1279  C1280   1.401   .     A
C1279  H1301   1.036   .     S
C1280  C1282   1.376   .     A
C1280  H1302   1.084   .     S
C1281  C1292   1.387   .     A
C1281  H1318   1.076   .     S
C1282  H1303   1.083   .     S
C1282  C1283   1.376   .     A
C1283  H1304   1.084   .     S
C1283  C1284   1.402   .     A
C1284  H1305   1.012   .     S
C1285  N1320   1.508   .     S
C1285  C1290   1.420   .     A
C1285  C1286   1.428   .     A
C1286  H1306   1.034   .     S
C1286  C1287   1.401   .     A
C1287  C1288   1.375   .     A
C1287  H1307   1.084   .     S
C1288  C1289   1.376   .     A
C1288  H865    1.083   1_565 S
C1289  C1290   1.402   .     A
C1289  H1310   1.084   .     S
C1290  H1311   1.010   .     S
C1291  H1298   1.076   .     S
C1291  C1293   1.388   .     A
C1292  H1297   1.084   .     S
C1293  H1308   1.085   .     S
C1293  C607    1.390   1_556 S
C1294  C832    1.489   1_565 S
C1294  C777    1.348   1_565 S
C1295  C924    1.348   1_655 S
C1296  O1328   1.320   .     A
H1299  C832    1.085   1_565 S
H1315  C1117   1.079   1_655 S
H1316  C449    1.084   1_655 S
H1317  C524    1.084   1_556 S
N1319  Zn1332  2.086   .     S
N1319  N1320   1.272   .     D
N1320  Zn1331  2.086   .     S
O1321  Zn1331  2.022   .     S
O1321  C1111   1.312   1_655 S
O1323  Zn1332  2.022   .     S
O1324  Zn1332  1.998   .     S
O1325  Zn1331  1.998   .     S
O1326  Zn1331  1.970   .     S
O1326  C1148   1.332   1_655 S
O1327  Zn1332  1.970   .     S
O1328  Zn1332  1.901   .     S
O1329  Zn1331  1.901   .     S
