data_str_m1_o1_o2_pcu_sym.71
_audit_creation_date              2020-01-03
_audit_creation_method            'Materials Studio'
_symmetry_space_group_name_H-M    'P1'
_symmetry_Int_Tables_number       1
_symmetry_cell_setting            triclinic
loop_
_symmetry_equiv_pos_as_xyz
  x,y,z
_cell_length_a                    36.6408
_cell_length_b                    36.6408
_cell_length_c                    34.5934
_cell_angle_alpha                 90.0000
_cell_angle_beta                  90.0000
_cell_angle_gamma                 90.0000
loop_
_atom_site_label
_atom_site_type_symbol
_atom_site_fract_x
_atom_site_fract_y
_atom_site_fract_z
_atom_site_U_iso_or_equiv
_atom_site_adp_type
_atom_site_occupancy
C1     C     0.22157   0.01763   0.04152   0.00000  Uiso   1.00
C2     C     0.02843   0.26763   0.45848   0.00000  Uiso   1.00
C3     C     0.34813   0.40187   0.75000   0.00000  Uiso   1.00
C4     C     0.40187   0.15187   0.25000   0.00000  Uiso   1.00
C5     C     0.09813   0.34813   0.75000   0.00000  Uiso   1.00
C6     C     0.34813   0.40187   0.25000   0.00000  Uiso   1.00
C7     C     0.15187   0.09813   0.75000   0.00000  Uiso   1.00
C8     C     0.09813   0.15187   0.75000   0.00000  Uiso   1.00
C9     C     0.40187   0.34813   0.25000   0.00000  Uiso   1.00
C10    C     0.15187   0.40187   0.75000   0.00000  Uiso   1.00
C11    C     0.34813   0.09813   0.25000   0.00000  Uiso   1.00
C12    C     0.40187   0.34813   0.75000   0.00000  Uiso   1.00
C13    C     0.23237   0.47157   0.54152   0.00000  Uiso   1.00
C14    C     0.09813   0.15187   0.25000   0.00000  Uiso   1.00
C15    C     0.34813   0.09813   0.75000   0.00000  Uiso   1.00
C16    C     0.15187   0.40187   0.25000   0.00000  Uiso   1.00
C17    C     0.25000   0.00000   0.10234   0.00000  Uiso   1.00
C18    C     0.25000   0.00000   0.89767   0.00000  Uiso   1.00
C19    C    -0.00000   0.25000   0.10234   0.00000  Uiso   1.00
C20    C    -0.00000   0.25000   0.89767   0.00000  Uiso   1.00
C21    C     0.00000   0.25000   0.60234   0.00000  Uiso   1.00
C22    C    -0.00000   0.25000   0.39767   0.00000  Uiso   1.00
C23    C     0.25000  -0.00000   0.60234   0.00000  Uiso   1.00
C24    C     0.23237   0.02843   0.45848   0.00000  Uiso   1.00
C25    C     0.25000  -0.00000   0.39767   0.00000  Uiso   1.00
C26    C     0.20105   0.06625   0.00538   0.00000  Uiso   1.00
C27    C     0.16725   0.09030   0.00365   0.00000  Uiso   1.00
C28    C     0.29895   0.06625   0.99462   0.00000  Uiso   1.00
C29    C     0.33275   0.09030   0.99635   0.00000  Uiso   1.00
C30    C     0.43375   0.20105   0.00538   0.00000  Uiso   1.00
C31    C     0.40970   0.16725   0.00365   0.00000  Uiso   1.00
C32    C     0.43375   0.29895   0.99462   0.00000  Uiso   1.00
C33    C     0.40970   0.33275   0.99635   0.00000  Uiso   1.00
C34    C     0.29895   0.43375   0.00538   0.00000  Uiso   1.00
C35    C     0.02843   0.23237   0.54152   0.00000  Uiso   1.00
C36    C     0.33275   0.40970   0.00365   0.00000  Uiso   1.00
C37    C     0.20105   0.43375   0.99462   0.00000  Uiso   1.00
C38    C     0.16725   0.40970   0.99635   0.00000  Uiso   1.00
C39    C     0.06625   0.29895   0.00538   0.00000  Uiso   1.00
C40    C     0.09030   0.33275   0.00365   0.00000  Uiso   1.00
C41    C     0.06625   0.20105   0.99462   0.00000  Uiso   1.00
C42    C     0.09030   0.16725   0.99635   0.00000  Uiso   1.00
C43    C     0.45105   0.31625   0.50538   0.00000  Uiso   1.00
C44    C     0.41725   0.34030   0.50365   0.00000  Uiso   1.00
C45    C     0.04895   0.31625   0.49462   0.00000  Uiso   1.00
C46    C     0.47157   0.23237   0.45848   0.00000  Uiso   1.00
C47    C     0.08275   0.34030   0.49635   0.00000  Uiso   1.00
C48    C     0.18375   0.45105   0.50538   0.00000  Uiso   1.00
C49    C     0.15970   0.41725   0.50365   0.00000  Uiso   1.00
C50    C     0.18375   0.04895   0.49462   0.00000  Uiso   1.00
C51    C     0.15970   0.08275   0.49635   0.00000  Uiso   1.00
C52    C     0.04895   0.18375   0.50538   0.00000  Uiso   1.00
C53    C     0.08275   0.15970   0.50365   0.00000  Uiso   1.00
C54    C     0.45105   0.18375   0.49462   0.00000  Uiso   1.00
C55    C     0.41725   0.15970   0.49635   0.00000  Uiso   1.00
C56    C     0.31625   0.04895   0.50538   0.00000  Uiso   1.00
C57    C     0.26763   0.02843   0.54152   0.00000  Uiso   1.00
C58    C     0.34030   0.08275   0.50365   0.00000  Uiso   1.00
C59    C     0.31625   0.45105   0.49462   0.00000  Uiso   1.00
C60    C     0.34030   0.41725   0.49635   0.00000  Uiso   1.00
C61    C     0.20269   0.06977   0.11206   0.00000  Uiso   1.00
C62    C     0.16997   0.08837   0.13057   0.00000  Uiso   1.00
C63    C     0.29731   0.06977   0.88794   0.00000  Uiso   1.00
C64    C     0.33003   0.08837   0.86943   0.00000  Uiso   1.00
C65    C     0.43023   0.20269   0.11206   0.00000  Uiso   1.00
C66    C     0.41163   0.16997   0.13057   0.00000  Uiso   1.00
C67    C     0.43023   0.29731   0.88794   0.00000  Uiso   1.00
C68    C     0.26763   0.47157   0.45848   0.00000  Uiso   1.00
C69    C     0.41163   0.33003   0.86943   0.00000  Uiso   1.00
C70    C     0.29731   0.43023   0.11206   0.00000  Uiso   1.00
C71    C     0.33003   0.41163   0.13057   0.00000  Uiso   1.00
C72    C     0.20269   0.43023   0.88794   0.00000  Uiso   1.00
C73    C     0.16997   0.41163   0.86943   0.00000  Uiso   1.00
C74    C     0.06977   0.29731   0.11206   0.00000  Uiso   1.00
C75    C     0.08837   0.33003   0.13057   0.00000  Uiso   1.00
C76    C     0.06977   0.20269   0.88794   0.00000  Uiso   1.00
C77    C     0.08837   0.16997   0.86943   0.00000  Uiso   1.00
C78    C     0.45269   0.31977   0.61206   0.00000  Uiso   1.00
C79    C     0.22173   0.01780   0.08193   0.00000  Uiso   1.00
C80    C     0.41997   0.33837   0.63057   0.00000  Uiso   1.00
C81    C     0.04731   0.31977   0.38794   0.00000  Uiso   1.00
C82    C     0.08003   0.33837   0.36943   0.00000  Uiso   1.00
C83    C     0.18023   0.45269   0.61206   0.00000  Uiso   1.00
C84    C     0.16163   0.41997   0.63057   0.00000  Uiso   1.00
C85    C     0.18023   0.04731   0.38794   0.00000  Uiso   1.00
C86    C     0.16163   0.08003   0.36943   0.00000  Uiso   1.00
C87    C     0.04731   0.18023   0.61206   0.00000  Uiso   1.00
C88    C     0.08003   0.16163   0.63057   0.00000  Uiso   1.00
C89    C     0.45269   0.18023   0.38794   0.00000  Uiso   1.00
C90    C     0.27827   0.01780   0.91807   0.00000  Uiso   1.00
C91    C     0.41997   0.16163   0.36943   0.00000  Uiso   1.00
C92    C     0.31977   0.04731   0.61206   0.00000  Uiso   1.00
C93    C     0.33837   0.08003   0.63057   0.00000  Uiso   1.00
C94    C     0.31977   0.45269   0.38794   0.00000  Uiso   1.00
C95    C     0.33837   0.41997   0.36943   0.00000  Uiso   1.00
C96    C     0.48220   0.22173   0.08193   0.00000  Uiso   1.00
C97    C     0.27843   0.01763   0.95848   0.00000  Uiso   1.00
C98    C     0.48220   0.27827   0.91807   0.00000  Uiso   1.00
C99    C     0.27827   0.48220   0.08193   0.00000  Uiso   1.00
C100   C     0.22173   0.48220   0.91807   0.00000  Uiso   1.00
C101   C     0.01779   0.27827   0.08193   0.00000  Uiso   1.00
C102   C     0.01779   0.22173   0.91807   0.00000  Uiso   1.00
C103   C     0.47173   0.26780   0.58193   0.00000  Uiso   1.00
C104   C     0.02827   0.26779   0.41807   0.00000  Uiso   1.00
C105   C     0.23220   0.47173   0.58193   0.00000  Uiso   1.00
C106   C     0.23220   0.02827   0.41807   0.00000  Uiso   1.00
C107   C     0.02827   0.23220   0.58193   0.00000  Uiso   1.00
C108   C     0.48237   0.22157   0.04152   0.00000  Uiso   1.00
C109   C     0.47173   0.23221   0.41807   0.00000  Uiso   1.00
C110   C     0.26779   0.02827   0.58193   0.00000  Uiso   1.00
C111   C     0.26779   0.47173   0.41807   0.00000  Uiso   1.00
C112   C     0.25000  -0.00000   0.02122   0.00000  Uiso   1.00
C113   C     0.25000  -0.00000   0.97879   0.00000  Uiso   1.00
C114   C    -0.00000   0.25000   0.02122   0.00000  Uiso   1.00
C115   C    -0.00000   0.25000   0.97879   0.00000  Uiso   1.00
C116   C    -0.00000   0.25000   0.52122   0.00000  Uiso   1.00
C117   C    -0.00000   0.25000   0.47879   0.00000  Uiso   1.00
C118   C     0.25000   0.00000   0.52122   0.00000  Uiso   1.00
C119   C     0.48237   0.27843   0.95848   0.00000  Uiso   1.00
C120   C     0.25000  -0.00000   0.47879   0.00000  Uiso   1.00
C121   C     0.25000  -0.00000   0.35521   0.00000  Uiso   1.00
C122   C     0.25000  -0.00000   0.64479   0.00000  Uiso   1.00
C123   C    -0.00000   0.25000   0.35521   0.00000  Uiso   1.00
C124   C    -0.00000   0.25000   0.64479   0.00000  Uiso   1.00
C125   C    -0.00000   0.25000   0.85521   0.00000  Uiso   1.00
C126   C    -0.00000   0.25000   0.14479   0.00000  Uiso   1.00
C127   C     0.25000   0.00000   0.85521   0.00000  Uiso   1.00
C128   C     0.25000   0.00000   0.14479   0.00000  Uiso   1.00
C129   C     0.17993   0.07007   0.25000   0.00000  Uiso   1.00
C130   C     0.27843   0.48237   0.04152   0.00000  Uiso   1.00
C131   C     0.32007   0.42993   0.75000   0.00000  Uiso   1.00
C132   C     0.42993   0.17993   0.25000   0.00000  Uiso   1.00
C133   C     0.07007   0.32007   0.75000   0.00000  Uiso   1.00
C134   C     0.32007   0.42993   0.25000   0.00000  Uiso   1.00
C135   C     0.17993   0.07007   0.75000   0.00000  Uiso   1.00
C136   C     0.07007   0.32007   0.25000   0.00000  Uiso   1.00
C137   C     0.42993   0.17993   0.75000   0.00000  Uiso   1.00
C138   C     0.17993   0.42993   0.75000   0.00000  Uiso   1.00
C139   C     0.32007   0.07007   0.25000   0.00000  Uiso   1.00
C140   C     0.42993   0.32007   0.75000   0.00000  Uiso   1.00
C141   C     0.22157   0.48237   0.95848   0.00000  Uiso   1.00
C142   C     0.07007   0.17993   0.25000   0.00000  Uiso   1.00
C143   C     0.32007   0.07007   0.75000   0.00000  Uiso   1.00
C144   C     0.17993   0.42993   0.25000   0.00000  Uiso   1.00
C145   C     0.07007   0.17993   0.75000   0.00000  Uiso   1.00
C146   C     0.42993   0.32007   0.25000   0.00000  Uiso   1.00
C147   C     0.11991   0.40684   0.22838   0.00000  Uiso   1.00
C148   C     0.38014   0.09312   0.77152   0.00000  Uiso   1.00
C149   C     0.09316   0.11991   0.22838   0.00000  Uiso   1.00
C150   C     0.40688   0.38014   0.77152   0.00000  Uiso   1.00
C151   C     0.38009   0.09316   0.22838   0.00000  Uiso   1.00
C152   C     0.01763   0.27843   0.04152   0.00000  Uiso   1.00
C153   C     0.11986   0.40688   0.77152   0.00000  Uiso   1.00
C154   C     0.40684   0.38009   0.22838   0.00000  Uiso   1.00
C155   C     0.09312   0.11986   0.77152   0.00000  Uiso   1.00
C156   C     0.11991   0.09316   0.77162   0.00000  Uiso   1.00
C157   C     0.38014   0.40688   0.22848   0.00000  Uiso   1.00
C158   C     0.09316   0.38009   0.77162   0.00000  Uiso   1.00
C159   C     0.40688   0.11986   0.22848   0.00000  Uiso   1.00
C160   C     0.38009   0.40684   0.77162   0.00000  Uiso   1.00
C161   C     0.11986   0.09312   0.22848   0.00000  Uiso   1.00
C162   C     0.40684   0.11991   0.77162   0.00000  Uiso   1.00
C163   C     0.01763   0.22157   0.95848   0.00000  Uiso   1.00
C164   C     0.09312   0.38014   0.22848   0.00000  Uiso   1.00
C165   C     0.36991   0.15684   0.72838   0.00000  Uiso   1.00
C166   C     0.13014   0.34312   0.27152   0.00000  Uiso   1.00
C167   C     0.34316   0.36991   0.72838   0.00000  Uiso   1.00
C168   C     0.15688   0.13014   0.27152   0.00000  Uiso   1.00
C169   C     0.13009   0.34316   0.72838   0.00000  Uiso   1.00
C170   C     0.36986   0.15688   0.27152   0.00000  Uiso   1.00
C171   C     0.15684   0.13009   0.72838   0.00000  Uiso   1.00
C172   C     0.34312   0.36986   0.27152   0.00000  Uiso   1.00
C173   C     0.36991   0.34316   0.27162   0.00000  Uiso   1.00
C174   C     0.47157   0.26763   0.54152   0.00000  Uiso   1.00
C175   C     0.13014   0.15688   0.72848   0.00000  Uiso   1.00
C176   C     0.34316   0.13009   0.27162   0.00000  Uiso   1.00
C177   C     0.15688   0.36986   0.72848   0.00000  Uiso   1.00
C178   C     0.13009   0.15684   0.27162   0.00000  Uiso   1.00
C179   C     0.36986   0.34312   0.72848   0.00000  Uiso   1.00
C180   C     0.15684   0.36991   0.27162   0.00000  Uiso   1.00
C181   C     0.34312   0.13014   0.72848   0.00000  Uiso   1.00
C182   C     0.09813   0.34813   0.25000   0.00000  Uiso   1.00
C183   C     0.40187   0.15187   0.75000   0.00000  Uiso   1.00
C184   C     0.15187   0.09813   0.25000   0.00000  Uiso   1.00
H185   H     0.11548   0.43139   0.21158   0.00000  Uiso   1.00
H186   H     0.38466   0.43151   0.21184   0.00000  Uiso   1.00
H187   H     0.40698   0.15432   0.46670   0.00000  Uiso   1.00
H188   H     0.42405   0.13328   0.51034   0.00000  Uiso   1.00
H189   H     0.39551   0.17340   0.51340   0.00000  Uiso   1.00
H190   H     0.31169   0.03938   0.47532   0.00000  Uiso   1.00
H191   H     0.33140   0.02744   0.52154   0.00000  Uiso   1.00
H192   H     0.34568   0.09302   0.53330   0.00000  Uiso   1.00
H193   H     0.36672   0.07595   0.48966   0.00000  Uiso   1.00
H194   H     0.32660   0.10449   0.48660   0.00000  Uiso   1.00
H195   H     0.31169   0.46062   0.52468   0.00000  Uiso   1.00
H196   H     0.33140   0.47256   0.47846   0.00000  Uiso   1.00
H197   H     0.06861   0.38452   0.78842   0.00000  Uiso   1.00
H198   H     0.34568   0.40698   0.46670   0.00000  Uiso   1.00
H199   H     0.36672   0.42405   0.51034   0.00000  Uiso   1.00
H200   H     0.32660   0.39551   0.51340   0.00000  Uiso   1.00
H201   H     0.21118   0.08630   0.08668   0.00000  Uiso   1.00
H202   H     0.22535   0.06952   0.13347   0.00000  Uiso   1.00
H203   H     0.16065   0.07237   0.15593   0.00000  Uiso   1.00
H204   H     0.17760   0.11624   0.14024   0.00000  Uiso   1.00
H205   H     0.14728   0.09038   0.10939   0.00000  Uiso   1.00
H206   H     0.28882   0.08630   0.91332   0.00000  Uiso   1.00
H207   H     0.27465   0.06952   0.86653   0.00000  Uiso   1.00
H208   H     0.43151   0.11534   0.21184   0.00000  Uiso   1.00
H209   H     0.33935   0.07237   0.84407   0.00000  Uiso   1.00
H210   H     0.32240   0.11624   0.85977   0.00000  Uiso   1.00
H211   H     0.35272   0.09038   0.89061   0.00000  Uiso   1.00
H212   H     0.41370   0.21118   0.08668   0.00000  Uiso   1.00
H213   H     0.43048   0.22535   0.13347   0.00000  Uiso   1.00
H214   H     0.42763   0.16065   0.15593   0.00000  Uiso   1.00
H215   H     0.38376   0.17760   0.14024   0.00000  Uiso   1.00
H216   H     0.40962   0.14728   0.10939   0.00000  Uiso   1.00
H217   H     0.41370   0.28882   0.91332   0.00000  Uiso   1.00
H218   H     0.43048   0.27465   0.86653   0.00000  Uiso   1.00
H219   H     0.38452   0.43139   0.78842   0.00000  Uiso   1.00
H220   H     0.42763   0.33935   0.84407   0.00000  Uiso   1.00
H221   H     0.38376   0.32240   0.85977   0.00000  Uiso   1.00
H222   H     0.40962   0.35272   0.89061   0.00000  Uiso   1.00
H223   H     0.28882   0.41370   0.08668   0.00000  Uiso   1.00
H224   H     0.27465   0.43048   0.13347   0.00000  Uiso   1.00
H225   H     0.33935   0.42763   0.15593   0.00000  Uiso   1.00
H226   H     0.32240   0.38376   0.14024   0.00000  Uiso   1.00
H227   H     0.35272   0.40962   0.10939   0.00000  Uiso   1.00
H228   H     0.21118   0.41370   0.91332   0.00000  Uiso   1.00
H229   H     0.22535   0.43048   0.86653   0.00000  Uiso   1.00
H230   H     0.11534   0.06849   0.21184   0.00000  Uiso   1.00
H231   H     0.16065   0.42763   0.84407   0.00000  Uiso   1.00
H232   H     0.17760   0.38376   0.85977   0.00000  Uiso   1.00
H233   H     0.14728   0.40962   0.89061   0.00000  Uiso   1.00
H234   H     0.08630   0.28882   0.08668   0.00000  Uiso   1.00
H235   H     0.06952   0.27465   0.13347   0.00000  Uiso   1.00
H236   H     0.07237   0.33935   0.15593   0.00000  Uiso   1.00
H237   H     0.11624   0.32240   0.14024   0.00000  Uiso   1.00
H238   H     0.09038   0.35272   0.10939   0.00000  Uiso   1.00
H239   H     0.08630   0.21118   0.91332   0.00000  Uiso   1.00
H240   H     0.06952   0.22535   0.86653   0.00000  Uiso   1.00
H241   H     0.43139   0.11548   0.78842   0.00000  Uiso   1.00
H242   H     0.07237   0.16065   0.84407   0.00000  Uiso   1.00
H243   H     0.11624   0.17760   0.85977   0.00000  Uiso   1.00
H244   H     0.09038   0.14728   0.89061   0.00000  Uiso   1.00
H245   H     0.46118   0.33630   0.58668   0.00000  Uiso   1.00
H246   H     0.47535   0.31952   0.63347   0.00000  Uiso   1.00
H247   H     0.41065   0.32237   0.65593   0.00000  Uiso   1.00
H248   H     0.42760   0.36624   0.64024   0.00000  Uiso   1.00
H249   H     0.39728   0.34038   0.60939   0.00000  Uiso   1.00
H250   H     0.03882   0.33630   0.41332   0.00000  Uiso   1.00
H251   H     0.02465   0.31952   0.36653   0.00000  Uiso   1.00
H252   H     0.06849   0.38466   0.21184   0.00000  Uiso   1.00
H253   H     0.08935   0.32237   0.34407   0.00000  Uiso   1.00
H254   H     0.07240   0.36624   0.35977   0.00000  Uiso   1.00
H255   H     0.10272   0.34038   0.39061   0.00000  Uiso   1.00
H256   H     0.16370   0.46118   0.58668   0.00000  Uiso   1.00
H257   H     0.18048   0.47535   0.63347   0.00000  Uiso   1.00
H258   H     0.17763   0.41065   0.65593   0.00000  Uiso   1.00
H259   H     0.13376   0.42760   0.64024   0.00000  Uiso   1.00
H260   H     0.15962   0.39728   0.60939   0.00000  Uiso   1.00
H261   H     0.16370   0.03882   0.41332   0.00000  Uiso   1.00
H262   H     0.18048   0.02465   0.36653   0.00000  Uiso   1.00
H263   H     0.36548   0.18139   0.71158   0.00000  Uiso   1.00
H264   H     0.17763   0.08935   0.34407   0.00000  Uiso   1.00
H265   H     0.13376   0.07240   0.35977   0.00000  Uiso   1.00
H266   H     0.15962   0.10272   0.39061   0.00000  Uiso   1.00
H267   H     0.03882   0.16370   0.58668   0.00000  Uiso   1.00
H268   H     0.02465   0.18048   0.63347   0.00000  Uiso   1.00
H269   H     0.08935   0.17763   0.65593   0.00000  Uiso   1.00
H270   H     0.07240   0.13376   0.64024   0.00000  Uiso   1.00
H271   H     0.10272   0.15962   0.60939   0.00000  Uiso   1.00
H272   H     0.46118   0.16370   0.41332   0.00000  Uiso   1.00
H273   H     0.47535   0.18048   0.36653   0.00000  Uiso   1.00
H274   H     0.13466   0.31849   0.28816   0.00000  Uiso   1.00
H275   H     0.41065   0.17763   0.34407   0.00000  Uiso   1.00
H276   H     0.42760   0.13376   0.35977   0.00000  Uiso   1.00
H277   H     0.39728   0.15962   0.39061   0.00000  Uiso   1.00
H278   H     0.33630   0.03882   0.58668   0.00000  Uiso   1.00
H279   H     0.31952   0.02465   0.63347   0.00000  Uiso   1.00
H280   H     0.32237   0.08935   0.65593   0.00000  Uiso   1.00
H281   H     0.36624   0.07240   0.64024   0.00000  Uiso   1.00
H282   H     0.34038   0.10272   0.60939   0.00000  Uiso   1.00
H283   H     0.33630   0.46118   0.41332   0.00000  Uiso   1.00
H284   H     0.31952   0.47535   0.36653   0.00000  Uiso   1.00
H285   H     0.31861   0.36548   0.71158   0.00000  Uiso   1.00
H286   H     0.32237   0.41065   0.34407   0.00000  Uiso   1.00
H287   H     0.36624   0.42760   0.35977   0.00000  Uiso   1.00
H288   H     0.34038   0.39728   0.39061   0.00000  Uiso   1.00
H289   H     0.38466   0.06849   0.78816   0.00000  Uiso   1.00
H290   H     0.18151   0.13466   0.28816   0.00000  Uiso   1.00
H291   H     0.13452   0.31861   0.71158   0.00000  Uiso   1.00
H292   H     0.36534   0.18151   0.28816   0.00000  Uiso   1.00
H293   H     0.18139   0.13452   0.71158   0.00000  Uiso   1.00
H294   H     0.31849   0.36534   0.28816   0.00000  Uiso   1.00
H295   H     0.36548   0.31861   0.28842   0.00000  Uiso   1.00
H296   H     0.13466   0.18151   0.71184   0.00000  Uiso   1.00
H297   H     0.31861   0.13452   0.28842   0.00000  Uiso   1.00
H298   H     0.18151   0.36534   0.71184   0.00000  Uiso   1.00
H299   H     0.13452   0.18139   0.28842   0.00000  Uiso   1.00
H300   H     0.06861   0.11548   0.21158   0.00000  Uiso   1.00
H301   H     0.36534   0.31849   0.71184   0.00000  Uiso   1.00
H302   H     0.18139   0.36548   0.28842   0.00000  Uiso   1.00
H303   H     0.31849   0.13466   0.71184   0.00000  Uiso   1.00
H304   H     0.21062   0.06169   0.97532   0.00000  Uiso   1.00
H305   H     0.22256   0.08140   0.02154   0.00000  Uiso   1.00
H306   H     0.15698   0.09568   0.03330   0.00000  Uiso   1.00
H307   H     0.17405   0.11672   0.98966   0.00000  Uiso   1.00
H308   H     0.14551   0.07660   0.98660   0.00000  Uiso   1.00
H309   H     0.28938   0.06169   0.02468   0.00000  Uiso   1.00
H310   H     0.27744   0.08140   0.97846   0.00000  Uiso   1.00
H311   H     0.43151   0.38466   0.78816   0.00000  Uiso   1.00
H312   H     0.34302   0.09568   0.96670   0.00000  Uiso   1.00
H313   H     0.32595   0.11672   0.01034   0.00000  Uiso   1.00
H314   H     0.35449   0.07660   0.01340   0.00000  Uiso   1.00
H315   H     0.43831   0.21062   0.97532   0.00000  Uiso   1.00
H316   H     0.41860   0.22256   0.02154   0.00000  Uiso   1.00
H317   H     0.40432   0.15698   0.03330   0.00000  Uiso   1.00
H318   H     0.38328   0.17405   0.98966   0.00000  Uiso   1.00
H319   H     0.42340   0.14551   0.98660   0.00000  Uiso   1.00
H320   H     0.43831   0.28938   0.02468   0.00000  Uiso   1.00
H321   H     0.41860   0.27744   0.97846   0.00000  Uiso   1.00
H322   H     0.38452   0.06861   0.21158   0.00000  Uiso   1.00
H323   H     0.40432   0.34302   0.96670   0.00000  Uiso   1.00
H324   H     0.38328   0.32595   0.01034   0.00000  Uiso   1.00
H325   H     0.42340   0.35449   0.01340   0.00000  Uiso   1.00
H326   H     0.28938   0.43831   0.97532   0.00000  Uiso   1.00
H327   H     0.27744   0.41860   0.02154   0.00000  Uiso   1.00
H328   H     0.34302   0.40432   0.03330   0.00000  Uiso   1.00
H329   H     0.32595   0.38328   0.98966   0.00000  Uiso   1.00
H330   H     0.35449   0.42340   0.98660   0.00000  Uiso   1.00
H331   H     0.21062   0.43831   0.02468   0.00000  Uiso   1.00
H332   H     0.22256   0.41860   0.97846   0.00000  Uiso   1.00
H333   H     0.11534   0.43151   0.78816   0.00000  Uiso   1.00
H334   H     0.15698   0.40432   0.96670   0.00000  Uiso   1.00
H335   H     0.17405   0.38328   0.01034   0.00000  Uiso   1.00
H336   H     0.14551   0.42340   0.01340   0.00000  Uiso   1.00
H337   H     0.06169   0.28938   0.97532   0.00000  Uiso   1.00
H338   H     0.08140   0.27744   0.02154   0.00000  Uiso   1.00
H339   H     0.09568   0.34302   0.03330   0.00000  Uiso   1.00
H340   H     0.11672   0.32595   0.98966   0.00000  Uiso   1.00
H341   H     0.07660   0.35449   0.98660   0.00000  Uiso   1.00
H342   H     0.06169   0.21062   0.02468   0.00000  Uiso   1.00
H343   H     0.08140   0.22256   0.97846   0.00000  Uiso   1.00
H344   H     0.43139   0.38452   0.21158   0.00000  Uiso   1.00
H345   H     0.09568   0.15698   0.96670   0.00000  Uiso   1.00
H346   H     0.11672   0.17405   0.01034   0.00000  Uiso   1.00
H347   H     0.07660   0.14551   0.01340   0.00000  Uiso   1.00
H348   H     0.46062   0.31169   0.47532   0.00000  Uiso   1.00
H349   H     0.47256   0.33140   0.52154   0.00000  Uiso   1.00
H350   H     0.40698   0.34568   0.53330   0.00000  Uiso   1.00
H351   H     0.42405   0.36672   0.48966   0.00000  Uiso   1.00
H352   H     0.39551   0.32660   0.48660   0.00000  Uiso   1.00
H353   H     0.03938   0.31169   0.52468   0.00000  Uiso   1.00
H354   H     0.02744   0.33140   0.47846   0.00000  Uiso   1.00
H355   H     0.06849   0.11534   0.78816   0.00000  Uiso   1.00
H356   H     0.09302   0.34568   0.46670   0.00000  Uiso   1.00
H357   H     0.07595   0.36672   0.51034   0.00000  Uiso   1.00
H358   H     0.10449   0.32660   0.51340   0.00000  Uiso   1.00
H359   H     0.18831   0.46062   0.47532   0.00000  Uiso   1.00
H360   H     0.16860   0.47256   0.52154   0.00000  Uiso   1.00
H361   H     0.15432   0.40698   0.53330   0.00000  Uiso   1.00
H362   H     0.13328   0.42405   0.48966   0.00000  Uiso   1.00
H363   H     0.17340   0.39551   0.48660   0.00000  Uiso   1.00
H364   H     0.18831   0.03938   0.52468   0.00000  Uiso   1.00
H365   H     0.16860   0.02744   0.47846   0.00000  Uiso   1.00
H366   H     0.11548   0.06861   0.78842   0.00000  Uiso   1.00
H367   H     0.15432   0.09302   0.46670   0.00000  Uiso   1.00
H368   H     0.13328   0.07595   0.51034   0.00000  Uiso   1.00
H369   H     0.17340   0.10449   0.51340   0.00000  Uiso   1.00
H370   H     0.03938   0.18831   0.47532   0.00000  Uiso   1.00
H371   H     0.02744   0.16860   0.52154   0.00000  Uiso   1.00
H372   H     0.09302   0.15432   0.53330   0.00000  Uiso   1.00
H373   H     0.07595   0.13328   0.48966   0.00000  Uiso   1.00
H374   H     0.10449   0.17340   0.48660   0.00000  Uiso   1.00
H375   H     0.46062   0.18831   0.52468   0.00000  Uiso   1.00
H376   H     0.47256   0.16860   0.47846   0.00000  Uiso   1.00
O377   O     0.25000   0.00000   0.25000   0.00000  Uiso   1.00
O378   O     0.25000   0.46964   0.66317   0.00000  Uiso   1.00
O379   O     0.46964   0.25000   0.33683   0.00000  Uiso   1.00
O380   O     0.03036   0.25000   0.66317   0.00000  Uiso   1.00
O381   O     0.00000   0.21964   0.83683   0.00000  Uiso   1.00
O382   O     0.00000   0.28036   0.16317   0.00000  Uiso   1.00
O383   O     0.28036   0.00000   0.83683   0.00000  Uiso   1.00
O384   O     0.21964   0.00000   0.16317   0.00000  Uiso   1.00
O385   O     0.00000   0.28036   0.83683   0.00000  Uiso   1.00
O386   O     0.00000   0.21964   0.16317   0.00000  Uiso   1.00
O387   O     0.21964   0.00000   0.83683   0.00000  Uiso   1.00
O388   O     0.25000   0.00000   0.75000   0.00000  Uiso   1.00
O389   O     0.28036   0.00000   0.16317   0.00000  Uiso   1.00
O390   O     0.20725   0.07307   0.27282   0.00000  Uiso   1.00
O391   O     0.29274   0.42693   0.72718   0.00000  Uiso   1.00
O392   O     0.42693   0.20726   0.27282   0.00000  Uiso   1.00
O393   O     0.07307   0.29274   0.72718   0.00000  Uiso   1.00
O394   O     0.29274   0.42693   0.27282   0.00000  Uiso   1.00
O395   O     0.20725   0.07307   0.72718   0.00000  Uiso   1.00
O396   O     0.07307   0.29274   0.27282   0.00000  Uiso   1.00
O397   O     0.42693   0.20726   0.72718   0.00000  Uiso   1.00
O398   O     0.20725   0.42693   0.72718   0.00000  Uiso   1.00
O399   O     0.00000   0.25000   0.25000   0.00000  Uiso   1.00
O400   O     0.29274   0.07307   0.27282   0.00000  Uiso   1.00
O401   O     0.42693   0.29275   0.72718   0.00000  Uiso   1.00
O402   O     0.07307   0.20725   0.27282   0.00000  Uiso   1.00
O403   O     0.29274   0.07307   0.72718   0.00000  Uiso   1.00
O404   O     0.20725   0.42693   0.27282   0.00000  Uiso   1.00
O405   O     0.07307   0.20725   0.72718   0.00000  Uiso   1.00
O406   O     0.42693   0.29275   0.27282   0.00000  Uiso   1.00
O407   O     0.45725   0.32307   0.77282   0.00000  Uiso   1.00
O408   O     0.04274   0.17693   0.22718   0.00000  Uiso   1.00
O409   O     0.17693   0.45725   0.77282   0.00000  Uiso   1.00
O410   O    -0.00000   0.25000   0.75000   0.00000  Uiso   1.00
O411   O     0.32307   0.04275   0.22718   0.00000  Uiso   1.00
O412   O     0.04274   0.17693   0.77282   0.00000  Uiso   1.00
O413   O     0.45725   0.32307   0.22718   0.00000  Uiso   1.00
O414   O     0.32307   0.04275   0.77282   0.00000  Uiso   1.00
O415   O     0.17693   0.45725   0.22718   0.00000  Uiso   1.00
O416   O     0.45725   0.17693   0.22718   0.00000  Uiso   1.00
O417   O     0.04274   0.32307   0.77282   0.00000  Uiso   1.00
O418   O     0.17693   0.04275   0.22718   0.00000  Uiso   1.00
O419   O     0.32307   0.45725   0.77282   0.00000  Uiso   1.00
O420   O     0.04274   0.32307   0.22718   0.00000  Uiso   1.00
O421   O     0.25000   0.46964   0.33683   0.00000  Uiso   1.00
O422   O     0.45725   0.17693   0.77282   0.00000  Uiso   1.00
O423   O     0.32307   0.45725   0.22718   0.00000  Uiso   1.00
O424   O     0.17693   0.04275   0.77282   0.00000  Uiso   1.00
O425   O     0.19169   0.03248   0.02256   0.00000  Uiso   1.00
O426   O     0.30831   0.03248   0.97744   0.00000  Uiso   1.00
O427   O     0.46752   0.19169   0.02256   0.00000  Uiso   1.00
O428   O     0.46752   0.30831   0.97744   0.00000  Uiso   1.00
O429   O     0.30831   0.46752   0.02256   0.00000  Uiso   1.00
O430   O     0.19169   0.46752   0.97744   0.00000  Uiso   1.00
O431   O     0.03248   0.30831   0.02256   0.00000  Uiso   1.00
O432   O     0.25000   0.03036   0.66317   0.00000  Uiso   1.00
O433   O     0.03248   0.19169   0.97744   0.00000  Uiso   1.00
O434   O     0.44169   0.28248   0.52256   0.00000  Uiso   1.00
O435   O     0.05831   0.28248   0.47744   0.00000  Uiso   1.00
O436   O     0.21752   0.44169   0.52256   0.00000  Uiso   1.00
O437   O     0.21752   0.05831   0.47744   0.00000  Uiso   1.00
O438   O     0.05831   0.21752   0.52256   0.00000  Uiso   1.00
O439   O     0.44169   0.21752   0.47744   0.00000  Uiso   1.00
O440   O     0.28248   0.05831   0.52256   0.00000  Uiso   1.00
O441   O     0.28248   0.44169   0.47744   0.00000  Uiso   1.00
O442   O     0.19278   0.03394   0.10117   0.00000  Uiso   1.00
O443   O     0.03036   0.25000   0.33683   0.00000  Uiso   1.00
O444   O     0.30722   0.03394   0.89883   0.00000  Uiso   1.00
O445   O     0.46606   0.19278   0.10117   0.00000  Uiso   1.00
O446   O     0.46606   0.30722   0.89883   0.00000  Uiso   1.00
O447   O     0.30722   0.46606   0.10117   0.00000  Uiso   1.00
O448   O     0.19278   0.46606   0.89883   0.00000  Uiso   1.00
O449   O     0.03394   0.30722   0.10117   0.00000  Uiso   1.00
O450   O     0.03394   0.19278   0.89883   0.00000  Uiso   1.00
O451   O     0.44278   0.28394   0.60117   0.00000  Uiso   1.00
O452   O     0.05722   0.28394   0.39883   0.00000  Uiso   1.00
O453   O     0.21606   0.44278   0.60117   0.00000  Uiso   1.00
O454   O     0.46964   0.25000   0.66317   0.00000  Uiso   1.00
O455   O     0.21606   0.05722   0.39883   0.00000  Uiso   1.00
O456   O     0.05722   0.21606   0.60117   0.00000  Uiso   1.00
O457   O     0.44278   0.21606   0.39883   0.00000  Uiso   1.00
O458   O     0.28394   0.05722   0.60117   0.00000  Uiso   1.00
O459   O     0.28394   0.44278   0.39883   0.00000  Uiso   1.00
O460   O     0.25000   0.03036   0.33683   0.00000  Uiso   1.00
Zn461  Zn    0.20660  -0.00000   0.21760   0.00000  Uiso   1.00
Zn462  Zn    0.04340   0.25000   0.28240   0.00000  Uiso   1.00
Zn463  Zn    0.25000   0.45660   0.71760   0.00000  Uiso   1.00
Zn464  Zn    0.25000   0.04340   0.28240   0.00000  Uiso   1.00
Zn465  Zn    0.04340   0.25000   0.71760   0.00000  Uiso   1.00
Zn466  Zn    0.45660   0.25000   0.28240   0.00000  Uiso   1.00
Zn467  Zn    0.25000   0.04340   0.71760   0.00000  Uiso   1.00
Zn468  Zn    0.25000   0.45660   0.28240   0.00000  Uiso   1.00
Zn469  Zn    0.29340  -0.00000   0.78240   0.00000  Uiso   1.00
Zn470  Zn   -0.00000   0.20660   0.21760   0.00000  Uiso   1.00
Zn471  Zn   -0.00000   0.29340   0.78240   0.00000  Uiso   1.00
Zn472  Zn    0.29340  -0.00000   0.21760   0.00000  Uiso   1.00
Zn473  Zn    0.20660  -0.00000   0.78240   0.00000  Uiso   1.00
Zn474  Zn   -0.00000   0.29340   0.21760   0.00000  Uiso   1.00
Zn475  Zn   -0.00000   0.20660   0.78240   0.00000  Uiso   1.00
Zn476  Zn    0.45660   0.25000   0.71760   0.00000  Uiso   1.00
C477   C     0.72157   0.01763   0.04152   0.00000  Uiso   1.00
C478   C     0.52843   0.26763   0.45848   0.00000  Uiso   1.00
C479   C     0.84813   0.40187   0.75000   0.00000  Uiso   1.00
C480   C     0.90187   0.15187   0.25000   0.00000  Uiso   1.00
C481   C     0.59813   0.34813   0.75000   0.00000  Uiso   1.00
C482   C     0.84813   0.40187   0.25000   0.00000  Uiso   1.00
C483   C     0.65187   0.09813   0.75000   0.00000  Uiso   1.00
C484   C     0.59813   0.15187   0.75000   0.00000  Uiso   1.00
C485   C     0.90187   0.34813   0.25000   0.00000  Uiso   1.00
C486   C     0.65187   0.40187   0.75000   0.00000  Uiso   1.00
C487   C     0.84813   0.09813   0.25000   0.00000  Uiso   1.00
C488   C     0.90187   0.34813   0.75000   0.00000  Uiso   1.00
C489   C     0.73237   0.47157   0.54152   0.00000  Uiso   1.00
C490   C     0.59813   0.15187   0.25000   0.00000  Uiso   1.00
C491   C     0.84813   0.09813   0.75000   0.00000  Uiso   1.00
C492   C     0.65187   0.40187   0.25000   0.00000  Uiso   1.00
C493   C     0.75000   0.00000   0.10234   0.00000  Uiso   1.00
C494   C     0.75000   0.00000   0.89767   0.00000  Uiso   1.00
C495   C     0.50000   0.25000   0.10234   0.00000  Uiso   1.00
C496   C     0.50000   0.25000   0.89767   0.00000  Uiso   1.00
C497   C     0.50000   0.25000   0.60234   0.00000  Uiso   1.00
C498   C     0.50000   0.25000   0.39767   0.00000  Uiso   1.00
C499   C     0.75000  -0.00000   0.60234   0.00000  Uiso   1.00
C500   C     0.73237   0.02843   0.45848   0.00000  Uiso   1.00
C501   C     0.75000  -0.00000   0.39767   0.00000  Uiso   1.00
C502   C     0.70105   0.06625   0.00538   0.00000  Uiso   1.00
C503   C     0.66725   0.09030   0.00365   0.00000  Uiso   1.00
C504   C     0.79895   0.06625   0.99462   0.00000  Uiso   1.00
C505   C     0.83275   0.09030   0.99635   0.00000  Uiso   1.00
C506   C     0.93375   0.20105   0.00538   0.00000  Uiso   1.00
C507   C     0.90970   0.16725   0.00365   0.00000  Uiso   1.00
C508   C     0.93375   0.29895   0.99462   0.00000  Uiso   1.00
C509   C     0.90970   0.33275   0.99635   0.00000  Uiso   1.00
C510   C     0.79895   0.43375   0.00538   0.00000  Uiso   1.00
C511   C     0.52843   0.23237   0.54152   0.00000  Uiso   1.00
C512   C     0.83275   0.40970   0.00365   0.00000  Uiso   1.00
C513   C     0.70105   0.43375   0.99462   0.00000  Uiso   1.00
C514   C     0.66725   0.40970   0.99635   0.00000  Uiso   1.00
C515   C     0.56625   0.29895   0.00538   0.00000  Uiso   1.00
C516   C     0.59030   0.33275   0.00365   0.00000  Uiso   1.00
C517   C     0.56625   0.20105   0.99462   0.00000  Uiso   1.00
C518   C     0.59030   0.16725   0.99635   0.00000  Uiso   1.00
C519   C     0.95105   0.31625   0.50538   0.00000  Uiso   1.00
C520   C     0.91725   0.34030   0.50365   0.00000  Uiso   1.00
C521   C     0.54895   0.31625   0.49462   0.00000  Uiso   1.00
C522   C     0.97157   0.23237   0.45848   0.00000  Uiso   1.00
C523   C     0.58275   0.34030   0.49635   0.00000  Uiso   1.00
C524   C     0.68375   0.45105   0.50538   0.00000  Uiso   1.00
C525   C     0.65970   0.41725   0.50365   0.00000  Uiso   1.00
C526   C     0.68375   0.04895   0.49462   0.00000  Uiso   1.00
C527   C     0.65970   0.08275   0.49635   0.00000  Uiso   1.00
C528   C     0.54895   0.18375   0.50538   0.00000  Uiso   1.00
C529   C     0.58275   0.15970   0.50365   0.00000  Uiso   1.00
C530   C     0.95105   0.18375   0.49462   0.00000  Uiso   1.00
C531   C     0.91725   0.15970   0.49635   0.00000  Uiso   1.00
C532   C     0.81625   0.04895   0.50538   0.00000  Uiso   1.00
C533   C     0.76763   0.02843   0.54152   0.00000  Uiso   1.00
C534   C     0.84030   0.08275   0.50365   0.00000  Uiso   1.00
C535   C     0.81625   0.45105   0.49462   0.00000  Uiso   1.00
C536   C     0.84030   0.41725   0.49635   0.00000  Uiso   1.00
C537   C     0.70269   0.06977   0.11206   0.00000  Uiso   1.00
C538   C     0.66997   0.08837   0.13057   0.00000  Uiso   1.00
C539   C     0.79731   0.06977   0.88794   0.00000  Uiso   1.00
C540   C     0.83003   0.08837   0.86943   0.00000  Uiso   1.00
C541   C     0.93023   0.20269   0.11206   0.00000  Uiso   1.00
C542   C     0.91163   0.16997   0.13057   0.00000  Uiso   1.00
C543   C     0.93023   0.29731   0.88794   0.00000  Uiso   1.00
C544   C     0.76763   0.47157   0.45848   0.00000  Uiso   1.00
C545   C     0.91163   0.33003   0.86943   0.00000  Uiso   1.00
C546   C     0.79731   0.43023   0.11206   0.00000  Uiso   1.00
C547   C     0.83003   0.41163   0.13057   0.00000  Uiso   1.00
C548   C     0.70269   0.43023   0.88794   0.00000  Uiso   1.00
C549   C     0.66997   0.41163   0.86943   0.00000  Uiso   1.00
C550   C     0.56977   0.29731   0.11206   0.00000  Uiso   1.00
C551   C     0.58837   0.33003   0.13057   0.00000  Uiso   1.00
C552   C     0.56977   0.20269   0.88794   0.00000  Uiso   1.00
C553   C     0.58837   0.16997   0.86943   0.00000  Uiso   1.00
C554   C     0.95269   0.31977   0.61206   0.00000  Uiso   1.00
C555   C     0.72173   0.01780   0.08193   0.00000  Uiso   1.00
C556   C     0.91997   0.33837   0.63057   0.00000  Uiso   1.00
C557   C     0.54731   0.31977   0.38794   0.00000  Uiso   1.00
C558   C     0.58003   0.33837   0.36943   0.00000  Uiso   1.00
C559   C     0.68023   0.45269   0.61206   0.00000  Uiso   1.00
C560   C     0.66163   0.41997   0.63057   0.00000  Uiso   1.00
C561   C     0.68023   0.04731   0.38794   0.00000  Uiso   1.00
C562   C     0.66163   0.08003   0.36943   0.00000  Uiso   1.00
C563   C     0.54731   0.18023   0.61206   0.00000  Uiso   1.00
C564   C     0.58003   0.16163   0.63057   0.00000  Uiso   1.00
C565   C     0.95269   0.18023   0.38794   0.00000  Uiso   1.00
C566   C     0.77827   0.01780   0.91807   0.00000  Uiso   1.00
C567   C     0.91997   0.16163   0.36943   0.00000  Uiso   1.00
C568   C     0.81977   0.04731   0.61206   0.00000  Uiso   1.00
C569   C     0.83837   0.08003   0.63057   0.00000  Uiso   1.00
C570   C     0.81977   0.45269   0.38794   0.00000  Uiso   1.00
C571   C     0.83837   0.41997   0.36943   0.00000  Uiso   1.00
C572   C     0.98220   0.22173   0.08193   0.00000  Uiso   1.00
C573   C     0.77843   0.01763   0.95848   0.00000  Uiso   1.00
C574   C     0.98220   0.27827   0.91807   0.00000  Uiso   1.00
C575   C     0.77827   0.48220   0.08193   0.00000  Uiso   1.00
C576   C     0.72173   0.48220   0.91807   0.00000  Uiso   1.00
C577   C     0.51779   0.27827   0.08193   0.00000  Uiso   1.00
C578   C     0.51779   0.22173   0.91807   0.00000  Uiso   1.00
C579   C     0.97173   0.26780   0.58193   0.00000  Uiso   1.00
C580   C     0.52827   0.26779   0.41807   0.00000  Uiso   1.00
C581   C     0.73220   0.47173   0.58193   0.00000  Uiso   1.00
C582   C     0.73220   0.02827   0.41807   0.00000  Uiso   1.00
C583   C     0.52827   0.23220   0.58193   0.00000  Uiso   1.00
C584   C     0.98237   0.22157   0.04152   0.00000  Uiso   1.00
C585   C     0.97173   0.23221   0.41807   0.00000  Uiso   1.00
C586   C     0.76779   0.02827   0.58193   0.00000  Uiso   1.00
C587   C     0.76779   0.47173   0.41807   0.00000  Uiso   1.00
C588   C     0.75000  -0.00000   0.02122   0.00000  Uiso   1.00
C589   C     0.75000  -0.00000   0.97879   0.00000  Uiso   1.00
C590   C     0.50000   0.25000   0.02122   0.00000  Uiso   1.00
C591   C     0.50000   0.25000   0.97879   0.00000  Uiso   1.00
C592   C     0.50000   0.25000   0.52122   0.00000  Uiso   1.00
C593   C     0.50000   0.25000   0.47879   0.00000  Uiso   1.00
C594   C     0.75000   0.00000   0.52122   0.00000  Uiso   1.00
C595   C     0.98237   0.27843   0.95848   0.00000  Uiso   1.00
C596   C     0.75000  -0.00000   0.47879   0.00000  Uiso   1.00
C597   C     0.75000  -0.00000   0.35521   0.00000  Uiso   1.00
C598   C     0.75000  -0.00000   0.64479   0.00000  Uiso   1.00
C599   C     0.50000   0.25000   0.35521   0.00000  Uiso   1.00
C600   C     0.50000   0.25000   0.64479   0.00000  Uiso   1.00
C601   C     0.50000   0.25000   0.85521   0.00000  Uiso   1.00
C602   C     0.50000   0.25000   0.14479   0.00000  Uiso   1.00
C603   C     0.75000   0.00000   0.85521   0.00000  Uiso   1.00
C604   C     0.75000   0.00000   0.14479   0.00000  Uiso   1.00
C605   C     0.67993   0.07007   0.25000   0.00000  Uiso   1.00
C606   C     0.77843   0.48237   0.04152   0.00000  Uiso   1.00
C607   C     0.82007   0.42993   0.75000   0.00000  Uiso   1.00
C608   C     0.92993   0.17993   0.25000   0.00000  Uiso   1.00
C609   C     0.57007   0.32007   0.75000   0.00000  Uiso   1.00
C610   C     0.82007   0.42993   0.25000   0.00000  Uiso   1.00
C611   C     0.67993   0.07007   0.75000   0.00000  Uiso   1.00
C612   C     0.57007   0.32007   0.25000   0.00000  Uiso   1.00
C613   C     0.92993   0.17993   0.75000   0.00000  Uiso   1.00
C614   C     0.67993   0.42993   0.75000   0.00000  Uiso   1.00
C615   C     0.82007   0.07007   0.25000   0.00000  Uiso   1.00
C616   C     0.92993   0.32007   0.75000   0.00000  Uiso   1.00
C617   C     0.72157   0.48237   0.95848   0.00000  Uiso   1.00
C618   C     0.57007   0.17993   0.25000   0.00000  Uiso   1.00
C619   C     0.82007   0.07007   0.75000   0.00000  Uiso   1.00
C620   C     0.67993   0.42993   0.25000   0.00000  Uiso   1.00
C621   C     0.57007   0.17993   0.75000   0.00000  Uiso   1.00
C622   C     0.92993   0.32007   0.25000   0.00000  Uiso   1.00
C623   C     0.61991   0.40684   0.22838   0.00000  Uiso   1.00
C624   C     0.88014   0.09312   0.77152   0.00000  Uiso   1.00
C625   C     0.59316   0.11991   0.22838   0.00000  Uiso   1.00
C626   C     0.90688   0.38014   0.77152   0.00000  Uiso   1.00
C627   C     0.88009   0.09316   0.22838   0.00000  Uiso   1.00
C628   C     0.51763   0.27843   0.04152   0.00000  Uiso   1.00
C629   C     0.61986   0.40688   0.77152   0.00000  Uiso   1.00
C630   C     0.90684   0.38009   0.22838   0.00000  Uiso   1.00
C631   C     0.59312   0.11986   0.77152   0.00000  Uiso   1.00
C632   C     0.61991   0.09316   0.77162   0.00000  Uiso   1.00
C633   C     0.88014   0.40688   0.22848   0.00000  Uiso   1.00
C634   C     0.59316   0.38009   0.77162   0.00000  Uiso   1.00
C635   C     0.90688   0.11986   0.22848   0.00000  Uiso   1.00
C636   C     0.88009   0.40684   0.77162   0.00000  Uiso   1.00
C637   C     0.61986   0.09312   0.22848   0.00000  Uiso   1.00
C638   C     0.90684   0.11991   0.77162   0.00000  Uiso   1.00
C639   C     0.51763   0.22157   0.95848   0.00000  Uiso   1.00
C640   C     0.59312   0.38014   0.22848   0.00000  Uiso   1.00
C641   C     0.86991   0.15684   0.72838   0.00000  Uiso   1.00
C642   C     0.63014   0.34312   0.27152   0.00000  Uiso   1.00
C643   C     0.84316   0.36991   0.72838   0.00000  Uiso   1.00
C644   C     0.65688   0.13014   0.27152   0.00000  Uiso   1.00
C645   C     0.63009   0.34316   0.72838   0.00000  Uiso   1.00
C646   C     0.86986   0.15688   0.27152   0.00000  Uiso   1.00
C647   C     0.65684   0.13009   0.72838   0.00000  Uiso   1.00
C648   C     0.84312   0.36986   0.27152   0.00000  Uiso   1.00
C649   C     0.86991   0.34316   0.27162   0.00000  Uiso   1.00
C650   C     0.97157   0.26763   0.54152   0.00000  Uiso   1.00
C651   C     0.63014   0.15688   0.72848   0.00000  Uiso   1.00
C652   C     0.84316   0.13009   0.27162   0.00000  Uiso   1.00
C653   C     0.65688   0.36986   0.72848   0.00000  Uiso   1.00
C654   C     0.63009   0.15684   0.27162   0.00000  Uiso   1.00
C655   C     0.86986   0.34312   0.72848   0.00000  Uiso   1.00
C656   C     0.65684   0.36991   0.27162   0.00000  Uiso   1.00
C657   C     0.84312   0.13014   0.72848   0.00000  Uiso   1.00
C658   C     0.59813   0.34813   0.25000   0.00000  Uiso   1.00
C659   C     0.90187   0.15187   0.75000   0.00000  Uiso   1.00
C660   C     0.65187   0.09813   0.25000   0.00000  Uiso   1.00
H661   H     0.61548   0.43139   0.21158   0.00000  Uiso   1.00
H662   H     0.88466   0.43151   0.21184   0.00000  Uiso   1.00
H663   H     0.90698   0.15432   0.46670   0.00000  Uiso   1.00
H664   H     0.92405   0.13328   0.51034   0.00000  Uiso   1.00
H665   H     0.89551   0.17340   0.51340   0.00000  Uiso   1.00
H666   H     0.81169   0.03938   0.47532   0.00000  Uiso   1.00
H667   H     0.83140   0.02744   0.52154   0.00000  Uiso   1.00
H668   H     0.84568   0.09302   0.53330   0.00000  Uiso   1.00
H669   H     0.86672   0.07595   0.48966   0.00000  Uiso   1.00
H670   H     0.82660   0.10449   0.48660   0.00000  Uiso   1.00
H671   H     0.81169   0.46062   0.52468   0.00000  Uiso   1.00
H672   H     0.83140   0.47256   0.47846   0.00000  Uiso   1.00
H673   H     0.56861   0.38452   0.78842   0.00000  Uiso   1.00
H674   H     0.84568   0.40698   0.46670   0.00000  Uiso   1.00
H675   H     0.86672   0.42405   0.51034   0.00000  Uiso   1.00
H676   H     0.82660   0.39551   0.51340   0.00000  Uiso   1.00
H677   H     0.71118   0.08630   0.08668   0.00000  Uiso   1.00
H678   H     0.72535   0.06952   0.13347   0.00000  Uiso   1.00
H679   H     0.66065   0.07237   0.15593   0.00000  Uiso   1.00
H680   H     0.67760   0.11624   0.14024   0.00000  Uiso   1.00
H681   H     0.64728   0.09038   0.10939   0.00000  Uiso   1.00
H682   H     0.78882   0.08630   0.91332   0.00000  Uiso   1.00
H683   H     0.77465   0.06952   0.86653   0.00000  Uiso   1.00
H684   H     0.93151   0.11534   0.21184   0.00000  Uiso   1.00
H685   H     0.83935   0.07237   0.84407   0.00000  Uiso   1.00
H686   H     0.82240   0.11624   0.85977   0.00000  Uiso   1.00
H687   H     0.85272   0.09038   0.89061   0.00000  Uiso   1.00
H688   H     0.91370   0.21118   0.08668   0.00000  Uiso   1.00
H689   H     0.93048   0.22535   0.13347   0.00000  Uiso   1.00
H690   H     0.92763   0.16065   0.15593   0.00000  Uiso   1.00
H691   H     0.88376   0.17760   0.14024   0.00000  Uiso   1.00
H692   H     0.90962   0.14728   0.10939   0.00000  Uiso   1.00
H693   H     0.91370   0.28882   0.91332   0.00000  Uiso   1.00
H694   H     0.93048   0.27465   0.86653   0.00000  Uiso   1.00
H695   H     0.88452   0.43139   0.78842   0.00000  Uiso   1.00
H696   H     0.92763   0.33935   0.84407   0.00000  Uiso   1.00
H697   H     0.88376   0.32240   0.85977   0.00000  Uiso   1.00
H698   H     0.90962   0.35272   0.89061   0.00000  Uiso   1.00
H699   H     0.78882   0.41370   0.08668   0.00000  Uiso   1.00
H700   H     0.77465   0.43048   0.13347   0.00000  Uiso   1.00
H701   H     0.83935   0.42763   0.15593   0.00000  Uiso   1.00
H702   H     0.82240   0.38376   0.14024   0.00000  Uiso   1.00
H703   H     0.85272   0.40962   0.10939   0.00000  Uiso   1.00
H704   H     0.71118   0.41370   0.91332   0.00000  Uiso   1.00
H705   H     0.72535   0.43048   0.86653   0.00000  Uiso   1.00
H706   H     0.61534   0.06849   0.21184   0.00000  Uiso   1.00
H707   H     0.66065   0.42763   0.84407   0.00000  Uiso   1.00
H708   H     0.67760   0.38376   0.85977   0.00000  Uiso   1.00
H709   H     0.64728   0.40962   0.89061   0.00000  Uiso   1.00
H710   H     0.58630   0.28882   0.08668   0.00000  Uiso   1.00
H711   H     0.56952   0.27465   0.13347   0.00000  Uiso   1.00
H712   H     0.57237   0.33935   0.15593   0.00000  Uiso   1.00
H713   H     0.61624   0.32240   0.14024   0.00000  Uiso   1.00
H714   H     0.59038   0.35272   0.10939   0.00000  Uiso   1.00
H715   H     0.58630   0.21118   0.91332   0.00000  Uiso   1.00
H716   H     0.56952   0.22535   0.86653   0.00000  Uiso   1.00
H717   H     0.93139   0.11548   0.78842   0.00000  Uiso   1.00
H718   H     0.57237   0.16065   0.84407   0.00000  Uiso   1.00
H719   H     0.61624   0.17760   0.85977   0.00000  Uiso   1.00
H720   H     0.59038   0.14728   0.89061   0.00000  Uiso   1.00
H721   H     0.96118   0.33630   0.58668   0.00000  Uiso   1.00
H722   H     0.97535   0.31952   0.63347   0.00000  Uiso   1.00
H723   H     0.91065   0.32237   0.65593   0.00000  Uiso   1.00
H724   H     0.92760   0.36624   0.64024   0.00000  Uiso   1.00
H725   H     0.89728   0.34038   0.60939   0.00000  Uiso   1.00
H726   H     0.53882   0.33630   0.41332   0.00000  Uiso   1.00
H727   H     0.52465   0.31952   0.36653   0.00000  Uiso   1.00
H728   H     0.56849   0.38466   0.21184   0.00000  Uiso   1.00
H729   H     0.58935   0.32237   0.34407   0.00000  Uiso   1.00
H730   H     0.57240   0.36624   0.35977   0.00000  Uiso   1.00
H731   H     0.60272   0.34038   0.39061   0.00000  Uiso   1.00
H732   H     0.66370   0.46118   0.58668   0.00000  Uiso   1.00
H733   H     0.68048   0.47535   0.63347   0.00000  Uiso   1.00
H734   H     0.67763   0.41065   0.65593   0.00000  Uiso   1.00
H735   H     0.63376   0.42760   0.64024   0.00000  Uiso   1.00
H736   H     0.65962   0.39728   0.60939   0.00000  Uiso   1.00
H737   H     0.66370   0.03882   0.41332   0.00000  Uiso   1.00
H738   H     0.68048   0.02465   0.36653   0.00000  Uiso   1.00
H739   H     0.86548   0.18139   0.71158   0.00000  Uiso   1.00
H740   H     0.67763   0.08935   0.34407   0.00000  Uiso   1.00
H741   H     0.63376   0.07240   0.35977   0.00000  Uiso   1.00
H742   H     0.65962   0.10272   0.39061   0.00000  Uiso   1.00
H743   H     0.53882   0.16370   0.58668   0.00000  Uiso   1.00
H744   H     0.52465   0.18048   0.63347   0.00000  Uiso   1.00
H745   H     0.58935   0.17763   0.65593   0.00000  Uiso   1.00
H746   H     0.57240   0.13376   0.64024   0.00000  Uiso   1.00
H747   H     0.60272   0.15962   0.60939   0.00000  Uiso   1.00
H748   H     0.96118   0.16370   0.41332   0.00000  Uiso   1.00
H749   H     0.97535   0.18048   0.36653   0.00000  Uiso   1.00
H750   H     0.63466   0.31849   0.28816   0.00000  Uiso   1.00
H751   H     0.91065   0.17763   0.34407   0.00000  Uiso   1.00
H752   H     0.92760   0.13376   0.35977   0.00000  Uiso   1.00
H753   H     0.89728   0.15962   0.39061   0.00000  Uiso   1.00
H754   H     0.83630   0.03882   0.58668   0.00000  Uiso   1.00
H755   H     0.81952   0.02465   0.63347   0.00000  Uiso   1.00
H756   H     0.82237   0.08935   0.65593   0.00000  Uiso   1.00
H757   H     0.86624   0.07240   0.64024   0.00000  Uiso   1.00
H758   H     0.84038   0.10272   0.60939   0.00000  Uiso   1.00
H759   H     0.83630   0.46118   0.41332   0.00000  Uiso   1.00
H760   H     0.81952   0.47535   0.36653   0.00000  Uiso   1.00
H761   H     0.81861   0.36548   0.71158   0.00000  Uiso   1.00
H762   H     0.82237   0.41065   0.34407   0.00000  Uiso   1.00
H763   H     0.86624   0.42760   0.35977   0.00000  Uiso   1.00
H764   H     0.84038   0.39728   0.39061   0.00000  Uiso   1.00
H765   H     0.88466   0.06849   0.78816   0.00000  Uiso   1.00
H766   H     0.68151   0.13466   0.28816   0.00000  Uiso   1.00
H767   H     0.63452   0.31861   0.71158   0.00000  Uiso   1.00
H768   H     0.86534   0.18151   0.28816   0.00000  Uiso   1.00
H769   H     0.68139   0.13452   0.71158   0.00000  Uiso   1.00
H770   H     0.81849   0.36534   0.28816   0.00000  Uiso   1.00
H771   H     0.86548   0.31861   0.28842   0.00000  Uiso   1.00
H772   H     0.63466   0.18151   0.71184   0.00000  Uiso   1.00
H773   H     0.81861   0.13452   0.28842   0.00000  Uiso   1.00
H774   H     0.68151   0.36534   0.71184   0.00000  Uiso   1.00
H775   H     0.63452   0.18139   0.28842   0.00000  Uiso   1.00
H776   H     0.56861   0.11548   0.21158   0.00000  Uiso   1.00
H777   H     0.86534   0.31849   0.71184   0.00000  Uiso   1.00
H778   H     0.68139   0.36548   0.28842   0.00000  Uiso   1.00
H779   H     0.81849   0.13466   0.71184   0.00000  Uiso   1.00
H780   H     0.71062   0.06169   0.97532   0.00000  Uiso   1.00
H781   H     0.72256   0.08140   0.02154   0.00000  Uiso   1.00
H782   H     0.65698   0.09568   0.03330   0.00000  Uiso   1.00
H783   H     0.67405   0.11672   0.98966   0.00000  Uiso   1.00
H784   H     0.64551   0.07660   0.98660   0.00000  Uiso   1.00
H785   H     0.78938   0.06169   0.02468   0.00000  Uiso   1.00
H786   H     0.77744   0.08140   0.97846   0.00000  Uiso   1.00
H787   H     0.93151   0.38466   0.78816   0.00000  Uiso   1.00
H788   H     0.84302   0.09568   0.96670   0.00000  Uiso   1.00
H789   H     0.82595   0.11672   0.01034   0.00000  Uiso   1.00
H790   H     0.85449   0.07660   0.01340   0.00000  Uiso   1.00
H791   H     0.93831   0.21062   0.97532   0.00000  Uiso   1.00
H792   H     0.91860   0.22256   0.02154   0.00000  Uiso   1.00
H793   H     0.90432   0.15698   0.03330   0.00000  Uiso   1.00
H794   H     0.88328   0.17405   0.98966   0.00000  Uiso   1.00
H795   H     0.92340   0.14551   0.98660   0.00000  Uiso   1.00
H796   H     0.93831   0.28938   0.02468   0.00000  Uiso   1.00
H797   H     0.91860   0.27744   0.97846   0.00000  Uiso   1.00
H798   H     0.88452   0.06861   0.21158   0.00000  Uiso   1.00
H799   H     0.90432   0.34302   0.96670   0.00000  Uiso   1.00
H800   H     0.88328   0.32595   0.01034   0.00000  Uiso   1.00
H801   H     0.92340   0.35449   0.01340   0.00000  Uiso   1.00
H802   H     0.78938   0.43831   0.97532   0.00000  Uiso   1.00
H803   H     0.77744   0.41860   0.02154   0.00000  Uiso   1.00
H804   H     0.84302   0.40432   0.03330   0.00000  Uiso   1.00
H805   H     0.82595   0.38328   0.98966   0.00000  Uiso   1.00
H806   H     0.85449   0.42340   0.98660   0.00000  Uiso   1.00
H807   H     0.71062   0.43831   0.02468   0.00000  Uiso   1.00
H808   H     0.72256   0.41860   0.97846   0.00000  Uiso   1.00
H809   H     0.61534   0.43151   0.78816   0.00000  Uiso   1.00
H810   H     0.65698   0.40432   0.96670   0.00000  Uiso   1.00
H811   H     0.67405   0.38328   0.01034   0.00000  Uiso   1.00
H812   H     0.64551   0.42340   0.01340   0.00000  Uiso   1.00
H813   H     0.56169   0.28938   0.97532   0.00000  Uiso   1.00
H814   H     0.58140   0.27744   0.02154   0.00000  Uiso   1.00
H815   H     0.59568   0.34302   0.03330   0.00000  Uiso   1.00
H816   H     0.61672   0.32595   0.98966   0.00000  Uiso   1.00
H817   H     0.57660   0.35449   0.98660   0.00000  Uiso   1.00
H818   H     0.56169   0.21062   0.02468   0.00000  Uiso   1.00
H819   H     0.58140   0.22256   0.97846   0.00000  Uiso   1.00
H820   H     0.93139   0.38452   0.21158   0.00000  Uiso   1.00
H821   H     0.59568   0.15698   0.96670   0.00000  Uiso   1.00
H822   H     0.61672   0.17405   0.01034   0.00000  Uiso   1.00
H823   H     0.57660   0.14551   0.01340   0.00000  Uiso   1.00
H824   H     0.96062   0.31169   0.47532   0.00000  Uiso   1.00
H825   H     0.97256   0.33140   0.52154   0.00000  Uiso   1.00
H826   H     0.90698   0.34568   0.53330   0.00000  Uiso   1.00
H827   H     0.92405   0.36672   0.48966   0.00000  Uiso   1.00
H828   H     0.89551   0.32660   0.48660   0.00000  Uiso   1.00
H829   H     0.53938   0.31169   0.52468   0.00000  Uiso   1.00
H830   H     0.52744   0.33140   0.47846   0.00000  Uiso   1.00
H831   H     0.56849   0.11534   0.78816   0.00000  Uiso   1.00
H832   H     0.59302   0.34568   0.46670   0.00000  Uiso   1.00
H833   H     0.57595   0.36672   0.51034   0.00000  Uiso   1.00
H834   H     0.60449   0.32660   0.51340   0.00000  Uiso   1.00
H835   H     0.68831   0.46062   0.47532   0.00000  Uiso   1.00
H836   H     0.66860   0.47256   0.52154   0.00000  Uiso   1.00
H837   H     0.65432   0.40698   0.53330   0.00000  Uiso   1.00
H838   H     0.63328   0.42405   0.48966   0.00000  Uiso   1.00
H839   H     0.67340   0.39551   0.48660   0.00000  Uiso   1.00
H840   H     0.68831   0.03938   0.52468   0.00000  Uiso   1.00
H841   H     0.66860   0.02744   0.47846   0.00000  Uiso   1.00
H842   H     0.61548   0.06861   0.78842   0.00000  Uiso   1.00
H843   H     0.65432   0.09302   0.46670   0.00000  Uiso   1.00
H844   H     0.63328   0.07595   0.51034   0.00000  Uiso   1.00
H845   H     0.67340   0.10449   0.51340   0.00000  Uiso   1.00
H846   H     0.53938   0.18831   0.47532   0.00000  Uiso   1.00
H847   H     0.52744   0.16860   0.52154   0.00000  Uiso   1.00
H848   H     0.59302   0.15432   0.53330   0.00000  Uiso   1.00
H849   H     0.57595   0.13328   0.48966   0.00000  Uiso   1.00
H850   H     0.60449   0.17340   0.48660   0.00000  Uiso   1.00
H851   H     0.96062   0.18831   0.52468   0.00000  Uiso   1.00
H852   H     0.97256   0.16860   0.47846   0.00000  Uiso   1.00
O853   O     0.75000   0.00000   0.25000   0.00000  Uiso   1.00
O854   O     0.75000   0.46964   0.66317   0.00000  Uiso   1.00
O855   O     0.96964   0.25000   0.33683   0.00000  Uiso   1.00
O856   O     0.53036   0.25000   0.66317   0.00000  Uiso   1.00
O857   O     0.50000   0.21964   0.83683   0.00000  Uiso   1.00
O858   O     0.50000   0.28036   0.16317   0.00000  Uiso   1.00
O859   O     0.78036   0.00000   0.83683   0.00000  Uiso   1.00
O860   O     0.71964   0.00000   0.16317   0.00000  Uiso   1.00
O861   O     0.50000   0.28036   0.83683   0.00000  Uiso   1.00
O862   O     0.50000   0.21964   0.16317   0.00000  Uiso   1.00
O863   O     0.71964   0.00000   0.83683   0.00000  Uiso   1.00
O864   O     0.75000   0.00000   0.75000   0.00000  Uiso   1.00
O865   O     0.78036   0.00000   0.16317   0.00000  Uiso   1.00
O866   O     0.70725   0.07307   0.27282   0.00000  Uiso   1.00
O867   O     0.79274   0.42693   0.72718   0.00000  Uiso   1.00
O868   O     0.92693   0.20726   0.27282   0.00000  Uiso   1.00
O869   O     0.57307   0.29274   0.72718   0.00000  Uiso   1.00
O870   O     0.79274   0.42693   0.27282   0.00000  Uiso   1.00
O871   O     0.70725   0.07307   0.72718   0.00000  Uiso   1.00
O872   O     0.57307   0.29274   0.27282   0.00000  Uiso   1.00
O873   O     0.92693   0.20726   0.72718   0.00000  Uiso   1.00
O874   O     0.70725   0.42693   0.72718   0.00000  Uiso   1.00
O875   O     0.50000   0.25000   0.25000   0.00000  Uiso   1.00
O876   O     0.79274   0.07307   0.27282   0.00000  Uiso   1.00
O877   O     0.92693   0.29275   0.72718   0.00000  Uiso   1.00
O878   O     0.57307   0.20725   0.27282   0.00000  Uiso   1.00
O879   O     0.79274   0.07307   0.72718   0.00000  Uiso   1.00
O880   O     0.70725   0.42693   0.27282   0.00000  Uiso   1.00
O881   O     0.57307   0.20725   0.72718   0.00000  Uiso   1.00
O882   O     0.92693   0.29275   0.27282   0.00000  Uiso   1.00
O883   O     0.95725   0.32307   0.77282   0.00000  Uiso   1.00
O884   O     0.54274   0.17693   0.22718   0.00000  Uiso   1.00
O885   O     0.67693   0.45725   0.77282   0.00000  Uiso   1.00
O886   O     0.50000   0.25000   0.75000   0.00000  Uiso   1.00
O887   O     0.82307   0.04275   0.22718   0.00000  Uiso   1.00
O888   O     0.54274   0.17693   0.77282   0.00000  Uiso   1.00
O889   O     0.95725   0.32307   0.22718   0.00000  Uiso   1.00
O890   O     0.82307   0.04275   0.77282   0.00000  Uiso   1.00
O891   O     0.67693   0.45725   0.22718   0.00000  Uiso   1.00
O892   O     0.95725   0.17693   0.22718   0.00000  Uiso   1.00
O893   O     0.54274   0.32307   0.77282   0.00000  Uiso   1.00
O894   O     0.67693   0.04275   0.22718   0.00000  Uiso   1.00
O895   O     0.82307   0.45725   0.77282   0.00000  Uiso   1.00
O896   O     0.54274   0.32307   0.22718   0.00000  Uiso   1.00
O897   O     0.75000   0.46964   0.33683   0.00000  Uiso   1.00
O898   O     0.95725   0.17693   0.77282   0.00000  Uiso   1.00
O899   O     0.82307   0.45725   0.22718   0.00000  Uiso   1.00
O900   O     0.67693   0.04275   0.77282   0.00000  Uiso   1.00
O901   O     0.69169   0.03248   0.02256   0.00000  Uiso   1.00
O902   O     0.80831   0.03248   0.97744   0.00000  Uiso   1.00
O903   O     0.96752   0.19169   0.02256   0.00000  Uiso   1.00
O904   O     0.96752   0.30831   0.97744   0.00000  Uiso   1.00
O905   O     0.80831   0.46752   0.02256   0.00000  Uiso   1.00
O906   O     0.69169   0.46752   0.97744   0.00000  Uiso   1.00
O907   O     0.53248   0.30831   0.02256   0.00000  Uiso   1.00
O908   O     0.75000   0.03036   0.66317   0.00000  Uiso   1.00
O909   O     0.53248   0.19169   0.97744   0.00000  Uiso   1.00
O910   O     0.94169   0.28248   0.52256   0.00000  Uiso   1.00
O911   O     0.55831   0.28248   0.47744   0.00000  Uiso   1.00
O912   O     0.71752   0.44169   0.52256   0.00000  Uiso   1.00
O913   O     0.71752   0.05831   0.47744   0.00000  Uiso   1.00
O914   O     0.55831   0.21752   0.52256   0.00000  Uiso   1.00
O915   O     0.94169   0.21752   0.47744   0.00000  Uiso   1.00
O916   O     0.78248   0.05831   0.52256   0.00000  Uiso   1.00
O917   O     0.78248   0.44169   0.47744   0.00000  Uiso   1.00
O918   O     0.69278   0.03394   0.10117   0.00000  Uiso   1.00
O919   O     0.53036   0.25000   0.33683   0.00000  Uiso   1.00
O920   O     0.80722   0.03394   0.89883   0.00000  Uiso   1.00
O921   O     0.96606   0.19278   0.10117   0.00000  Uiso   1.00
O922   O     0.96606   0.30722   0.89883   0.00000  Uiso   1.00
O923   O     0.80722   0.46606   0.10117   0.00000  Uiso   1.00
O924   O     0.69278   0.46606   0.89883   0.00000  Uiso   1.00
O925   O     0.53394   0.30722   0.10117   0.00000  Uiso   1.00
O926   O     0.53394   0.19278   0.89883   0.00000  Uiso   1.00
O927   O     0.94278   0.28394   0.60117   0.00000  Uiso   1.00
O928   O     0.55722   0.28394   0.39883   0.00000  Uiso   1.00
O929   O     0.71606   0.44278   0.60117   0.00000  Uiso   1.00
O930   O     0.96964   0.25000   0.66317   0.00000  Uiso   1.00
O931   O     0.71606   0.05722   0.39883   0.00000  Uiso   1.00
O932   O     0.55722   0.21606   0.60117   0.00000  Uiso   1.00
O933   O     0.94278   0.21606   0.39883   0.00000  Uiso   1.00
O934   O     0.78394   0.05722   0.60117   0.00000  Uiso   1.00
O935   O     0.78394   0.44278   0.39883   0.00000  Uiso   1.00
O936   O     0.75000   0.03036   0.33683   0.00000  Uiso   1.00
Zn937  Zn    0.70660  -0.00000   0.21760   0.00000  Uiso   1.00
Zn938  Zn    0.54340   0.25000   0.28240   0.00000  Uiso   1.00
Zn939  Zn    0.75000   0.45660   0.71760   0.00000  Uiso   1.00
Zn940  Zn    0.75000   0.04340   0.28240   0.00000  Uiso   1.00
Zn941  Zn    0.54340   0.25000   0.71760   0.00000  Uiso   1.00
Zn942  Zn    0.95660   0.25000   0.28240   0.00000  Uiso   1.00
Zn943  Zn    0.75000   0.04340   0.71760   0.00000  Uiso   1.00
Zn944  Zn    0.75000   0.45660   0.28240   0.00000  Uiso   1.00
Zn945  Zn    0.79340  -0.00000   0.78240   0.00000  Uiso   1.00
Zn946  Zn    0.50000   0.20660   0.21760   0.00000  Uiso   1.00
Zn947  Zn    0.50000   0.29340   0.78240   0.00000  Uiso   1.00
Zn948  Zn    0.79340  -0.00000   0.21760   0.00000  Uiso   1.00
Zn949  Zn    0.70660  -0.00000   0.78240   0.00000  Uiso   1.00
Zn950  Zn    0.50000   0.29340   0.21760   0.00000  Uiso   1.00
Zn951  Zn    0.50000   0.20660   0.78240   0.00000  Uiso   1.00
Zn952  Zn    0.95660   0.25000   0.71760   0.00000  Uiso   1.00
C953   C     0.22157   0.51763   0.04152   0.00000  Uiso   1.00
C954   C     0.02843   0.76763   0.45848   0.00000  Uiso   1.00
C955   C     0.34813   0.90187   0.75000   0.00000  Uiso   1.00
C956   C     0.40187   0.65187   0.25000   0.00000  Uiso   1.00
C957   C     0.09813   0.84813   0.75000   0.00000  Uiso   1.00
C958   C     0.34813   0.90187   0.25000   0.00000  Uiso   1.00
C959   C     0.15187   0.59813   0.75000   0.00000  Uiso   1.00
C960   C     0.09813   0.65187   0.75000   0.00000  Uiso   1.00
C961   C     0.40187   0.84813   0.25000   0.00000  Uiso   1.00
C962   C     0.15187   0.90187   0.75000   0.00000  Uiso   1.00
C963   C     0.34813   0.59813   0.25000   0.00000  Uiso   1.00
C964   C     0.40187   0.84813   0.75000   0.00000  Uiso   1.00
C965   C     0.23237   0.97157   0.54152   0.00000  Uiso   1.00
C966   C     0.09813   0.65187   0.25000   0.00000  Uiso   1.00
C967   C     0.34813   0.59813   0.75000   0.00000  Uiso   1.00
C968   C     0.15187   0.90187   0.25000   0.00000  Uiso   1.00
C969   C     0.25000   0.50000   0.10234   0.00000  Uiso   1.00
C970   C     0.25000   0.50000   0.89767   0.00000  Uiso   1.00
C971   C    -0.00000   0.75000   0.10234   0.00000  Uiso   1.00
C972   C    -0.00000   0.75000   0.89767   0.00000  Uiso   1.00
C973   C     0.00000   0.75000   0.60234   0.00000  Uiso   1.00
C974   C    -0.00000   0.75000   0.39767   0.00000  Uiso   1.00
C975   C     0.25000   0.50000   0.60234   0.00000  Uiso   1.00
C976   C     0.23237   0.52843   0.45848   0.00000  Uiso   1.00
C977   C     0.25000   0.50000   0.39767   0.00000  Uiso   1.00
C978   C     0.20105   0.56625   0.00538   0.00000  Uiso   1.00
C979   C     0.16725   0.59030   0.00365   0.00000  Uiso   1.00
C980   C     0.29895   0.56625   0.99462   0.00000  Uiso   1.00
C981   C     0.33275   0.59030   0.99635   0.00000  Uiso   1.00
C982   C     0.43375   0.70105   0.00538   0.00000  Uiso   1.00
C983   C     0.40970   0.66725   0.00365   0.00000  Uiso   1.00
C984   C     0.43375   0.79895   0.99462   0.00000  Uiso   1.00
C985   C     0.40970   0.83275   0.99635   0.00000  Uiso   1.00
C986   C     0.29895   0.93375   0.00538   0.00000  Uiso   1.00
C987   C     0.02843   0.73237   0.54152   0.00000  Uiso   1.00
C988   C     0.33275   0.90970   0.00365   0.00000  Uiso   1.00
C989   C     0.20105   0.93375   0.99462   0.00000  Uiso   1.00
C990   C     0.16725   0.90970   0.99635   0.00000  Uiso   1.00
C991   C     0.06625   0.79895   0.00538   0.00000  Uiso   1.00
C992   C     0.09030   0.83275   0.00365   0.00000  Uiso   1.00
C993   C     0.06625   0.70105   0.99462   0.00000  Uiso   1.00
C994   C     0.09030   0.66725   0.99635   0.00000  Uiso   1.00
C995   C     0.45105   0.81625   0.50538   0.00000  Uiso   1.00
C996   C     0.41725   0.84030   0.50365   0.00000  Uiso   1.00
C997   C     0.04895   0.81625   0.49462   0.00000  Uiso   1.00
C998   C     0.47157   0.73237   0.45848   0.00000  Uiso   1.00
C999   C     0.08275   0.84030   0.49635   0.00000  Uiso   1.00
C1000  C     0.18375   0.95105   0.50538   0.00000  Uiso   1.00
C1001  C     0.15970   0.91725   0.50365   0.00000  Uiso   1.00
C1002  C     0.18375   0.54895   0.49462   0.00000  Uiso   1.00
C1003  C     0.15970   0.58275   0.49635   0.00000  Uiso   1.00
C1004  C     0.04895   0.68375   0.50538   0.00000  Uiso   1.00
C1005  C     0.08275   0.65970   0.50365   0.00000  Uiso   1.00
C1006  C     0.45105   0.68375   0.49462   0.00000  Uiso   1.00
C1007  C     0.41725   0.65970   0.49635   0.00000  Uiso   1.00
C1008  C     0.31625   0.54895   0.50538   0.00000  Uiso   1.00
C1009  C     0.26763   0.52843   0.54152   0.00000  Uiso   1.00
C1010  C     0.34030   0.58275   0.50365   0.00000  Uiso   1.00
C1011  C     0.31625   0.95105   0.49462   0.00000  Uiso   1.00
C1012  C     0.34030   0.91725   0.49635   0.00000  Uiso   1.00
C1013  C     0.20269   0.56977   0.11206   0.00000  Uiso   1.00
C1014  C     0.16997   0.58837   0.13057   0.00000  Uiso   1.00
C1015  C     0.29731   0.56977   0.88794   0.00000  Uiso   1.00
C1016  C     0.33003   0.58837   0.86943   0.00000  Uiso   1.00
C1017  C     0.43023   0.70269   0.11206   0.00000  Uiso   1.00
C1018  C     0.41163   0.66997   0.13057   0.00000  Uiso   1.00
C1019  C     0.43023   0.79731   0.88794   0.00000  Uiso   1.00
C1020  C     0.26763   0.97157   0.45848   0.00000  Uiso   1.00
C1021  C     0.41163   0.83003   0.86943   0.00000  Uiso   1.00
C1022  C     0.29731   0.93023   0.11206   0.00000  Uiso   1.00
C1023  C     0.33003   0.91163   0.13057   0.00000  Uiso   1.00
C1024  C     0.20269   0.93023   0.88794   0.00000  Uiso   1.00
C1025  C     0.16997   0.91163   0.86943   0.00000  Uiso   1.00
C1026  C     0.06977   0.79731   0.11206   0.00000  Uiso   1.00
C1027  C     0.08837   0.83003   0.13057   0.00000  Uiso   1.00
C1028  C     0.06977   0.70269   0.88794   0.00000  Uiso   1.00
C1029  C     0.08837   0.66997   0.86943   0.00000  Uiso   1.00
C1030  C     0.45269   0.81977   0.61206   0.00000  Uiso   1.00
C1031  C     0.22173   0.51780   0.08193   0.00000  Uiso   1.00
C1032  C     0.41997   0.83837   0.63057   0.00000  Uiso   1.00
C1033  C     0.04731   0.81977   0.38794   0.00000  Uiso   1.00
C1034  C     0.08003   0.83837   0.36943   0.00000  Uiso   1.00
C1035  C     0.18023   0.95269   0.61206   0.00000  Uiso   1.00
C1036  C     0.16163   0.91997   0.63057   0.00000  Uiso   1.00
C1037  C     0.18023   0.54731   0.38794   0.00000  Uiso   1.00
C1038  C     0.16163   0.58003   0.36943   0.00000  Uiso   1.00
C1039  C     0.04731   0.68023   0.61206   0.00000  Uiso   1.00
C1040  C     0.08003   0.66163   0.63057   0.00000  Uiso   1.00
C1041  C     0.45269   0.68023   0.38794   0.00000  Uiso   1.00
C1042  C     0.27827   0.51780   0.91807   0.00000  Uiso   1.00
C1043  C     0.41997   0.66163   0.36943   0.00000  Uiso   1.00
C1044  C     0.31977   0.54731   0.61206   0.00000  Uiso   1.00
C1045  C     0.33837   0.58003   0.63057   0.00000  Uiso   1.00
C1046  C     0.31977   0.95269   0.38794   0.00000  Uiso   1.00
C1047  C     0.33837   0.91997   0.36943   0.00000  Uiso   1.00
C1048  C     0.48220   0.72173   0.08193   0.00000  Uiso   1.00
C1049  C     0.27843   0.51763   0.95848   0.00000  Uiso   1.00
C1050  C     0.48220   0.77827   0.91807   0.00000  Uiso   1.00
C1051  C     0.27827   0.98220   0.08193   0.00000  Uiso   1.00
C1052  C     0.22173   0.98220   0.91807   0.00000  Uiso   1.00
C1053  C     0.01779   0.77827   0.08193   0.00000  Uiso   1.00
C1054  C     0.01779   0.72173   0.91807   0.00000  Uiso   1.00
C1055  C     0.47173   0.76780   0.58193   0.00000  Uiso   1.00
C1056  C     0.02827   0.76779   0.41807   0.00000  Uiso   1.00
C1057  C     0.23220   0.97173   0.58193   0.00000  Uiso   1.00
C1058  C     0.23220   0.52827   0.41807   0.00000  Uiso   1.00
C1059  C     0.02827   0.73220   0.58193   0.00000  Uiso   1.00
C1060  C     0.48237   0.72157   0.04152   0.00000  Uiso   1.00
C1061  C     0.47173   0.73221   0.41807   0.00000  Uiso   1.00
C1062  C     0.26779   0.52827   0.58193   0.00000  Uiso   1.00
C1063  C     0.26779   0.97173   0.41807   0.00000  Uiso   1.00
C1064  C     0.25000   0.50000   0.02122   0.00000  Uiso   1.00
C1065  C     0.25000   0.50000   0.97879   0.00000  Uiso   1.00
C1066  C    -0.00000   0.75000   0.02122   0.00000  Uiso   1.00
C1067  C    -0.00000   0.75000   0.97879   0.00000  Uiso   1.00
C1068  C    -0.00000   0.75000   0.52122   0.00000  Uiso   1.00
C1069  C    -0.00000   0.75000   0.47879   0.00000  Uiso   1.00
C1070  C     0.25000   0.50000   0.52122   0.00000  Uiso   1.00
C1071  C     0.48237   0.77843   0.95848   0.00000  Uiso   1.00
C1072  C     0.25000   0.50000   0.47879   0.00000  Uiso   1.00
C1073  C     0.25000   0.50000   0.35521   0.00000  Uiso   1.00
C1074  C     0.25000   0.50000   0.64479   0.00000  Uiso   1.00
C1075  C    -0.00000   0.75000   0.35521   0.00000  Uiso   1.00
C1076  C    -0.00000   0.75000   0.64479   0.00000  Uiso   1.00
C1077  C    -0.00000   0.75000   0.85521   0.00000  Uiso   1.00
C1078  C    -0.00000   0.75000   0.14479   0.00000  Uiso   1.00
C1079  C     0.25000   0.50000   0.85521   0.00000  Uiso   1.00
C1080  C     0.25000   0.50000   0.14479   0.00000  Uiso   1.00
C1081  C     0.17993   0.57007   0.25000   0.00000  Uiso   1.00
C1082  C     0.27843   0.98237   0.04152   0.00000  Uiso   1.00
C1083  C     0.32007   0.92993   0.75000   0.00000  Uiso   1.00
C1084  C     0.42993   0.67993   0.25000   0.00000  Uiso   1.00
C1085  C     0.07007   0.82007   0.75000   0.00000  Uiso   1.00
C1086  C     0.32007   0.92993   0.25000   0.00000  Uiso   1.00
C1087  C     0.17993   0.57007   0.75000   0.00000  Uiso   1.00
C1088  C     0.07007   0.82007   0.25000   0.00000  Uiso   1.00
C1089  C     0.42993   0.67993   0.75000   0.00000  Uiso   1.00
C1090  C     0.17993   0.92993   0.75000   0.00000  Uiso   1.00
C1091  C     0.32007   0.57007   0.25000   0.00000  Uiso   1.00
C1092  C     0.42993   0.82007   0.75000   0.00000  Uiso   1.00
C1093  C     0.22157   0.98237   0.95848   0.00000  Uiso   1.00
C1094  C     0.07007   0.67993   0.25000   0.00000  Uiso   1.00
C1095  C     0.32007   0.57007   0.75000   0.00000  Uiso   1.00
C1096  C     0.17993   0.92993   0.25000   0.00000  Uiso   1.00
C1097  C     0.07007   0.67993   0.75000   0.00000  Uiso   1.00
C1098  C     0.42993   0.82007   0.25000   0.00000  Uiso   1.00
C1099  C     0.11991   0.90684   0.22838   0.00000  Uiso   1.00
C1100  C     0.38014   0.59312   0.77152   0.00000  Uiso   1.00
C1101  C     0.09316   0.61991   0.22838   0.00000  Uiso   1.00
C1102  C     0.40688   0.88014   0.77152   0.00000  Uiso   1.00
C1103  C     0.38009   0.59316   0.22838   0.00000  Uiso   1.00
C1104  C     0.01763   0.77843   0.04152   0.00000  Uiso   1.00
C1105  C     0.11986   0.90688   0.77152   0.00000  Uiso   1.00
C1106  C     0.40684   0.88009   0.22838   0.00000  Uiso   1.00
C1107  C     0.09312   0.61986   0.77152   0.00000  Uiso   1.00
C1108  C     0.11991   0.59316   0.77162   0.00000  Uiso   1.00
C1109  C     0.38014   0.90688   0.22848   0.00000  Uiso   1.00
C1110  C     0.09316   0.88009   0.77162   0.00000  Uiso   1.00
C1111  C     0.40688   0.61986   0.22848   0.00000  Uiso   1.00
C1112  C     0.38009   0.90684   0.77162   0.00000  Uiso   1.00
C1113  C     0.11986   0.59312   0.22848   0.00000  Uiso   1.00
C1114  C     0.40684   0.61991   0.77162   0.00000  Uiso   1.00
C1115  C     0.01763   0.72157   0.95848   0.00000  Uiso   1.00
C1116  C     0.09312   0.88014   0.22848   0.00000  Uiso   1.00
C1117  C     0.36991   0.65684   0.72838   0.00000  Uiso   1.00
C1118  C     0.13014   0.84312   0.27152   0.00000  Uiso   1.00
C1119  C     0.34316   0.86991   0.72838   0.00000  Uiso   1.00
C1120  C     0.15688   0.63014   0.27152   0.00000  Uiso   1.00
C1121  C     0.13009   0.84316   0.72838   0.00000  Uiso   1.00
C1122  C     0.36986   0.65688   0.27152   0.00000  Uiso   1.00
C1123  C     0.15684   0.63009   0.72838   0.00000  Uiso   1.00
C1124  C     0.34312   0.86986   0.27152   0.00000  Uiso   1.00
C1125  C     0.36991   0.84316   0.27162   0.00000  Uiso   1.00
C1126  C     0.47157   0.76763   0.54152   0.00000  Uiso   1.00
C1127  C     0.13014   0.65688   0.72848   0.00000  Uiso   1.00
C1128  C     0.34316   0.63009   0.27162   0.00000  Uiso   1.00
C1129  C     0.15688   0.86986   0.72848   0.00000  Uiso   1.00
C1130  C     0.13009   0.65684   0.27162   0.00000  Uiso   1.00
C1131  C     0.36986   0.84312   0.72848   0.00000  Uiso   1.00
C1132  C     0.15684   0.86991   0.27162   0.00000  Uiso   1.00
C1133  C     0.34312   0.63014   0.72848   0.00000  Uiso   1.00
C1134  C     0.09813   0.84813   0.25000   0.00000  Uiso   1.00
C1135  C     0.40187   0.65187   0.75000   0.00000  Uiso   1.00
C1136  C     0.15187   0.59813   0.25000   0.00000  Uiso   1.00
H1137  H     0.11548   0.93139   0.21158   0.00000  Uiso   1.00
H1138  H     0.38466   0.93151   0.21184   0.00000  Uiso   1.00
H1139  H     0.40698   0.65432   0.46670   0.00000  Uiso   1.00
H1140  H     0.42405   0.63328   0.51034   0.00000  Uiso   1.00
H1141  H     0.39551   0.67340   0.51340   0.00000  Uiso   1.00
H1142  H     0.31169   0.53938   0.47532   0.00000  Uiso   1.00
H1143  H     0.33140   0.52744   0.52154   0.00000  Uiso   1.00
H1144  H     0.34568   0.59302   0.53330   0.00000  Uiso   1.00
H1145  H     0.36672   0.57595   0.48966   0.00000  Uiso   1.00
H1146  H     0.32660   0.60449   0.48660   0.00000  Uiso   1.00
H1147  H     0.31169   0.96062   0.52468   0.00000  Uiso   1.00
H1148  H     0.33140   0.97256   0.47846   0.00000  Uiso   1.00
H1149  H     0.06861   0.88452   0.78842   0.00000  Uiso   1.00
H1150  H     0.34568   0.90698   0.46670   0.00000  Uiso   1.00
H1151  H     0.36672   0.92405   0.51034   0.00000  Uiso   1.00
H1152  H     0.32660   0.89551   0.51340   0.00000  Uiso   1.00
H1153  H     0.21118   0.58630   0.08668   0.00000  Uiso   1.00
H1154  H     0.22535   0.56952   0.13347   0.00000  Uiso   1.00
H1155  H     0.16065   0.57237   0.15593   0.00000  Uiso   1.00
H1156  H     0.17760   0.61624   0.14024   0.00000  Uiso   1.00
H1157  H     0.14728   0.59038   0.10939   0.00000  Uiso   1.00
H1158  H     0.28882   0.58630   0.91332   0.00000  Uiso   1.00
H1159  H     0.27465   0.56952   0.86653   0.00000  Uiso   1.00
H1160  H     0.43151   0.61534   0.21184   0.00000  Uiso   1.00
H1161  H     0.33935   0.57237   0.84407   0.00000  Uiso   1.00
H1162  H     0.32240   0.61624   0.85977   0.00000  Uiso   1.00
H1163  H     0.35272   0.59038   0.89061   0.00000  Uiso   1.00
H1164  H     0.41370   0.71118   0.08668   0.00000  Uiso   1.00
H1165  H     0.43048   0.72535   0.13347   0.00000  Uiso   1.00
H1166  H     0.42763   0.66065   0.15593   0.00000  Uiso   1.00
H1167  H     0.38376   0.67760   0.14024   0.00000  Uiso   1.00
H1168  H     0.40962   0.64728   0.10939   0.00000  Uiso   1.00
H1169  H     0.41370   0.78882   0.91332   0.00000  Uiso   1.00
H1170  H     0.43048   0.77465   0.86653   0.00000  Uiso   1.00
H1171  H     0.38452   0.93139   0.78842   0.00000  Uiso   1.00
H1172  H     0.42763   0.83935   0.84407   0.00000  Uiso   1.00
H1173  H     0.38376   0.82240   0.85977   0.00000  Uiso   1.00
H1174  H     0.40962   0.85272   0.89061   0.00000  Uiso   1.00
H1175  H     0.28882   0.91370   0.08668   0.00000  Uiso   1.00
H1176  H     0.27465   0.93048   0.13347   0.00000  Uiso   1.00
H1177  H     0.33935   0.92763   0.15593   0.00000  Uiso   1.00
H1178  H     0.32240   0.88376   0.14024   0.00000  Uiso   1.00
H1179  H     0.35272   0.90962   0.10939   0.00000  Uiso   1.00
H1180  H     0.21118   0.91370   0.91332   0.00000  Uiso   1.00
H1181  H     0.22535   0.93048   0.86653   0.00000  Uiso   1.00
H1182  H     0.11534   0.56849   0.21184   0.00000  Uiso   1.00
H1183  H     0.16065   0.92763   0.84407   0.00000  Uiso   1.00
H1184  H     0.17760   0.88376   0.85977   0.00000  Uiso   1.00
H1185  H     0.14728   0.90962   0.89061   0.00000  Uiso   1.00
H1186  H     0.08630   0.78882   0.08668   0.00000  Uiso   1.00
H1187  H     0.06952   0.77465   0.13347   0.00000  Uiso   1.00
H1188  H     0.07237   0.83935   0.15593   0.00000  Uiso   1.00
H1189  H     0.11624   0.82240   0.14024   0.00000  Uiso   1.00
H1190  H     0.09038   0.85272   0.10939   0.00000  Uiso   1.00
H1191  H     0.08630   0.71118   0.91332   0.00000  Uiso   1.00
H1192  H     0.06952   0.72535   0.86653   0.00000  Uiso   1.00
H1193  H     0.43139   0.61548   0.78842   0.00000  Uiso   1.00
H1194  H     0.07237   0.66065   0.84407   0.00000  Uiso   1.00
H1195  H     0.11624   0.67760   0.85977   0.00000  Uiso   1.00
H1196  H     0.09038   0.64728   0.89061   0.00000  Uiso   1.00
H1197  H     0.46118   0.83630   0.58668   0.00000  Uiso   1.00
H1198  H     0.47535   0.81952   0.63347   0.00000  Uiso   1.00
H1199  H     0.41065   0.82237   0.65593   0.00000  Uiso   1.00
H1200  H     0.42760   0.86624   0.64024   0.00000  Uiso   1.00
H1201  H     0.39728   0.84038   0.60939   0.00000  Uiso   1.00
H1202  H     0.03882   0.83630   0.41332   0.00000  Uiso   1.00
H1203  H     0.02465   0.81952   0.36653   0.00000  Uiso   1.00
H1204  H     0.06849   0.88466   0.21184   0.00000  Uiso   1.00
H1205  H     0.08935   0.82237   0.34407   0.00000  Uiso   1.00
H1206  H     0.07240   0.86624   0.35977   0.00000  Uiso   1.00
H1207  H     0.10272   0.84038   0.39061   0.00000  Uiso   1.00
H1208  H     0.16370   0.96118   0.58668   0.00000  Uiso   1.00
H1209  H     0.18048   0.97535   0.63347   0.00000  Uiso   1.00
H1210  H     0.17763   0.91065   0.65593   0.00000  Uiso   1.00
H1211  H     0.13376   0.92760   0.64024   0.00000  Uiso   1.00
H1212  H     0.15962   0.89728   0.60939   0.00000  Uiso   1.00
H1213  H     0.16370   0.53882   0.41332   0.00000  Uiso   1.00
H1214  H     0.18048   0.52465   0.36653   0.00000  Uiso   1.00
H1215  H     0.36548   0.68139   0.71158   0.00000  Uiso   1.00
H1216  H     0.17763   0.58935   0.34407   0.00000  Uiso   1.00
H1217  H     0.13376   0.57240   0.35977   0.00000  Uiso   1.00
H1218  H     0.15962   0.60272   0.39061   0.00000  Uiso   1.00
H1219  H     0.03882   0.66370   0.58668   0.00000  Uiso   1.00
H1220  H     0.02465   0.68048   0.63347   0.00000  Uiso   1.00
H1221  H     0.08935   0.67763   0.65593   0.00000  Uiso   1.00
H1222  H     0.07240   0.63376   0.64024   0.00000  Uiso   1.00
H1223  H     0.10272   0.65962   0.60939   0.00000  Uiso   1.00
H1224  H     0.46118   0.66370   0.41332   0.00000  Uiso   1.00
H1225  H     0.47535   0.68048   0.36653   0.00000  Uiso   1.00
H1226  H     0.13466   0.81849   0.28816   0.00000  Uiso   1.00
H1227  H     0.41065   0.67763   0.34407   0.00000  Uiso   1.00
H1228  H     0.42760   0.63376   0.35977   0.00000  Uiso   1.00
H1229  H     0.39728   0.65962   0.39061   0.00000  Uiso   1.00
H1230  H     0.33630   0.53882   0.58668   0.00000  Uiso   1.00
H1231  H     0.31952   0.52465   0.63347   0.00000  Uiso   1.00
H1232  H     0.32237   0.58935   0.65593   0.00000  Uiso   1.00
H1233  H     0.36624   0.57240   0.64024   0.00000  Uiso   1.00
H1234  H     0.34038   0.60272   0.60939   0.00000  Uiso   1.00
H1235  H     0.33630   0.96118   0.41332   0.00000  Uiso   1.00
H1236  H     0.31952   0.97535   0.36653   0.00000  Uiso   1.00
H1237  H     0.31861   0.86548   0.71158   0.00000  Uiso   1.00
H1238  H     0.32237   0.91065   0.34407   0.00000  Uiso   1.00
H1239  H     0.36624   0.92760   0.35977   0.00000  Uiso   1.00
H1240  H     0.34038   0.89728   0.39061   0.00000  Uiso   1.00
H1241  H     0.38466   0.56849   0.78816   0.00000  Uiso   1.00
H1242  H     0.18151   0.63466   0.28816   0.00000  Uiso   1.00
H1243  H     0.13452   0.81861   0.71158   0.00000  Uiso   1.00
H1244  H     0.36534   0.68151   0.28816   0.00000  Uiso   1.00
H1245  H     0.18139   0.63452   0.71158   0.00000  Uiso   1.00
H1246  H     0.31849   0.86534   0.28816   0.00000  Uiso   1.00
H1247  H     0.36548   0.81861   0.28842   0.00000  Uiso   1.00
H1248  H     0.13466   0.68151   0.71184   0.00000  Uiso   1.00
H1249  H     0.31861   0.63452   0.28842   0.00000  Uiso   1.00
H1250  H     0.18151   0.86534   0.71184   0.00000  Uiso   1.00
H1251  H     0.13452   0.68139   0.28842   0.00000  Uiso   1.00
H1252  H     0.06861   0.61548   0.21158   0.00000  Uiso   1.00
H1253  H     0.36534   0.81849   0.71184   0.00000  Uiso   1.00
H1254  H     0.18139   0.86548   0.28842   0.00000  Uiso   1.00
H1255  H     0.31849   0.63466   0.71184   0.00000  Uiso   1.00
H1256  H     0.21062   0.56169   0.97532   0.00000  Uiso   1.00
H1257  H     0.22256   0.58140   0.02154   0.00000  Uiso   1.00
H1258  H     0.15698   0.59568   0.03330   0.00000  Uiso   1.00
H1259  H     0.17405   0.61672   0.98966   0.00000  Uiso   1.00
H1260  H     0.14551   0.57660   0.98660   0.00000  Uiso   1.00
H1261  H     0.28938   0.56169   0.02468   0.00000  Uiso   1.00
H1262  H     0.27744   0.58140   0.97846   0.00000  Uiso   1.00
H1263  H     0.43151   0.88466   0.78816   0.00000  Uiso   1.00
H1264  H     0.34302   0.59568   0.96670   0.00000  Uiso   1.00
H1265  H     0.32595   0.61672   0.01034   0.00000  Uiso   1.00
H1266  H     0.35449   0.57660   0.01340   0.00000  Uiso   1.00
H1267  H     0.43831   0.71062   0.97532   0.00000  Uiso   1.00
H1268  H     0.41860   0.72256   0.02154   0.00000  Uiso   1.00
H1269  H     0.40432   0.65698   0.03330   0.00000  Uiso   1.00
H1270  H     0.38328   0.67405   0.98966   0.00000  Uiso   1.00
H1271  H     0.42340   0.64551   0.98660   0.00000  Uiso   1.00
H1272  H     0.43831   0.78938   0.02468   0.00000  Uiso   1.00
H1273  H     0.41860   0.77744   0.97846   0.00000  Uiso   1.00
H1274  H     0.38452   0.56861   0.21158   0.00000  Uiso   1.00
H1275  H     0.40432   0.84302   0.96670   0.00000  Uiso   1.00
H1276  H     0.38328   0.82595   0.01034   0.00000  Uiso   1.00
H1277  H     0.42340   0.85449   0.01340   0.00000  Uiso   1.00
H1278  H     0.28938   0.93831   0.97532   0.00000  Uiso   1.00
H1279  H     0.27744   0.91860   0.02154   0.00000  Uiso   1.00
H1280  H     0.34302   0.90432   0.03330   0.00000  Uiso   1.00
H1281  H     0.32595   0.88328   0.98966   0.00000  Uiso   1.00
H1282  H     0.35449   0.92340   0.98660   0.00000  Uiso   1.00
H1283  H     0.21062   0.93831   0.02468   0.00000  Uiso   1.00
H1284  H     0.22256   0.91860   0.97846   0.00000  Uiso   1.00
H1285  H     0.11534   0.93151   0.78816   0.00000  Uiso   1.00
H1286  H     0.15698   0.90432   0.96670   0.00000  Uiso   1.00
H1287  H     0.17405   0.88328   0.01034   0.00000  Uiso   1.00
H1288  H     0.14551   0.92340   0.01340   0.00000  Uiso   1.00
H1289  H     0.06169   0.78938   0.97532   0.00000  Uiso   1.00
H1290  H     0.08140   0.77744   0.02154   0.00000  Uiso   1.00
H1291  H     0.09568   0.84302   0.03330   0.00000  Uiso   1.00
H1292  H     0.11672   0.82595   0.98966   0.00000  Uiso   1.00
H1293  H     0.07660   0.85449   0.98660   0.00000  Uiso   1.00
H1294  H     0.06169   0.71062   0.02468   0.00000  Uiso   1.00
H1295  H     0.08140   0.72256   0.97846   0.00000  Uiso   1.00
H1296  H     0.43139   0.88452   0.21158   0.00000  Uiso   1.00
H1297  H     0.09568   0.65698   0.96670   0.00000  Uiso   1.00
H1298  H     0.11672   0.67405   0.01034   0.00000  Uiso   1.00
H1299  H     0.07660   0.64551   0.01340   0.00000  Uiso   1.00
H1300  H     0.46062   0.81169   0.47532   0.00000  Uiso   1.00
H1301  H     0.47256   0.83140   0.52154   0.00000  Uiso   1.00
H1302  H     0.40698   0.84568   0.53330   0.00000  Uiso   1.00
H1303  H     0.42405   0.86672   0.48966   0.00000  Uiso   1.00
H1304  H     0.39551   0.82660   0.48660   0.00000  Uiso   1.00
H1305  H     0.03938   0.81169   0.52468   0.00000  Uiso   1.00
H1306  H     0.02744   0.83140   0.47846   0.00000  Uiso   1.00
H1307  H     0.06849   0.61534   0.78816   0.00000  Uiso   1.00
H1308  H     0.09302   0.84568   0.46670   0.00000  Uiso   1.00
H1309  H     0.07595   0.86672   0.51034   0.00000  Uiso   1.00
H1310  H     0.10449   0.82660   0.51340   0.00000  Uiso   1.00
H1311  H     0.18831   0.96062   0.47532   0.00000  Uiso   1.00
H1312  H     0.16860   0.97256   0.52154   0.00000  Uiso   1.00
H1313  H     0.15432   0.90698   0.53330   0.00000  Uiso   1.00
H1314  H     0.13328   0.92405   0.48966   0.00000  Uiso   1.00
H1315  H     0.17340   0.89551   0.48660   0.00000  Uiso   1.00
H1316  H     0.18831   0.53938   0.52468   0.00000  Uiso   1.00
H1317  H     0.16860   0.52744   0.47846   0.00000  Uiso   1.00
H1318  H     0.11548   0.56861   0.78842   0.00000  Uiso   1.00
H1319  H     0.15432   0.59302   0.46670   0.00000  Uiso   1.00
H1320  H     0.13328   0.57595   0.51034   0.00000  Uiso   1.00
H1321  H     0.17340   0.60449   0.51340   0.00000  Uiso   1.00
H1322  H     0.03938   0.68831   0.47532   0.00000  Uiso   1.00
H1323  H     0.02744   0.66860   0.52154   0.00000  Uiso   1.00
H1324  H     0.09302   0.65432   0.53330   0.00000  Uiso   1.00
H1325  H     0.07595   0.63328   0.48966   0.00000  Uiso   1.00
H1326  H     0.10449   0.67340   0.48660   0.00000  Uiso   1.00
H1327  H     0.46062   0.68831   0.52468   0.00000  Uiso   1.00
H1328  H     0.47256   0.66860   0.47846   0.00000  Uiso   1.00
O1329  O     0.25000   0.50000   0.25000   0.00000  Uiso   1.00
O1330  O     0.25000   0.96964   0.66317   0.00000  Uiso   1.00
O1331  O     0.46964   0.75000   0.33683   0.00000  Uiso   1.00
O1332  O     0.03036   0.75000   0.66317   0.00000  Uiso   1.00
O1333  O     0.00000   0.71964   0.83683   0.00000  Uiso   1.00
O1334  O     0.00000   0.78036   0.16317   0.00000  Uiso   1.00
O1335  O     0.28036   0.50000   0.83683   0.00000  Uiso   1.00
O1336  O     0.21964   0.50000   0.16317   0.00000  Uiso   1.00
O1337  O     0.00000   0.78036   0.83683   0.00000  Uiso   1.00
O1338  O     0.00000   0.71964   0.16317   0.00000  Uiso   1.00
O1339  O     0.21964   0.50000   0.83683   0.00000  Uiso   1.00
O1340  O     0.25000   0.50000   0.75000   0.00000  Uiso   1.00
O1341  O     0.28036   0.50000   0.16317   0.00000  Uiso   1.00
O1342  O     0.20725   0.57307   0.27282   0.00000  Uiso   1.00
O1343  O     0.29274   0.92693   0.72718   0.00000  Uiso   1.00
O1344  O     0.42693   0.70726   0.27282   0.00000  Uiso   1.00
O1345  O     0.07307   0.79274   0.72718   0.00000  Uiso   1.00
O1346  O     0.29274   0.92693   0.27282   0.00000  Uiso   1.00
O1347  O     0.20725   0.57307   0.72718   0.00000  Uiso   1.00
O1348  O     0.07307   0.79274   0.27282   0.00000  Uiso   1.00
O1349  O     0.42693   0.70726   0.72718   0.00000  Uiso   1.00
O1350  O     0.20725   0.92693   0.72718   0.00000  Uiso   1.00
O1351  O     0.00000   0.75000   0.25000   0.00000  Uiso   1.00
O1352  O     0.29274   0.57307   0.27282   0.00000  Uiso   1.00
O1353  O     0.42693   0.79275   0.72718   0.00000  Uiso   1.00
O1354  O     0.07307   0.70725   0.27282   0.00000  Uiso   1.00
O1355  O     0.29274   0.57307   0.72718   0.00000  Uiso   1.00
O1356  O     0.20725   0.92693   0.27282   0.00000  Uiso   1.00
O1357  O     0.07307   0.70725   0.72718   0.00000  Uiso   1.00
O1358  O     0.42693   0.79275   0.27282   0.00000  Uiso   1.00
O1359  O     0.45725   0.82307   0.77282   0.00000  Uiso   1.00
O1360  O     0.04274   0.67693   0.22718   0.00000  Uiso   1.00
O1361  O     0.17693   0.95725   0.77282   0.00000  Uiso   1.00
O1362  O    -0.00000   0.75000   0.75000   0.00000  Uiso   1.00
O1363  O     0.32307   0.54275   0.22718   0.00000  Uiso   1.00
O1364  O     0.04274   0.67693   0.77282   0.00000  Uiso   1.00
O1365  O     0.45725   0.82307   0.22718   0.00000  Uiso   1.00
O1366  O     0.32307   0.54275   0.77282   0.00000  Uiso   1.00
O1367  O     0.17693   0.95725   0.22718   0.00000  Uiso   1.00
O1368  O     0.45725   0.67693   0.22718   0.00000  Uiso   1.00
O1369  O     0.04274   0.82307   0.77282   0.00000  Uiso   1.00
O1370  O     0.17693   0.54275   0.22718   0.00000  Uiso   1.00
O1371  O     0.32307   0.95725   0.77282   0.00000  Uiso   1.00
O1372  O     0.04274   0.82307   0.22718   0.00000  Uiso   1.00
O1373  O     0.25000   0.96964   0.33683   0.00000  Uiso   1.00
O1374  O     0.45725   0.67693   0.77282   0.00000  Uiso   1.00
O1375  O     0.32307   0.95725   0.22718   0.00000  Uiso   1.00
O1376  O     0.17693   0.54275   0.77282   0.00000  Uiso   1.00
O1377  O     0.19169   0.53248   0.02256   0.00000  Uiso   1.00
O1378  O     0.30831   0.53248   0.97744   0.00000  Uiso   1.00
O1379  O     0.46752   0.69169   0.02256   0.00000  Uiso   1.00
O1380  O     0.46752   0.80831   0.97744   0.00000  Uiso   1.00
O1381  O     0.30831   0.96752   0.02256   0.00000  Uiso   1.00
O1382  O     0.19169   0.96752   0.97744   0.00000  Uiso   1.00
O1383  O     0.03248   0.80831   0.02256   0.00000  Uiso   1.00
O1384  O     0.25000   0.53036   0.66317   0.00000  Uiso   1.00
O1385  O     0.03248   0.69169   0.97744   0.00000  Uiso   1.00
O1386  O     0.44169   0.78248   0.52256   0.00000  Uiso   1.00
O1387  O     0.05831   0.78248   0.47744   0.00000  Uiso   1.00
O1388  O     0.21752   0.94169   0.52256   0.00000  Uiso   1.00
O1389  O     0.21752   0.55831   0.47744   0.00000  Uiso   1.00
O1390  O     0.05831   0.71752   0.52256   0.00000  Uiso   1.00
O1391  O     0.44169   0.71752   0.47744   0.00000  Uiso   1.00
O1392  O     0.28248   0.55831   0.52256   0.00000  Uiso   1.00
O1393  O     0.28248   0.94169   0.47744   0.00000  Uiso   1.00
O1394  O     0.19278   0.53394   0.10117   0.00000  Uiso   1.00
O1395  O     0.03036   0.75000   0.33683   0.00000  Uiso   1.00
O1396  O     0.30722   0.53394   0.89883   0.00000  Uiso   1.00
O1397  O     0.46606   0.69278   0.10117   0.00000  Uiso   1.00
O1398  O     0.46606   0.80722   0.89883   0.00000  Uiso   1.00
O1399  O     0.30722   0.96606   0.10117   0.00000  Uiso   1.00
O1400  O     0.19278   0.96606   0.89883   0.00000  Uiso   1.00
O1401  O     0.03394   0.80722   0.10117   0.00000  Uiso   1.00
O1402  O     0.03394   0.69278   0.89883   0.00000  Uiso   1.00
O1403  O     0.44278   0.78394   0.60117   0.00000  Uiso   1.00
O1404  O     0.05722   0.78394   0.39883   0.00000  Uiso   1.00
O1405  O     0.21606   0.94278   0.60117   0.00000  Uiso   1.00
O1406  O     0.46964   0.75000   0.66317   0.00000  Uiso   1.00
O1407  O     0.21606   0.55722   0.39883   0.00000  Uiso   1.00
O1408  O     0.05722   0.71606   0.60117   0.00000  Uiso   1.00
O1409  O     0.44278   0.71606   0.39883   0.00000  Uiso   1.00
O1410  O     0.28394   0.55722   0.60117   0.00000  Uiso   1.00
O1411  O     0.28394   0.94278   0.39883   0.00000  Uiso   1.00
O1412  O     0.25000   0.53036   0.33683   0.00000  Uiso   1.00
Zn1413 Zn    0.20660   0.50000   0.21760   0.00000  Uiso   1.00
Zn1414 Zn    0.04340   0.75000   0.28240   0.00000  Uiso   1.00
Zn1415 Zn    0.25000   0.95660   0.71760   0.00000  Uiso   1.00
Zn1416 Zn    0.25000   0.54340   0.28240   0.00000  Uiso   1.00
Zn1417 Zn    0.04340   0.75000   0.71760   0.00000  Uiso   1.00
Zn1418 Zn    0.45660   0.75000   0.28240   0.00000  Uiso   1.00
Zn1419 Zn    0.25000   0.54340   0.71760   0.00000  Uiso   1.00
Zn1420 Zn    0.25000   0.95660   0.28240   0.00000  Uiso   1.00
Zn1421 Zn    0.29340   0.50000   0.78240   0.00000  Uiso   1.00
Zn1422 Zn   -0.00000   0.70660   0.21760   0.00000  Uiso   1.00
Zn1423 Zn   -0.00000   0.79340   0.78240   0.00000  Uiso   1.00
Zn1424 Zn    0.29340   0.50000   0.21760   0.00000  Uiso   1.00
Zn1425 Zn    0.20660   0.50000   0.78240   0.00000  Uiso   1.00
Zn1426 Zn   -0.00000   0.79340   0.21760   0.00000  Uiso   1.00
Zn1427 Zn   -0.00000   0.70660   0.78240   0.00000  Uiso   1.00
Zn1428 Zn    0.45660   0.75000   0.71760   0.00000  Uiso   1.00
C1429  C     0.72157   0.51763   0.04152   0.00000  Uiso   1.00
C1430  C     0.52843   0.76763   0.45848   0.00000  Uiso   1.00
C1431  C     0.84813   0.90187   0.75000   0.00000  Uiso   1.00
C1432  C     0.90187   0.65187   0.25000   0.00000  Uiso   1.00
C1433  C     0.59813   0.84813   0.75000   0.00000  Uiso   1.00
C1434  C     0.84813   0.90187   0.25000   0.00000  Uiso   1.00
C1435  C     0.65187   0.59813   0.75000   0.00000  Uiso   1.00
C1436  C     0.59813   0.65187   0.75000   0.00000  Uiso   1.00
C1437  C     0.90187   0.84813   0.25000   0.00000  Uiso   1.00
C1438  C     0.65187   0.90187   0.75000   0.00000  Uiso   1.00
C1439  C     0.84813   0.59813   0.25000   0.00000  Uiso   1.00
C1440  C     0.90187   0.84813   0.75000   0.00000  Uiso   1.00
C1441  C     0.73237   0.97157   0.54152   0.00000  Uiso   1.00
C1442  C     0.59813   0.65187   0.25000   0.00000  Uiso   1.00
C1443  C     0.84813   0.59813   0.75000   0.00000  Uiso   1.00
C1444  C     0.65187   0.90187   0.25000   0.00000  Uiso   1.00
C1445  C     0.75000   0.50000   0.10234   0.00000  Uiso   1.00
C1446  C     0.75000   0.50000   0.89767   0.00000  Uiso   1.00
C1447  C     0.50000   0.75000   0.10234   0.00000  Uiso   1.00
C1448  C     0.50000   0.75000   0.89767   0.00000  Uiso   1.00
C1449  C     0.50000   0.75000   0.60234   0.00000  Uiso   1.00
C1450  C     0.50000   0.75000   0.39767   0.00000  Uiso   1.00
C1451  C     0.75000   0.50000   0.60234   0.00000  Uiso   1.00
C1452  C     0.73237   0.52843   0.45848   0.00000  Uiso   1.00
C1453  C     0.75000   0.50000   0.39767   0.00000  Uiso   1.00
C1454  C     0.70105   0.56625   0.00538   0.00000  Uiso   1.00
C1455  C     0.66725   0.59030   0.00365   0.00000  Uiso   1.00
C1456  C     0.79895   0.56625   0.99462   0.00000  Uiso   1.00
C1457  C     0.83275   0.59030   0.99635   0.00000  Uiso   1.00
C1458  C     0.93375   0.70105   0.00538   0.00000  Uiso   1.00
C1459  C     0.90970   0.66725   0.00365   0.00000  Uiso   1.00
C1460  C     0.93375   0.79895   0.99462   0.00000  Uiso   1.00
C1461  C     0.90970   0.83275   0.99635   0.00000  Uiso   1.00
C1462  C     0.79895   0.93375   0.00538   0.00000  Uiso   1.00
C1463  C     0.52843   0.73237   0.54152   0.00000  Uiso   1.00
C1464  C     0.83275   0.90970   0.00365   0.00000  Uiso   1.00
C1465  C     0.70105   0.93375   0.99462   0.00000  Uiso   1.00
C1466  C     0.66725   0.90970   0.99635   0.00000  Uiso   1.00
C1467  C     0.56625   0.79895   0.00538   0.00000  Uiso   1.00
C1468  C     0.59030   0.83275   0.00365   0.00000  Uiso   1.00
C1469  C     0.56625   0.70105   0.99462   0.00000  Uiso   1.00
C1470  C     0.59030   0.66725   0.99635   0.00000  Uiso   1.00
C1471  C     0.95105   0.81625   0.50538   0.00000  Uiso   1.00
C1472  C     0.91725   0.84030   0.50365   0.00000  Uiso   1.00
C1473  C     0.54895   0.81625   0.49462   0.00000  Uiso   1.00
C1474  C     0.97157   0.73237   0.45848   0.00000  Uiso   1.00
C1475  C     0.58275   0.84030   0.49635   0.00000  Uiso   1.00
C1476  C     0.68375   0.95105   0.50538   0.00000  Uiso   1.00
C1477  C     0.65970   0.91725   0.50365   0.00000  Uiso   1.00
C1478  C     0.68375   0.54895   0.49462   0.00000  Uiso   1.00
C1479  C     0.65970   0.58275   0.49635   0.00000  Uiso   1.00
C1480  C     0.54895   0.68375   0.50538   0.00000  Uiso   1.00
C1481  C     0.58275   0.65970   0.50365   0.00000  Uiso   1.00
C1482  C     0.95105   0.68375   0.49462   0.00000  Uiso   1.00
C1483  C     0.91725   0.65970   0.49635   0.00000  Uiso   1.00
C1484  C     0.81625   0.54895   0.50538   0.00000  Uiso   1.00
C1485  C     0.76763   0.52843   0.54152   0.00000  Uiso   1.00
C1486  C     0.84030   0.58275   0.50365   0.00000  Uiso   1.00
C1487  C     0.81625   0.95105   0.49462   0.00000  Uiso   1.00
C1488  C     0.84030   0.91725   0.49635   0.00000  Uiso   1.00
C1489  C     0.70269   0.56977   0.11206   0.00000  Uiso   1.00
C1490  C     0.66997   0.58837   0.13057   0.00000  Uiso   1.00
C1491  C     0.79731   0.56977   0.88794   0.00000  Uiso   1.00
C1492  C     0.83003   0.58837   0.86943   0.00000  Uiso   1.00
C1493  C     0.93023   0.70269   0.11206   0.00000  Uiso   1.00
C1494  C     0.91163   0.66997   0.13057   0.00000  Uiso   1.00
C1495  C     0.93023   0.79731   0.88794   0.00000  Uiso   1.00
C1496  C     0.76763   0.97157   0.45848   0.00000  Uiso   1.00
C1497  C     0.91163   0.83003   0.86943   0.00000  Uiso   1.00
C1498  C     0.79731   0.93023   0.11206   0.00000  Uiso   1.00
C1499  C     0.83003   0.91163   0.13057   0.00000  Uiso   1.00
C1500  C     0.70269   0.93023   0.88794   0.00000  Uiso   1.00
C1501  C     0.66997   0.91163   0.86943   0.00000  Uiso   1.00
C1502  C     0.56977   0.79731   0.11206   0.00000  Uiso   1.00
C1503  C     0.58837   0.83003   0.13057   0.00000  Uiso   1.00
C1504  C     0.56977   0.70269   0.88794   0.00000  Uiso   1.00
C1505  C     0.58837   0.66997   0.86943   0.00000  Uiso   1.00
C1506  C     0.95269   0.81977   0.61206   0.00000  Uiso   1.00
C1507  C     0.72173   0.51780   0.08193   0.00000  Uiso   1.00
C1508  C     0.91997   0.83837   0.63057   0.00000  Uiso   1.00
C1509  C     0.54731   0.81977   0.38794   0.00000  Uiso   1.00
C1510  C     0.58003   0.83837   0.36943   0.00000  Uiso   1.00
C1511  C     0.68023   0.95269   0.61206   0.00000  Uiso   1.00
C1512  C     0.66163   0.91997   0.63057   0.00000  Uiso   1.00
C1513  C     0.68023   0.54731   0.38794   0.00000  Uiso   1.00
C1514  C     0.66163   0.58003   0.36943   0.00000  Uiso   1.00
C1515  C     0.54731   0.68023   0.61206   0.00000  Uiso   1.00
C1516  C     0.58003   0.66163   0.63057   0.00000  Uiso   1.00
C1517  C     0.95269   0.68023   0.38794   0.00000  Uiso   1.00
C1518  C     0.77827   0.51780   0.91807   0.00000  Uiso   1.00
C1519  C     0.91997   0.66163   0.36943   0.00000  Uiso   1.00
C1520  C     0.81977   0.54731   0.61206   0.00000  Uiso   1.00
C1521  C     0.83837   0.58003   0.63057   0.00000  Uiso   1.00
C1522  C     0.81977   0.95269   0.38794   0.00000  Uiso   1.00
C1523  C     0.83837   0.91997   0.36943   0.00000  Uiso   1.00
C1524  C     0.98220   0.72173   0.08193   0.00000  Uiso   1.00
C1525  C     0.77843   0.51763   0.95848   0.00000  Uiso   1.00
C1526  C     0.98220   0.77827   0.91807   0.00000  Uiso   1.00
C1527  C     0.77827   0.98220   0.08193   0.00000  Uiso   1.00
C1528  C     0.72173   0.98220   0.91807   0.00000  Uiso   1.00
C1529  C     0.51779   0.77827   0.08193   0.00000  Uiso   1.00
C1530  C     0.51779   0.72173   0.91807   0.00000  Uiso   1.00
C1531  C     0.97173   0.76780   0.58193   0.00000  Uiso   1.00
C1532  C     0.52827   0.76779   0.41807   0.00000  Uiso   1.00
C1533  C     0.73220   0.97173   0.58193   0.00000  Uiso   1.00
C1534  C     0.73220   0.52827   0.41807   0.00000  Uiso   1.00
C1535  C     0.52827   0.73220   0.58193   0.00000  Uiso   1.00
C1536  C     0.98237   0.72157   0.04152   0.00000  Uiso   1.00
C1537  C     0.97173   0.73221   0.41807   0.00000  Uiso   1.00
C1538  C     0.76779   0.52827   0.58193   0.00000  Uiso   1.00
C1539  C     0.76779   0.97173   0.41807   0.00000  Uiso   1.00
C1540  C     0.75000   0.50000   0.02122   0.00000  Uiso   1.00
C1541  C     0.75000   0.50000   0.97879   0.00000  Uiso   1.00
C1542  C     0.50000   0.75000   0.02122   0.00000  Uiso   1.00
C1543  C     0.50000   0.75000   0.97879   0.00000  Uiso   1.00
C1544  C     0.50000   0.75000   0.52122   0.00000  Uiso   1.00
C1545  C     0.50000   0.75000   0.47879   0.00000  Uiso   1.00
C1546  C     0.75000   0.50000   0.52122   0.00000  Uiso   1.00
C1547  C     0.98237   0.77843   0.95848   0.00000  Uiso   1.00
C1548  C     0.75000   0.50000   0.47879   0.00000  Uiso   1.00
C1549  C     0.75000   0.50000   0.35521   0.00000  Uiso   1.00
C1550  C     0.75000   0.50000   0.64479   0.00000  Uiso   1.00
C1551  C     0.50000   0.75000   0.35521   0.00000  Uiso   1.00
C1552  C     0.50000   0.75000   0.64479   0.00000  Uiso   1.00
C1553  C     0.50000   0.75000   0.85521   0.00000  Uiso   1.00
C1554  C     0.50000   0.75000   0.14479   0.00000  Uiso   1.00
C1555  C     0.75000   0.50000   0.85521   0.00000  Uiso   1.00
C1556  C     0.75000   0.50000   0.14479   0.00000  Uiso   1.00
C1557  C     0.67993   0.57007   0.25000   0.00000  Uiso   1.00
C1558  C     0.77843   0.98237   0.04152   0.00000  Uiso   1.00
C1559  C     0.82007   0.92993   0.75000   0.00000  Uiso   1.00
C1560  C     0.92993   0.67993   0.25000   0.00000  Uiso   1.00
C1561  C     0.57007   0.82007   0.75000   0.00000  Uiso   1.00
C1562  C     0.82007   0.92993   0.25000   0.00000  Uiso   1.00
C1563  C     0.67993   0.57007   0.75000   0.00000  Uiso   1.00
C1564  C     0.57007   0.82007   0.25000   0.00000  Uiso   1.00
C1565  C     0.92993   0.67993   0.75000   0.00000  Uiso   1.00
C1566  C     0.67993   0.92993   0.75000   0.00000  Uiso   1.00
C1567  C     0.82007   0.57007   0.25000   0.00000  Uiso   1.00
C1568  C     0.92993   0.82007   0.75000   0.00000  Uiso   1.00
C1569  C     0.72157   0.98237   0.95848   0.00000  Uiso   1.00
C1570  C     0.57007   0.67993   0.25000   0.00000  Uiso   1.00
C1571  C     0.82007   0.57007   0.75000   0.00000  Uiso   1.00
C1572  C     0.67993   0.92993   0.25000   0.00000  Uiso   1.00
C1573  C     0.57007   0.67993   0.75000   0.00000  Uiso   1.00
C1574  C     0.92993   0.82007   0.25000   0.00000  Uiso   1.00
C1575  C     0.61991   0.90684   0.22838   0.00000  Uiso   1.00
C1576  C     0.88014   0.59312   0.77152   0.00000  Uiso   1.00
C1577  C     0.59316   0.61991   0.22838   0.00000  Uiso   1.00
C1578  C     0.90688   0.88014   0.77152   0.00000  Uiso   1.00
C1579  C     0.88009   0.59316   0.22838   0.00000  Uiso   1.00
C1580  C     0.51763   0.77843   0.04152   0.00000  Uiso   1.00
C1581  C     0.61986   0.90688   0.77152   0.00000  Uiso   1.00
C1582  C     0.90684   0.88009   0.22838   0.00000  Uiso   1.00
C1583  C     0.59312   0.61986   0.77152   0.00000  Uiso   1.00
C1584  C     0.61991   0.59316   0.77162   0.00000  Uiso   1.00
C1585  C     0.88014   0.90688   0.22848   0.00000  Uiso   1.00
C1586  C     0.59316   0.88009   0.77162   0.00000  Uiso   1.00
C1587  C     0.90688   0.61986   0.22848   0.00000  Uiso   1.00
C1588  C     0.88009   0.90684   0.77162   0.00000  Uiso   1.00
C1589  C     0.61986   0.59312   0.22848   0.00000  Uiso   1.00
C1590  C     0.90684   0.61991   0.77162   0.00000  Uiso   1.00
C1591  C     0.51763   0.72157   0.95848   0.00000  Uiso   1.00
C1592  C     0.59312   0.88014   0.22848   0.00000  Uiso   1.00
C1593  C     0.86991   0.65684   0.72838   0.00000  Uiso   1.00
C1594  C     0.63014   0.84312   0.27152   0.00000  Uiso   1.00
C1595  C     0.84316   0.86991   0.72838   0.00000  Uiso   1.00
C1596  C     0.65688   0.63014   0.27152   0.00000  Uiso   1.00
C1597  C     0.63009   0.84316   0.72838   0.00000  Uiso   1.00
C1598  C     0.86986   0.65688   0.27152   0.00000  Uiso   1.00
C1599  C     0.65684   0.63009   0.72838   0.00000  Uiso   1.00
C1600  C     0.84312   0.86986   0.27152   0.00000  Uiso   1.00
C1601  C     0.86991   0.84316   0.27162   0.00000  Uiso   1.00
C1602  C     0.97157   0.76763   0.54152   0.00000  Uiso   1.00
C1603  C     0.63014   0.65688   0.72848   0.00000  Uiso   1.00
C1604  C     0.84316   0.63009   0.27162   0.00000  Uiso   1.00
C1605  C     0.65688   0.86986   0.72848   0.00000  Uiso   1.00
C1606  C     0.63009   0.65684   0.27162   0.00000  Uiso   1.00
C1607  C     0.86986   0.84312   0.72848   0.00000  Uiso   1.00
C1608  C     0.65684   0.86991   0.27162   0.00000  Uiso   1.00
C1609  C     0.84312   0.63014   0.72848   0.00000  Uiso   1.00
C1610  C     0.59813   0.84813   0.25000   0.00000  Uiso   1.00
C1611  C     0.90187   0.65187   0.75000   0.00000  Uiso   1.00
C1612  C     0.65187   0.59813   0.25000   0.00000  Uiso   1.00
H1613  H     0.61548   0.93139   0.21158   0.00000  Uiso   1.00
H1614  H     0.88466   0.93151   0.21184   0.00000  Uiso   1.00
H1615  H     0.90698   0.65432   0.46670   0.00000  Uiso   1.00
H1616  H     0.92405   0.63328   0.51034   0.00000  Uiso   1.00
H1617  H     0.89551   0.67340   0.51340   0.00000  Uiso   1.00
H1618  H     0.81169   0.53938   0.47532   0.00000  Uiso   1.00
H1619  H     0.83140   0.52744   0.52154   0.00000  Uiso   1.00
H1620  H     0.84568   0.59302   0.53330   0.00000  Uiso   1.00
H1621  H     0.86672   0.57595   0.48966   0.00000  Uiso   1.00
H1622  H     0.82660   0.60449   0.48660   0.00000  Uiso   1.00
H1623  H     0.81169   0.96062   0.52468   0.00000  Uiso   1.00
H1624  H     0.83140   0.97256   0.47846   0.00000  Uiso   1.00
H1625  H     0.56861   0.88452   0.78842   0.00000  Uiso   1.00
H1626  H     0.84568   0.90698   0.46670   0.00000  Uiso   1.00
H1627  H     0.86672   0.92405   0.51034   0.00000  Uiso   1.00
H1628  H     0.82660   0.89551   0.51340   0.00000  Uiso   1.00
H1629  H     0.71118   0.58630   0.08668   0.00000  Uiso   1.00
H1630  H     0.72535   0.56952   0.13347   0.00000  Uiso   1.00
H1631  H     0.66065   0.57237   0.15593   0.00000  Uiso   1.00
H1632  H     0.67760   0.61624   0.14024   0.00000  Uiso   1.00
H1633  H     0.64728   0.59038   0.10939   0.00000  Uiso   1.00
H1634  H     0.78882   0.58630   0.91332   0.00000  Uiso   1.00
H1635  H     0.77465   0.56952   0.86653   0.00000  Uiso   1.00
H1636  H     0.93151   0.61534   0.21184   0.00000  Uiso   1.00
H1637  H     0.83935   0.57237   0.84407   0.00000  Uiso   1.00
H1638  H     0.82240   0.61624   0.85977   0.00000  Uiso   1.00
H1639  H     0.85272   0.59038   0.89061   0.00000  Uiso   1.00
H1640  H     0.91370   0.71118   0.08668   0.00000  Uiso   1.00
H1641  H     0.93048   0.72535   0.13347   0.00000  Uiso   1.00
H1642  H     0.92763   0.66065   0.15593   0.00000  Uiso   1.00
H1643  H     0.88376   0.67760   0.14024   0.00000  Uiso   1.00
H1644  H     0.90962   0.64728   0.10939   0.00000  Uiso   1.00
H1645  H     0.91370   0.78882   0.91332   0.00000  Uiso   1.00
H1646  H     0.93048   0.77465   0.86653   0.00000  Uiso   1.00
H1647  H     0.88452   0.93139   0.78842   0.00000  Uiso   1.00
H1648  H     0.92763   0.83935   0.84407   0.00000  Uiso   1.00
H1649  H     0.88376   0.82240   0.85977   0.00000  Uiso   1.00
H1650  H     0.90962   0.85272   0.89061   0.00000  Uiso   1.00
H1651  H     0.78882   0.91370   0.08668   0.00000  Uiso   1.00
H1652  H     0.77465   0.93048   0.13347   0.00000  Uiso   1.00
H1653  H     0.83935   0.92763   0.15593   0.00000  Uiso   1.00
H1654  H     0.82240   0.88376   0.14024   0.00000  Uiso   1.00
H1655  H     0.85272   0.90962   0.10939   0.00000  Uiso   1.00
H1656  H     0.71118   0.91370   0.91332   0.00000  Uiso   1.00
H1657  H     0.72535   0.93048   0.86653   0.00000  Uiso   1.00
H1658  H     0.61534   0.56849   0.21184   0.00000  Uiso   1.00
H1659  H     0.66065   0.92763   0.84407   0.00000  Uiso   1.00
H1660  H     0.67760   0.88376   0.85977   0.00000  Uiso   1.00
H1661  H     0.64728   0.90962   0.89061   0.00000  Uiso   1.00
H1662  H     0.58630   0.78882   0.08668   0.00000  Uiso   1.00
H1663  H     0.56952   0.77465   0.13347   0.00000  Uiso   1.00
H1664  H     0.57237   0.83935   0.15593   0.00000  Uiso   1.00
H1665  H     0.61624   0.82240   0.14024   0.00000  Uiso   1.00
H1666  H     0.59038   0.85272   0.10939   0.00000  Uiso   1.00
H1667  H     0.58630   0.71118   0.91332   0.00000  Uiso   1.00
H1668  H     0.56952   0.72535   0.86653   0.00000  Uiso   1.00
H1669  H     0.93139   0.61548   0.78842   0.00000  Uiso   1.00
H1670  H     0.57237   0.66065   0.84407   0.00000  Uiso   1.00
H1671  H     0.61624   0.67760   0.85977   0.00000  Uiso   1.00
H1672  H     0.59038   0.64728   0.89061   0.00000  Uiso   1.00
H1673  H     0.96118   0.83630   0.58668   0.00000  Uiso   1.00
H1674  H     0.97535   0.81952   0.63347   0.00000  Uiso   1.00
H1675  H     0.91065   0.82237   0.65593   0.00000  Uiso   1.00
H1676  H     0.92760   0.86624   0.64024   0.00000  Uiso   1.00
H1677  H     0.89728   0.84038   0.60939   0.00000  Uiso   1.00
H1678  H     0.53882   0.83630   0.41332   0.00000  Uiso   1.00
H1679  H     0.52465   0.81952   0.36653   0.00000  Uiso   1.00
H1680  H     0.56849   0.88466   0.21184   0.00000  Uiso   1.00
H1681  H     0.58935   0.82237   0.34407   0.00000  Uiso   1.00
H1682  H     0.57240   0.86624   0.35977   0.00000  Uiso   1.00
H1683  H     0.60272   0.84038   0.39061   0.00000  Uiso   1.00
H1684  H     0.66370   0.96118   0.58668   0.00000  Uiso   1.00
H1685  H     0.68048   0.97535   0.63347   0.00000  Uiso   1.00
H1686  H     0.67763   0.91065   0.65593   0.00000  Uiso   1.00
H1687  H     0.63376   0.92760   0.64024   0.00000  Uiso   1.00
H1688  H     0.65962   0.89728   0.60939   0.00000  Uiso   1.00
H1689  H     0.66370   0.53882   0.41332   0.00000  Uiso   1.00
H1690  H     0.68048   0.52465   0.36653   0.00000  Uiso   1.00
H1691  H     0.86548   0.68139   0.71158   0.00000  Uiso   1.00
H1692  H     0.67763   0.58935   0.34407   0.00000  Uiso   1.00
H1693  H     0.63376   0.57240   0.35977   0.00000  Uiso   1.00
H1694  H     0.65962   0.60272   0.39061   0.00000  Uiso   1.00
H1695  H     0.53882   0.66370   0.58668   0.00000  Uiso   1.00
H1696  H     0.52465   0.68048   0.63347   0.00000  Uiso   1.00
H1697  H     0.58935   0.67763   0.65593   0.00000  Uiso   1.00
H1698  H     0.57240   0.63376   0.64024   0.00000  Uiso   1.00
H1699  H     0.60272   0.65962   0.60939   0.00000  Uiso   1.00
H1700  H     0.96118   0.66370   0.41332   0.00000  Uiso   1.00
H1701  H     0.97535   0.68048   0.36653   0.00000  Uiso   1.00
H1702  H     0.63466   0.81849   0.28816   0.00000  Uiso   1.00
H1703  H     0.91065   0.67763   0.34407   0.00000  Uiso   1.00
H1704  H     0.92760   0.63376   0.35977   0.00000  Uiso   1.00
H1705  H     0.89728   0.65962   0.39061   0.00000  Uiso   1.00
H1706  H     0.83630   0.53882   0.58668   0.00000  Uiso   1.00
H1707  H     0.81952   0.52465   0.63347   0.00000  Uiso   1.00
H1708  H     0.82237   0.58935   0.65593   0.00000  Uiso   1.00
H1709  H     0.86624   0.57240   0.64024   0.00000  Uiso   1.00
H1710  H     0.84038   0.60272   0.60939   0.00000  Uiso   1.00
H1711  H     0.83630   0.96118   0.41332   0.00000  Uiso   1.00
H1712  H     0.81952   0.97535   0.36653   0.00000  Uiso   1.00
H1713  H     0.81861   0.86548   0.71158   0.00000  Uiso   1.00
H1714  H     0.82237   0.91065   0.34407   0.00000  Uiso   1.00
H1715  H     0.86624   0.92760   0.35977   0.00000  Uiso   1.00
H1716  H     0.84038   0.89728   0.39061   0.00000  Uiso   1.00
H1717  H     0.88466   0.56849   0.78816   0.00000  Uiso   1.00
H1718  H     0.68151   0.63466   0.28816   0.00000  Uiso   1.00
H1719  H     0.63452   0.81861   0.71158   0.00000  Uiso   1.00
H1720  H     0.86534   0.68151   0.28816   0.00000  Uiso   1.00
H1721  H     0.68139   0.63452   0.71158   0.00000  Uiso   1.00
H1722  H     0.81849   0.86534   0.28816   0.00000  Uiso   1.00
H1723  H     0.86548   0.81861   0.28842   0.00000  Uiso   1.00
H1724  H     0.63466   0.68151   0.71184   0.00000  Uiso   1.00
H1725  H     0.81861   0.63452   0.28842   0.00000  Uiso   1.00
H1726  H     0.68151   0.86534   0.71184   0.00000  Uiso   1.00
H1727  H     0.63452   0.68139   0.28842   0.00000  Uiso   1.00
H1728  H     0.56861   0.61548   0.21158   0.00000  Uiso   1.00
H1729  H     0.86534   0.81849   0.71184   0.00000  Uiso   1.00
H1730  H     0.68139   0.86548   0.28842   0.00000  Uiso   1.00
H1731  H     0.81849   0.63466   0.71184   0.00000  Uiso   1.00
H1732  H     0.71062   0.56169   0.97532   0.00000  Uiso   1.00
H1733  H     0.72256   0.58140   0.02154   0.00000  Uiso   1.00
H1734  H     0.65698   0.59568   0.03330   0.00000  Uiso   1.00
H1735  H     0.67405   0.61672   0.98966   0.00000  Uiso   1.00
H1736  H     0.64551   0.57660   0.98660   0.00000  Uiso   1.00
H1737  H     0.78938   0.56169   0.02468   0.00000  Uiso   1.00
H1738  H     0.77744   0.58140   0.97846   0.00000  Uiso   1.00
H1739  H     0.93151   0.88466   0.78816   0.00000  Uiso   1.00
H1740  H     0.84302   0.59568   0.96670   0.00000  Uiso   1.00
H1741  H     0.82595   0.61672   0.01034   0.00000  Uiso   1.00
H1742  H     0.85449   0.57660   0.01340   0.00000  Uiso   1.00
H1743  H     0.93831   0.71062   0.97532   0.00000  Uiso   1.00
H1744  H     0.91860   0.72256   0.02154   0.00000  Uiso   1.00
H1745  H     0.90432   0.65698   0.03330   0.00000  Uiso   1.00
H1746  H     0.88328   0.67405   0.98966   0.00000  Uiso   1.00
H1747  H     0.92340   0.64551   0.98660   0.00000  Uiso   1.00
H1748  H     0.93831   0.78938   0.02468   0.00000  Uiso   1.00
H1749  H     0.91860   0.77744   0.97846   0.00000  Uiso   1.00
H1750  H     0.88452   0.56861   0.21158   0.00000  Uiso   1.00
H1751  H     0.90432   0.84302   0.96670   0.00000  Uiso   1.00
H1752  H     0.88328   0.82595   0.01034   0.00000  Uiso   1.00
H1753  H     0.92340   0.85449   0.01340   0.00000  Uiso   1.00
H1754  H     0.78938   0.93831   0.97532   0.00000  Uiso   1.00
H1755  H     0.77744   0.91860   0.02154   0.00000  Uiso   1.00
H1756  H     0.84302   0.90432   0.03330   0.00000  Uiso   1.00
H1757  H     0.82595   0.88328   0.98966   0.00000  Uiso   1.00
H1758  H     0.85449   0.92340   0.98660   0.00000  Uiso   1.00
H1759  H     0.71062   0.93831   0.02468   0.00000  Uiso   1.00
H1760  H     0.72256   0.91860   0.97846   0.00000  Uiso   1.00
H1761  H     0.61534   0.93151   0.78816   0.00000  Uiso   1.00
H1762  H     0.65698   0.90432   0.96670   0.00000  Uiso   1.00
H1763  H     0.67405   0.88328   0.01034   0.00000  Uiso   1.00
H1764  H     0.64551   0.92340   0.01340   0.00000  Uiso   1.00
H1765  H     0.56169   0.78938   0.97532   0.00000  Uiso   1.00
H1766  H     0.58140   0.77744   0.02154   0.00000  Uiso   1.00
H1767  H     0.59568   0.84302   0.03330   0.00000  Uiso   1.00
H1768  H     0.61672   0.82595   0.98966   0.00000  Uiso   1.00
H1769  H     0.57660   0.85449   0.98660   0.00000  Uiso   1.00
H1770  H     0.56169   0.71062   0.02468   0.00000  Uiso   1.00
H1771  H     0.58140   0.72256   0.97846   0.00000  Uiso   1.00
H1772  H     0.93139   0.88452   0.21158   0.00000  Uiso   1.00
H1773  H     0.59568   0.65698   0.96670   0.00000  Uiso   1.00
H1774  H     0.61672   0.67405   0.01034   0.00000  Uiso   1.00
H1775  H     0.57660   0.64551   0.01340   0.00000  Uiso   1.00
H1776  H     0.96062   0.81169   0.47532   0.00000  Uiso   1.00
H1777  H     0.97256   0.83140   0.52154   0.00000  Uiso   1.00
H1778  H     0.90698   0.84568   0.53330   0.00000  Uiso   1.00
H1779  H     0.92405   0.86672   0.48966   0.00000  Uiso   1.00
H1780  H     0.89551   0.82660   0.48660   0.00000  Uiso   1.00
H1781  H     0.53938   0.81169   0.52468   0.00000  Uiso   1.00
H1782  H     0.52744   0.83140   0.47846   0.00000  Uiso   1.00
H1783  H     0.56849   0.61534   0.78816   0.00000  Uiso   1.00
H1784  H     0.59302   0.84568   0.46670   0.00000  Uiso   1.00
H1785  H     0.57595   0.86672   0.51034   0.00000  Uiso   1.00
H1786  H     0.60449   0.82660   0.51340   0.00000  Uiso   1.00
H1787  H     0.68831   0.96062   0.47532   0.00000  Uiso   1.00
H1788  H     0.66860   0.97256   0.52154   0.00000  Uiso   1.00
H1789  H     0.65432   0.90698   0.53330   0.00000  Uiso   1.00
H1790  H     0.63328   0.92405   0.48966   0.00000  Uiso   1.00
H1791  H     0.67340   0.89551   0.48660   0.00000  Uiso   1.00
H1792  H     0.68831   0.53938   0.52468   0.00000  Uiso   1.00
H1793  H     0.66860   0.52744   0.47846   0.00000  Uiso   1.00
H1794  H     0.61548   0.56861   0.78842   0.00000  Uiso   1.00
H1795  H     0.65432   0.59302   0.46670   0.00000  Uiso   1.00
H1796  H     0.63328   0.57595   0.51034   0.00000  Uiso   1.00
H1797  H     0.67340   0.60449   0.51340   0.00000  Uiso   1.00
H1798  H     0.53938   0.68831   0.47532   0.00000  Uiso   1.00
H1799  H     0.52744   0.66860   0.52154   0.00000  Uiso   1.00
H1800  H     0.59302   0.65432   0.53330   0.00000  Uiso   1.00
H1801  H     0.57595   0.63328   0.48966   0.00000  Uiso   1.00
H1802  H     0.60449   0.67340   0.48660   0.00000  Uiso   1.00
H1803  H     0.96062   0.68831   0.52468   0.00000  Uiso   1.00
H1804  H     0.97256   0.66860   0.47846   0.00000  Uiso   1.00
O1805  O     0.75000   0.50000   0.25000   0.00000  Uiso   1.00
O1806  O     0.75000   0.96964   0.66317   0.00000  Uiso   1.00
O1807  O     0.96964   0.75000   0.33683   0.00000  Uiso   1.00
O1808  O     0.53036   0.75000   0.66317   0.00000  Uiso   1.00
O1809  O     0.50000   0.71964   0.83683   0.00000  Uiso   1.00
O1810  O     0.50000   0.78036   0.16317   0.00000  Uiso   1.00
O1811  O     0.78036   0.50000   0.83683   0.00000  Uiso   1.00
O1812  O     0.71964   0.50000   0.16317   0.00000  Uiso   1.00
O1813  O     0.50000   0.78036   0.83683   0.00000  Uiso   1.00
O1814  O     0.50000   0.71964   0.16317   0.00000  Uiso   1.00
O1815  O     0.71964   0.50000   0.83683   0.00000  Uiso   1.00
O1816  O     0.75000   0.50000   0.75000   0.00000  Uiso   1.00
O1817  O     0.78036   0.50000   0.16317   0.00000  Uiso   1.00
O1818  O     0.70725   0.57307   0.27282   0.00000  Uiso   1.00
O1819  O     0.79274   0.92693   0.72718   0.00000  Uiso   1.00
O1820  O     0.92693   0.70726   0.27282   0.00000  Uiso   1.00
O1821  O     0.57307   0.79274   0.72718   0.00000  Uiso   1.00
O1822  O     0.79274   0.92693   0.27282   0.00000  Uiso   1.00
O1823  O     0.70725   0.57307   0.72718   0.00000  Uiso   1.00
O1824  O     0.57307   0.79274   0.27282   0.00000  Uiso   1.00
O1825  O     0.92693   0.70726   0.72718   0.00000  Uiso   1.00
O1826  O     0.70725   0.92693   0.72718   0.00000  Uiso   1.00
O1827  O     0.50000   0.75000   0.25000   0.00000  Uiso   1.00
O1828  O     0.79274   0.57307   0.27282   0.00000  Uiso   1.00
O1829  O     0.92693   0.79275   0.72718   0.00000  Uiso   1.00
O1830  O     0.57307   0.70725   0.27282   0.00000  Uiso   1.00
O1831  O     0.79274   0.57307   0.72718   0.00000  Uiso   1.00
O1832  O     0.70725   0.92693   0.27282   0.00000  Uiso   1.00
O1833  O     0.57307   0.70725   0.72718   0.00000  Uiso   1.00
O1834  O     0.92693   0.79275   0.27282   0.00000  Uiso   1.00
O1835  O     0.95725   0.82307   0.77282   0.00000  Uiso   1.00
O1836  O     0.54274   0.67693   0.22718   0.00000  Uiso   1.00
O1837  O     0.67693   0.95725   0.77282   0.00000  Uiso   1.00
O1838  O     0.50000   0.75000   0.75000   0.00000  Uiso   1.00
O1839  O     0.82307   0.54275   0.22718   0.00000  Uiso   1.00
O1840  O     0.54274   0.67693   0.77282   0.00000  Uiso   1.00
O1841  O     0.95725   0.82307   0.22718   0.00000  Uiso   1.00
O1842  O     0.82307   0.54275   0.77282   0.00000  Uiso   1.00
O1843  O     0.67693   0.95725   0.22718   0.00000  Uiso   1.00
O1844  O     0.95725   0.67693   0.22718   0.00000  Uiso   1.00
O1845  O     0.54274   0.82307   0.77282   0.00000  Uiso   1.00
O1846  O     0.67693   0.54275   0.22718   0.00000  Uiso   1.00
O1847  O     0.82307   0.95725   0.77282   0.00000  Uiso   1.00
O1848  O     0.54274   0.82307   0.22718   0.00000  Uiso   1.00
O1849  O     0.75000   0.96964   0.33683   0.00000  Uiso   1.00
O1850  O     0.95725   0.67693   0.77282   0.00000  Uiso   1.00
O1851  O     0.82307   0.95725   0.22718   0.00000  Uiso   1.00
O1852  O     0.67693   0.54275   0.77282   0.00000  Uiso   1.00
O1853  O     0.69169   0.53248   0.02256   0.00000  Uiso   1.00
O1854  O     0.80831   0.53248   0.97744   0.00000  Uiso   1.00
O1855  O     0.96752   0.69169   0.02256   0.00000  Uiso   1.00
O1856  O     0.96752   0.80831   0.97744   0.00000  Uiso   1.00
O1857  O     0.80831   0.96752   0.02256   0.00000  Uiso   1.00
O1858  O     0.69169   0.96752   0.97744   0.00000  Uiso   1.00
O1859  O     0.53248   0.80831   0.02256   0.00000  Uiso   1.00
O1860  O     0.75000   0.53036   0.66317   0.00000  Uiso   1.00
O1861  O     0.53248   0.69169   0.97744   0.00000  Uiso   1.00
O1862  O     0.94169   0.78248   0.52256   0.00000  Uiso   1.00
O1863  O     0.55831   0.78248   0.47744   0.00000  Uiso   1.00
O1864  O     0.71752   0.94169   0.52256   0.00000  Uiso   1.00
O1865  O     0.71752   0.55831   0.47744   0.00000  Uiso   1.00
O1866  O     0.55831   0.71752   0.52256   0.00000  Uiso   1.00
O1867  O     0.94169   0.71752   0.47744   0.00000  Uiso   1.00
O1868  O     0.78248   0.55831   0.52256   0.00000  Uiso   1.00
O1869  O     0.78248   0.94169   0.47744   0.00000  Uiso   1.00
O1870  O     0.69278   0.53394   0.10117   0.00000  Uiso   1.00
O1871  O     0.53036   0.75000   0.33683   0.00000  Uiso   1.00
O1872  O     0.80722   0.53394   0.89883   0.00000  Uiso   1.00
O1873  O     0.96606   0.69278   0.10117   0.00000  Uiso   1.00
O1874  O     0.96606   0.80722   0.89883   0.00000  Uiso   1.00
O1875  O     0.80722   0.96606   0.10117   0.00000  Uiso   1.00
O1876  O     0.69278   0.96606   0.89883   0.00000  Uiso   1.00
O1877  O     0.53394   0.80722   0.10117   0.00000  Uiso   1.00
O1878  O     0.53394   0.69278   0.89883   0.00000  Uiso   1.00
O1879  O     0.94278   0.78394   0.60117   0.00000  Uiso   1.00
O1880  O     0.55722   0.78394   0.39883   0.00000  Uiso   1.00
O1881  O     0.71606   0.94278   0.60117   0.00000  Uiso   1.00
O1882  O     0.96964   0.75000   0.66317   0.00000  Uiso   1.00
O1883  O     0.71606   0.55722   0.39883   0.00000  Uiso   1.00
O1884  O     0.55722   0.71606   0.60117   0.00000  Uiso   1.00
O1885  O     0.94278   0.71606   0.39883   0.00000  Uiso   1.00
O1886  O     0.78394   0.55722   0.60117   0.00000  Uiso   1.00
O1887  O     0.78394   0.94278   0.39883   0.00000  Uiso   1.00
O1888  O     0.75000   0.53036   0.33683   0.00000  Uiso   1.00
Zn1889 Zn    0.70660   0.50000   0.21760   0.00000  Uiso   1.00
Zn1890 Zn    0.54340   0.75000   0.28240   0.00000  Uiso   1.00
Zn1891 Zn    0.75000   0.95660   0.71760   0.00000  Uiso   1.00
Zn1892 Zn    0.75000   0.54340   0.28240   0.00000  Uiso   1.00
Zn1893 Zn    0.54340   0.75000   0.71760   0.00000  Uiso   1.00
Zn1894 Zn    0.95660   0.75000   0.28240   0.00000  Uiso   1.00
Zn1895 Zn    0.75000   0.54340   0.71760   0.00000  Uiso   1.00
Zn1896 Zn    0.75000   0.95660   0.28240   0.00000  Uiso   1.00
Zn1897 Zn    0.79340   0.50000   0.78240   0.00000  Uiso   1.00
Zn1898 Zn    0.50000   0.70660   0.21760   0.00000  Uiso   1.00
Zn1899 Zn    0.50000   0.79340   0.78240   0.00000  Uiso   1.00
Zn1900 Zn    0.79340   0.50000   0.21760   0.00000  Uiso   1.00
Zn1901 Zn    0.70660   0.50000   0.78240   0.00000  Uiso   1.00
Zn1902 Zn    0.50000   0.79340   0.21760   0.00000  Uiso   1.00
Zn1903 Zn    0.50000   0.70660   0.78240   0.00000  Uiso   1.00
Zn1904 Zn    0.95660   0.75000   0.71760   0.00000  Uiso   1.00
loop_
_geom_bond_atom_site_label_1
_geom_bond_atom_site_label_2
_geom_bond_distance
_geom_bond_site_symmetry_2
_ccdc_geom_bond_type
C1     O425    1.387   .     S
C1     C79     1.398   .     A
C1     C112    1.413   .     S
C2     C104    1.398   .     A
C2     O435    1.387   .     S
C2     C117    1.413   .     S
C3     C131    1.454   .     S
C3     C167    1.401   .     A
C3     C160    1.401   .     A
C4     C159    1.401   .     A
C4     C132    1.454   .     S
C4     C170    1.401   .     A
C5     C158    1.401   .     A
C5     C133    1.454   .     S
C5     C169    1.401   .     A
C6     C172    1.401   .     A
C6     C157    1.401   .     A
C6     C134    1.454   .     S
C7     C156    1.401   .     A
C7     C171    1.401   .     A
C7     C135    1.454   .     S
C8     C145    1.454   .     S
C8     C175    1.401   .     A
C8     C155    1.401   .     A
C9     C146    1.454   .     S
C9     C173    1.401   .     A
C9     C154    1.401   .     A
C10    C138    1.454   .     S
C10    C177    1.401   .     A
C10    C153    1.401   .     A
C11    C176    1.401   .     A
C11    C151    1.401   .     A
C11    C139    1.454   .     S
C12    C150    1.401   .     A
C12    C140    1.454   .     S
C12    C179    1.401   .     A
C13    O436    1.387   .     S
C13    C105    1.398   .     A
C13    C1070   1.413   .     S
C14    C149    1.401   .     A
C14    C142    1.454   .     S
C14    C178    1.401   .     A
C15    C148    1.401   .     A
C15    C143    1.454   .     S
C15    C181    1.401   .     A
C16    C144    1.454   .     S
C16    C180    1.401   .     A
C16    C147    1.401   .     A
C17    C128    1.469   .     S
C17    C79     1.413   .     A
C17    C1051   1.413   1_545 S
C18    C90     1.413   .     A
C18    C127    1.469   .     S
C18    C1052   1.413   1_545 S
C19    C126    1.469   .     S
C19    C572    1.413   1_455 A
C19    C101    1.413   .     S
C20    C125    1.469   .     S
C20    C574    1.413   1_455 A
C20    C102    1.413   .     S
C21    C107    1.413   .     A
C21    C579    1.413   1_455 S
C21    C124    1.469   .     S
C22    C585    1.413   1_455 A
C22    C123    1.469   .     S
C22    C104    1.413   .     S
C23    C122    1.469   .     S
C23    C1057   1.413   1_545 A
C23    C110    1.413   .     S
C24    C106    1.398   .     A
C24    O437    1.387   .     S
C24    C120    1.413   .     S
C25    C121    1.469   .     S
C25    C1063   1.413   1_545 A
C25    C106    1.413   .     S
C26    O425    1.415   .     S
C26    C27     1.521   .     S
C26    H305    1.114   .     S
C26    H304    1.110   1_554 S
C27    H306    1.110   .     S
C27    H307    1.111   1_554 S
C27    H308    1.111   1_554 S
C28    H310    1.114   .     S
C28    O426    1.415   .     S
C28    C29     1.521   .     S
C28    H309    1.110   1_556 S
C29    H312    1.110   .     S
C29    H313    1.111   1_556 S
C29    H314    1.111   1_556 S
C30    H316    1.114   .     S
C30    C31     1.521   .     S
C30    O427    1.415   .     S
C30    H315    1.110   1_554 S
C31    H317    1.110   .     S
C31    H318    1.111   1_554 S
C31    H319    1.111   1_554 S
C32    C33     1.521   .     S
C32    O428    1.415   .     S
C32    H321    1.114   .     S
C32    H320    1.110   1_556 S
C33    H323    1.110   .     S
C33    H324    1.111   1_556 S
C33    H325    1.111   1_556 S
C34    O429    1.415   .     S
C34    H327    1.114   .     S
C34    C36     1.521   .     S
C34    H326    1.110   1_554 S
C35    C107    1.398   .     A
C35    O438    1.387   .     S
C35    C116    1.413   .     S
C36    H328    1.110   .     S
C36    H329    1.111   1_554 S
C36    H330    1.111   1_554 S
C37    C38     1.521   .     S
C37    O430    1.415   .     S
C37    H332    1.114   .     S
C37    H331    1.110   1_556 S
C38    H334    1.110   .     S
C38    H335    1.111   1_556 S
C38    H336    1.111   1_556 S
C39    H338    1.114   .     S
C39    C40     1.521   .     S
C39    O431    1.415   .     S
C39    H337    1.110   1_554 S
C40    H339    1.110   .     S
C40    H340    1.111   1_554 S
C40    H341    1.111   1_554 S
C41    C42     1.521   .     S
C41    H343    1.114   .     S
C41    O433    1.415   .     S
C41    H342    1.110   1_556 S
C42    H345    1.110   .     S
C42    H346    1.111   1_556 S
C42    H347    1.111   1_556 S
C43    H349    1.114   .     S
C43    C44     1.521   .     S
C43    O434    1.415   .     S
C43    H348    1.110   .     S
C44    H351    1.111   .     S
C44    H350    1.110   .     S
C44    H352    1.111   .     S
C45    H354    1.114   .     S
C45    C47     1.521   .     S
C45    O435    1.415   .     S
C45    H353    1.110   .     S
C46    C593    1.413   .     A
C46    O439    1.387   .     S
C46    C109    1.398   .     A
C47    H357    1.111   .     S
C47    H356    1.110   .     S
C47    H358    1.111   .     S
C48    O436    1.415   .     S
C48    H360    1.114   .     S
C48    C49     1.521   .     S
C48    H359    1.110   .     S
C49    H361    1.110   .     S
C49    H363    1.111   .     S
C49    H362    1.111   .     S
C50    O437    1.415   .     S
C50    C51     1.521   .     S
C50    H364    1.110   .     S
C50    H365    1.114   .     S
C51    H369    1.111   .     S
C51    H367    1.110   .     S
C51    H368    1.111   .     S
C52    O438    1.415   .     S
C52    C53     1.521   .     S
C52    H371    1.114   .     S
C52    H370    1.110   .     S
C53    H373    1.111   .     S
C53    H372    1.110   .     S
C53    H374    1.111   .     S
C54    H376    1.114   .     S
C54    C55     1.521   .     S
C54    O439    1.415   .     S
C54    H375    1.110   .     S
C55    H189    1.111   .     S
C55    H188    1.111   .     S
C55    H187    1.110   .     S
C56    H191    1.114   .     S
C56    H190    1.110   .     S
C56    O440    1.415   .     S
C56    C58     1.521   .     S
C57    O440    1.387   .     S
C57    C118    1.413   .     A
C57    C110    1.398   .     A
C58    H192    1.110   .     S
C58    H193    1.111   .     S
C58    H194    1.111   .     S
C59    C60     1.521   .     S
C59    H195    1.110   .     S
C59    H196    1.114   .     S
C59    O441    1.415   .     S
C60    H198    1.110   .     S
C60    H200    1.111   .     S
C60    H199    1.111   .     S
C61    O442    1.413   .     S
C61    H202    1.113   .     S
C61    C62     1.520   .     S
C61    H201    1.111   .     S
C62    H204    1.110   .     S
C62    H205    1.111   .     S
C62    H203    1.109   .     S
C63    H206    1.111   .     S
C63    C64     1.520   .     S
C63    H207    1.113   .     S
C63    O444    1.413   .     S
C64    H210    1.110   .     S
C64    H209    1.109   .     S
C64    H211    1.111   .     S
C65    H213    1.113   .     S
C65    H212    1.111   .     S
C65    O445    1.413   .     S
C65    C66     1.520   .     S
C66    H215    1.110   .     S
C66    H216    1.111   .     S
C66    H214    1.109   .     S
C67    H218    1.113   .     S
C67    C69     1.520   .     S
C67    H217    1.111   .     S
C67    O446    1.413   .     S
C68    O441    1.387   .     S
C68    C1072   1.413   .     A
C68    C111    1.398   .     A
C69    H221    1.110   .     S
C69    H220    1.109   .     S
C69    H222    1.111   .     S
C70    H223    1.111   .     S
C70    H224    1.113   .     S
C70    C71     1.520   .     S
C70    O447    1.413   .     S
C71    H225    1.109   .     S
C71    H226    1.110   .     S
C71    H227    1.111   .     S
C72    H229    1.113   .     S
C72    O448    1.413   .     S
C72    C73     1.520   .     S
C72    H228    1.111   .     S
C73    H231    1.109   .     S
C73    H233    1.111   .     S
C73    H232    1.110   .     S
C74    H234    1.111   .     S
C74    O449    1.413   .     S
C74    H235    1.113   .     S
C74    C75     1.520   .     S
C75    H238    1.111   .     S
C75    H236    1.109   .     S
C75    H237    1.110   .     S
C76    H239    1.111   .     S
C76    H240    1.113   .     S
C76    O450    1.413   .     S
C76    C77     1.520   .     S
C77    H244    1.111   .     S
C77    H243    1.110   .     S
C77    H242    1.109   .     S
C78    H245    1.111   .     S
C78    C80     1.520   .     S
C78    O451    1.413   .     S
C78    H246    1.113   .     S
C79    O442    1.385   .     S
C80    H247    1.109   .     S
C80    H248    1.110   .     S
C80    H249    1.111   .     S
C81    H251    1.113   .     S
C81    H250    1.111   .     S
C81    O452    1.413   .     S
C81    C82     1.520   .     S
C82    H255    1.111   .     S
C82    H253    1.109   .     S
C82    H254    1.110   .     S
C83    H256    1.111   .     S
C83    C84     1.520   .     S
C83    O453    1.413   .     S
C83    H257    1.113   .     S
C84    H259    1.110   .     S
C84    H258    1.109   .     S
C84    H260    1.111   .     S
C85    H262    1.113   .     S
C85    O455    1.413   .     S
C85    C86     1.520   .     S
C85    H261    1.111   .     S
C86    H264    1.109   .     S
C86    H266    1.111   .     S
C86    H265    1.110   .     S
C87    H268    1.113   .     S
C87    H267    1.111   .     S
C87    C88     1.520   .     S
C87    O456    1.413   .     S
C88    H269    1.109   .     S
C88    H271    1.111   .     S
C88    H270    1.110   .     S
C89    H273    1.113   .     S
C89    C91     1.520   .     S
C89    O457    1.413   .     S
C89    H272    1.111   .     S
C90    O444    1.385   .     S
C90    C97     1.398   .     A
C91    H276    1.110   .     S
C91    H277    1.111   .     S
C91    H275    1.109   .     S
C92    H278    1.111   .     S
C92    C93     1.520   .     S
C92    O458    1.413   .     S
C92    H279    1.113   .     S
C93    H282    1.111   .     S
C93    H281    1.110   .     S
C93    H280    1.109   .     S
C94    C95     1.520   .     S
C94    O459    1.413   .     S
C94    H283    1.111   .     S
C94    H284    1.113   .     S
C95    H288    1.111   .     S
C95    H286    1.109   .     S
C95    H287    1.110   .     S
C96    O445    1.385   .     S
C96    C108    1.398   .     A
C96    C495    1.413   .     A
C97    O426    1.387   .     S
C97    C113    1.413   .     S
C98    C496    1.413   .     A
C98    O446    1.385   .     S
C98    C119    1.398   .     A
C99    O447    1.385   .     S
C99    C130    1.398   .     A
C99    C969    1.413   .     S
C100   C141    1.398   .     A
C100   O448    1.385   .     S
C100   C970    1.413   .     S
C101   C152    1.398   .     A
C101   O449    1.385   .     S
C102   C163    1.398   .     A
C102   O450    1.385   .     S
C103   C174    1.398   .     A
C103   O451    1.385   .     S
C103   C497    1.413   .     S
C104   O452    1.385   .     S
C105   O453    1.385   .     S
C105   C975    1.413   .     A
C106   O455    1.385   .     S
C107   O456    1.385   .     S
C108   C590    1.413   .     A
C108   O427    1.387   .     S
C109   O457    1.385   .     S
C109   C498    1.413   .     A
C110   O458    1.385   .     S
C111   C977    1.413   .     A
C111   O459    1.385   .     S
C112   C1082   1.413   1_545 A
C112   C113    1.468   1_554 S
C113   C1093   1.413   1_545 A
C113   C112    1.468   1_556 S
C114   C584    1.413   1_455 A
C114   C115    1.468   1_554 S
C114   C152    1.413   .     S
C115   C595    1.413   1_455 A
C115   C114    1.468   1_556 S
C115   C163    1.413   .     S
C116   C650    1.413   1_455 A
C116   C117    1.468   .     S
C117   C522    1.413   1_455 A
C118   C965    1.413   1_545 S
C118   C120    1.468   .     S
C119   O428    1.387   .     S
C119   C591    1.413   .     A
C120   C1020   1.413   1_545 A
C121   O1373   1.281   1_545 A
C121   O460    1.281   .     S
C122   O1330   1.281   1_545 A
C122   O432    1.281   .     S
C123   O855    1.281   1_455 A
C123   O443    1.281   .     S
C124   O930    1.281   1_455 A
C124   O380    1.281   .     S
C125   O381    1.281   .     S
C125   O385    1.281   .     S
C126   O382    1.281   .     S
C126   O386    1.281   .     S
C127   O387    1.281   .     A
C127   O383    1.281   .     A
C128   O389    1.281   .     A
C128   O384    1.281   .     A
C129   O390    1.280   .     A
C129   O418    1.280   .     A
C129   C184    1.454   .     S
C130   C1064   1.413   .     A
C130   O429    1.387   .     S
C131   O419    1.280   .     A
C131   O391    1.280   .     A
C132   O392    1.280   .     A
C132   O416    1.280   .     A
C133   O417    1.280   .     A
C133   O393    1.280   .     A
C134   O394    1.280   .     A
C134   O423    1.280   .     A
C135   O395    1.280   .     A
C135   O424    1.280   .     A
C136   C182    1.454   .     S
C136   O420    1.280   .     A
C136   O396    1.280   .     A
C137   O422    1.280   .     A
C137   O397    1.280   .     A
C137   C183    1.454   .     S
C138   O409    1.280   .     A
C138   O398    1.280   .     A
C139   O400    1.280   .     A
C139   O411    1.280   .     A
C140   O407    1.280   .     A
C140   O401    1.280   .     A
C141   C1065   1.413   .     A
C141   O430    1.387   .     S
C142   O408    1.280   .     A
C142   O402    1.280   .     A
C143   O414    1.280   .     A
C143   O403    1.280   .     A
C144   O415    1.280   .     A
C144   O404    1.280   .     A
C145   O405    1.280   .     A
C145   O412    1.280   .     A
C146   O413    1.280   .     A
C146   O406    1.280   .     A
C147   C164    1.386   .     A
C147   H185    1.083   .     S
C148   C162    1.386   .     A
C148   H289    1.083   .     S
C149   H300    1.083   .     S
C149   C161    1.386   .     A
C150   C160    1.386   .     A
C150   H311    1.083   .     S
C151   H322    1.083   .     S
C151   C159    1.386   .     A
C152   O431    1.387   .     S
C153   C158    1.386   .     A
C153   H333    1.083   .     S
C154   C157    1.386   .     A
C154   H344    1.083   .     S
C155   C156    1.386   .     A
C155   H355    1.083   .     S
C156   H366    1.083   .     S
C157   H186    1.083   .     S
C158   H197    1.083   .     S
C159   H208    1.083   .     S
C160   H219    1.083   .     S
C161   C184    1.401   .     A
C161   H230    1.083   .     S
C162   H241    1.083   .     S
C162   C183    1.401   .     A
C163   O433    1.387   .     S
C164   H252    1.083   .     S
C164   C182    1.401   .     A
C165   H263    1.083   .     S
C165   C183    1.401   .     A
C165   C181    1.386   .     A
C166   C182    1.401   .     A
C166   C180    1.386   .     A
C166   H274    1.083   .     S
C167   C179    1.386   .     A
C167   H285    1.083   .     S
C168   H290    1.083   .     S
C168   C184    1.401   .     A
C168   C178    1.386   .     A
C169   H291    1.083   .     S
C169   C177    1.386   .     A
C170   C176    1.386   .     A
C170   H292    1.083   .     S
C171   H293    1.083   .     S
C171   C175    1.386   .     A
C172   H294    1.083   .     S
C172   C173    1.386   .     A
C173   H295    1.083   .     S
C174   O434    1.387   .     S
C174   C592    1.413   .     A
C175   H296    1.083   .     S
C176   H297    1.083   .     S
C177   H298    1.083   .     S
C178   H299    1.083   .     S
C179   H301    1.083   .     S
C180   H302    1.083   .     S
C181   H303    1.083   .     S
H304   C26     1.110   1_556 S
H307   C27     1.111   1_556 S
H308   C27     1.111   1_556 S
H309   C28     1.110   1_554 S
H313   C29     1.111   1_554 S
H314   C29     1.111   1_554 S
H315   C30     1.110   1_556 S
H318   C31     1.111   1_556 S
H319   C31     1.111   1_556 S
H320   C32     1.110   1_554 S
H324   C33     1.111   1_554 S
H325   C33     1.111   1_554 S
H326   C34     1.110   1_556 S
H329   C36     1.111   1_556 S
H330   C36     1.111   1_556 S
H331   C37     1.110   1_554 S
H335   C38     1.111   1_554 S
H336   C38     1.111   1_554 S
H337   C39     1.110   1_556 S
H340   C40     1.111   1_556 S
H341   C40     1.111   1_556 S
H342   C41     1.110   1_554 S
H346   C42     1.111   1_554 S
H347   C42     1.111   1_554 S
O377   Zn464   1.946   .     S
O377   Zn461   1.946   .     S
O377   Zn1420  1.946   1_545 S
O377   Zn472   1.946   .     S
O378   C1074   1.281   .     A
O378   Zn463   1.943   .     S
O379   C599    1.281   .     A
O379   Zn466   1.943   .     S
O380   Zn465   1.943   .     S
O381   Zn475   1.943   .     S
O382   Zn474   1.943   .     S
O383   Zn469   1.943   .     S
O384   Zn461   1.943   .     S
O385   Zn471   1.943   .     S
O386   Zn470   1.943   .     S
O387   Zn473   1.943   .     S
O388   Zn467   1.946   .     S
O388   Zn1415  1.946   1_545 S
O388   Zn469   1.946   .     S
O388   Zn473   1.946   .     S
O389   Zn472   1.943   .     S
O390   Zn464   1.935   .     S
O391   Zn463   1.935   .     S
O392   Zn466   1.935   .     S
O393   Zn465   1.935   .     S
O394   Zn468   1.935   .     S
O395   Zn467   1.935   .     S
O396   Zn462   1.935   .     S
O397   Zn476   1.935   .     S
O398   Zn463   1.935   .     S
O399   Zn462   1.946   .     S
O399   Zn942   1.946   1_455 S
O399   Zn470   1.946   .     S
O399   Zn474   1.946   .     S
O400   Zn464   1.935   .     S
O401   Zn476   1.935   .     S
O402   Zn462   1.935   .     S
O403   Zn467   1.935   .     S
O404   Zn468   1.935   .     S
O405   Zn465   1.935   .     S
O406   Zn466   1.935   .     S
O407   Zn947   1.935   .     S
O408   Zn470   1.935   .     S
O409   Zn1425  1.935   .     S
O410   Zn471   1.946   .     S
O410   Zn952   1.946   1_455 S
O410   Zn475   1.946   .     S
O410   Zn465   1.946   .     S
O411   Zn472   1.935   .     S
O412   Zn475   1.935   .     S
O413   Zn950   1.935   .     S
O414   Zn469   1.935   .     S
O415   Zn1413  1.935   .     S
O416   Zn946   1.935   .     S
O417   Zn471   1.935   .     S
O418   Zn461   1.935   .     S
O419   Zn1421  1.935   .     S
O420   Zn474   1.935   .     S
O421   C1073   1.281   .     A
O421   Zn468   1.943   .     S
O422   Zn951   1.935   .     S
O423   Zn1424  1.935   .     S
O424   Zn473   1.935   .     S
O432   Zn467   1.943   .     S
O443   Zn462   1.943   .     S
O454   C600    1.281   .     A
O454   Zn476   1.943   .     S
O460   Zn464   1.943   .     S
Zn461  O1367   1.935   1_545 S
Zn463  O1340   1.946   .     S
Zn466  O875    1.946   .     S
Zn468  O1329   1.946   .     S
Zn469  O1371   1.935   1_545 S
Zn470  O892    1.935   1_455 S
Zn471  O883    1.935   1_455 S
Zn472  O1375   1.935   1_545 S
Zn473  O1361   1.935   1_545 S
Zn474  O889    1.935   1_455 S
Zn475  O898    1.935   1_455 S
Zn476  O886    1.946   .     S
C477   O901    1.387   .     S
C477   C555    1.398   .     A
C477   C588    1.413   .     S
C478   C580    1.398   .     A
C478   O911    1.387   .     S
C478   C593    1.413   .     S
C479   C607    1.454   .     S
C479   C643    1.401   .     A
C479   C636    1.401   .     A
C480   C635    1.401   .     A
C480   C608    1.454   .     S
C480   C646    1.401   .     A
C481   C634    1.401   .     A
C481   C609    1.454   .     S
C481   C645    1.401   .     A
C482   C648    1.401   .     A
C482   C633    1.401   .     A
C482   C610    1.454   .     S
C483   C632    1.401   .     A
C483   C647    1.401   .     A
C483   C611    1.454   .     S
C484   C621    1.454   .     S
C484   C651    1.401   .     A
C484   C631    1.401   .     A
C485   C622    1.454   .     S
C485   C649    1.401   .     A
C485   C630    1.401   .     A
C486   C614    1.454   .     S
C486   C653    1.401   .     A
C486   C629    1.401   .     A
C487   C652    1.401   .     A
C487   C627    1.401   .     A
C487   C615    1.454   .     S
C488   C626    1.401   .     A
C488   C616    1.454   .     S
C488   C655    1.401   .     A
C489   O912    1.387   .     S
C489   C581    1.398   .     A
C489   C1546   1.413   .     S
C490   C625    1.401   .     A
C490   C618    1.454   .     S
C490   C654    1.401   .     A
C491   C624    1.401   .     A
C491   C619    1.454   .     S
C491   C657    1.401   .     A
C492   C620    1.454   .     S
C492   C656    1.401   .     A
C492   C623    1.401   .     A
C493   C604    1.469   .     S
C493   C555    1.413   .     A
C493   C1527   1.413   1_545 S
C494   C566    1.413   .     A
C494   C603    1.469   .     S
C494   C1528   1.413   1_545 S
C495   C602    1.469   .     S
C495   C577    1.413   .     S
C496   C601    1.469   .     S
C496   C578    1.413   .     S
C497   C583    1.413   .     A
C497   C600    1.469   .     S
C498   C599    1.469   .     S
C498   C580    1.413   .     S
C499   C598    1.469   .     S
C499   C1533   1.413   1_545 A
C499   C586    1.413   .     S
C500   C582    1.398   .     A
C500   O913    1.387   .     S
C500   C596    1.413   .     S
C501   C597    1.469   .     S
C501   C1539   1.413   1_545 A
C501   C582    1.413   .     S
C502   O901    1.415   .     S
C502   C503    1.521   .     S
C502   H781    1.114   .     S
C502   H780    1.110   1_554 S
C503   H782    1.110   .     S
C503   H783    1.111   1_554 S
C503   H784    1.111   1_554 S
C504   H786    1.114   .     S
C504   O902    1.415   .     S
C504   C505    1.521   .     S
C504   H785    1.110   1_556 S
C505   H788    1.110   .     S
C505   H789    1.111   1_556 S
C505   H790    1.111   1_556 S
C506   H792    1.114   .     S
C506   C507    1.521   .     S
C506   O903    1.415   .     S
C506   H791    1.110   1_554 S
C507   H793    1.110   .     S
C507   H794    1.111   1_554 S
C507   H795    1.111   1_554 S
C508   C509    1.521   .     S
C508   O904    1.415   .     S
C508   H797    1.114   .     S
C508   H796    1.110   1_556 S
C509   H799    1.110   .     S
C509   H800    1.111   1_556 S
C509   H801    1.111   1_556 S
C510   O905    1.415   .     S
C510   H803    1.114   .     S
C510   C512    1.521   .     S
C510   H802    1.110   1_554 S
C511   C583    1.398   .     A
C511   O914    1.387   .     S
C511   C592    1.413   .     S
C512   H804    1.110   .     S
C512   H805    1.111   1_554 S
C512   H806    1.111   1_554 S
C513   C514    1.521   .     S
C513   O906    1.415   .     S
C513   H808    1.114   .     S
C513   H807    1.110   1_556 S
C514   H810    1.110   .     S
C514   H811    1.111   1_556 S
C514   H812    1.111   1_556 S
C515   H814    1.114   .     S
C515   C516    1.521   .     S
C515   O907    1.415   .     S
C515   H813    1.110   1_554 S
C516   H815    1.110   .     S
C516   H816    1.111   1_554 S
C516   H817    1.111   1_554 S
C517   C518    1.521   .     S
C517   H819    1.114   .     S
C517   O909    1.415   .     S
C517   H818    1.110   1_556 S
C518   H821    1.110   .     S
C518   H822    1.111   1_556 S
C518   H823    1.111   1_556 S
C519   H825    1.114   .     S
C519   C520    1.521   .     S
C519   O910    1.415   .     S
C519   H824    1.110   .     S
C520   H827    1.111   .     S
C520   H826    1.110   .     S
C520   H828    1.111   .     S
C521   H830    1.114   .     S
C521   C523    1.521   .     S
C521   O911    1.415   .     S
C521   H829    1.110   .     S
C522   C117    1.413   1_655 A
C522   O915    1.387   .     S
C522   C585    1.398   .     A
C523   H833    1.111   .     S
C523   H832    1.110   .     S
C523   H834    1.111   .     S
C524   O912    1.415   .     S
C524   H836    1.114   .     S
C524   C525    1.521   .     S
C524   H835    1.110   .     S
C525   H837    1.110   .     S
C525   H839    1.111   .     S
C525   H838    1.111   .     S
C526   O913    1.415   .     S
C526   C527    1.521   .     S
C526   H840    1.110   .     S
C526   H841    1.114   .     S
C527   H845    1.111   .     S
C527   H843    1.110   .     S
C527   H844    1.111   .     S
C528   O914    1.415   .     S
C528   C529    1.521   .     S
C528   H847    1.114   .     S
C528   H846    1.110   .     S
C529   H849    1.111   .     S
C529   H848    1.110   .     S
C529   H850    1.111   .     S
C530   H852    1.114   .     S
C530   C531    1.521   .     S
C530   O915    1.415   .     S
C530   H851    1.110   .     S
C531   H665    1.111   .     S
C531   H664    1.111   .     S
C531   H663    1.110   .     S
C532   H667    1.114   .     S
C532   H666    1.110   .     S
C532   O916    1.415   .     S
C532   C534    1.521   .     S
C533   O916    1.387   .     S
C533   C594    1.413   .     A
C533   C586    1.398   .     A
C534   H668    1.110   .     S
C534   H669    1.111   .     S
C534   H670    1.111   .     S
C535   C536    1.521   .     S
C535   H671    1.110   .     S
C535   H672    1.114   .     S
C535   O917    1.415   .     S
C536   H674    1.110   .     S
C536   H676    1.111   .     S
C536   H675    1.111   .     S
C537   O918    1.413   .     S
C537   H678    1.113   .     S
C537   C538    1.520   .     S
C537   H677    1.111   .     S
C538   H680    1.110   .     S
C538   H681    1.111   .     S
C538   H679    1.109   .     S
C539   H682    1.111   .     S
C539   C540    1.520   .     S
C539   H683    1.113   .     S
C539   O920    1.413   .     S
C540   H686    1.110   .     S
C540   H685    1.109   .     S
C540   H687    1.111   .     S
C541   H689    1.113   .     S
C541   H688    1.111   .     S
C541   O921    1.413   .     S
C541   C542    1.520   .     S
C542   H691    1.110   .     S
C542   H692    1.111   .     S
C542   H690    1.109   .     S
C543   H694    1.113   .     S
C543   C545    1.520   .     S
C543   H693    1.111   .     S
C543   O922    1.413   .     S
C544   O917    1.387   .     S
C544   C1548   1.413   .     A
C544   C587    1.398   .     A
C545   H697    1.110   .     S
C545   H696    1.109   .     S
C545   H698    1.111   .     S
C546   H699    1.111   .     S
C546   H700    1.113   .     S
C546   C547    1.520   .     S
C546   O923    1.413   .     S
C547   H701    1.109   .     S
C547   H702    1.110   .     S
C547   H703    1.111   .     S
C548   H705    1.113   .     S
C548   O924    1.413   .     S
C548   C549    1.520   .     S
C548   H704    1.111   .     S
C549   H707    1.109   .     S
C549   H709    1.111   .     S
C549   H708    1.110   .     S
C550   H710    1.111   .     S
C550   O925    1.413   .     S
C550   H711    1.113   .     S
C550   C551    1.520   .     S
C551   H714    1.111   .     S
C551   H712    1.109   .     S
C551   H713    1.110   .     S
C552   H715    1.111   .     S
C552   H716    1.113   .     S
C552   O926    1.413   .     S
C552   C553    1.520   .     S
C553   H720    1.111   .     S
C553   H719    1.110   .     S
C553   H718    1.109   .     S
C554   H721    1.111   .     S
C554   C556    1.520   .     S
C554   O927    1.413   .     S
C554   H722    1.113   .     S
C555   O918    1.385   .     S
C556   H723    1.109   .     S
C556   H724    1.110   .     S
C556   H725    1.111   .     S
C557   H727    1.113   .     S
C557   H726    1.111   .     S
C557   O928    1.413   .     S
C557   C558    1.520   .     S
C558   H731    1.111   .     S
C558   H729    1.109   .     S
C558   H730    1.110   .     S
C559   H732    1.111   .     S
C559   C560    1.520   .     S
C559   O929    1.413   .     S
C559   H733    1.113   .     S
C560   H735    1.110   .     S
C560   H734    1.109   .     S
C560   H736    1.111   .     S
C561   H738    1.113   .     S
C561   O931    1.413   .     S
C561   C562    1.520   .     S
C561   H737    1.111   .     S
C562   H740    1.109   .     S
C562   H742    1.111   .     S
C562   H741    1.110   .     S
C563   H744    1.113   .     S
C563   H743    1.111   .     S
C563   C564    1.520   .     S
C563   O932    1.413   .     S
C564   H745    1.109   .     S
C564   H747    1.111   .     S
C564   H746    1.110   .     S
C565   H749    1.113   .     S
C565   C567    1.520   .     S
C565   O933    1.413   .     S
C565   H748    1.111   .     S
C566   O920    1.385   .     S
C566   C573    1.398   .     A
C567   H752    1.110   .     S
C567   H753    1.111   .     S
C567   H751    1.109   .     S
C568   H754    1.111   .     S
C568   C569    1.520   .     S
C568   O934    1.413   .     S
C568   H755    1.113   .     S
C569   H758    1.111   .     S
C569   H757    1.110   .     S
C569   H756    1.109   .     S
C570   C571    1.520   .     S
C570   O935    1.413   .     S
C570   H759    1.111   .     S
C570   H760    1.113   .     S
C571   H764    1.111   .     S
C571   H762    1.109   .     S
C571   H763    1.110   .     S
C572   O921    1.385   .     S
C572   C584    1.398   .     A
C572   C19     1.413   1_655 A
C573   O902    1.387   .     S
C573   C589    1.413   .     S
C574   C20     1.413   1_655 A
C574   O922    1.385   .     S
C574   C595    1.398   .     A
C575   O923    1.385   .     S
C575   C606    1.398   .     A
C575   C1445   1.413   .     S
C576   C617    1.398   .     A
C576   O924    1.385   .     S
C576   C1446   1.413   .     S
C577   C628    1.398   .     A
C577   O925    1.385   .     S
C578   C639    1.398   .     A
C578   O926    1.385   .     S
C579   C650    1.398   .     A
C579   O927    1.385   .     S
C579   C21     1.413   1_655 S
C580   O928    1.385   .     S
C581   O929    1.385   .     S
C581   C1451   1.413   .     A
C582   O931    1.385   .     S
C583   O932    1.385   .     S
C584   C114    1.413   1_655 A
C584   O903    1.387   .     S
C585   O933    1.385   .     S
C585   C22     1.413   1_655 A
C586   O934    1.385   .     S
C587   C1453   1.413   .     A
C587   O935    1.385   .     S
C588   C1558   1.413   1_545 A
C588   C589    1.468   1_554 S
C589   C1569   1.413   1_545 A
C589   C588    1.468   1_556 S
C590   C591    1.468   1_554 S
C590   C628    1.413   .     S
C591   C590    1.468   1_556 S
C591   C639    1.413   .     S
C592   C593    1.468   .     S
C594   C1441   1.413   1_545 S
C594   C596    1.468   .     S
C595   O904    1.387   .     S
C595   C115    1.413   1_655 A
C596   C1496   1.413   1_545 A
C597   O1849   1.281   1_545 A
C597   O936    1.281   .     S
C598   O1806   1.281   1_545 A
C598   O908    1.281   .     S
C599   O919    1.281   .     S
C600   O856    1.281   .     S
C601   O857    1.281   .     S
C601   O861    1.281   .     S
C602   O858    1.281   .     S
C602   O862    1.281   .     S
C603   O863    1.281   .     A
C603   O859    1.281   .     A
C604   O865    1.281   .     A
C604   O860    1.281   .     A
C605   O866    1.280   .     A
C605   O894    1.280   .     A
C605   C660    1.454   .     S
C606   C1540   1.413   .     A
C606   O905    1.387   .     S
C607   O895    1.280   .     A
C607   O867    1.280   .     A
C608   O868    1.280   .     A
C608   O892    1.280   .     A
C609   O893    1.280   .     A
C609   O869    1.280   .     A
C610   O870    1.280   .     A
C610   O899    1.280   .     A
C611   O871    1.280   .     A
C611   O900    1.280   .     A
C612   C658    1.454   .     S
C612   O896    1.280   .     A
C612   O872    1.280   .     A
C613   O898    1.280   .     A
C613   O873    1.280   .     A
C613   C659    1.454   .     S
C614   O885    1.280   .     A
C614   O874    1.280   .     A
C615   O876    1.280   .     A
C615   O887    1.280   .     A
C616   O883    1.280   .     A
C616   O877    1.280   .     A
C617   C1541   1.413   .     A
C617   O906    1.387   .     S
C618   O884    1.280   .     A
C618   O878    1.280   .     A
C619   O890    1.280   .     A
C619   O879    1.280   .     A
C620   O891    1.280   .     A
C620   O880    1.280   .     A
C621   O881    1.280   .     A
C621   O888    1.280   .     A
C622   O889    1.280   .     A
C622   O882    1.280   .     A
C623   C640    1.386   .     A
C623   H661    1.083   .     S
C624   C638    1.386   .     A
C624   H765    1.083   .     S
C625   H776    1.083   .     S
C625   C637    1.386   .     A
C626   C636    1.386   .     A
C626   H787    1.083   .     S
C627   H798    1.083   .     S
C627   C635    1.386   .     A
C628   O907    1.387   .     S
C629   C634    1.386   .     A
C629   H809    1.083   .     S
C630   C633    1.386   .     A
C630   H820    1.083   .     S
C631   C632    1.386   .     A
C631   H831    1.083   .     S
C632   H842    1.083   .     S
C633   H662    1.083   .     S
C634   H673    1.083   .     S
C635   H684    1.083   .     S
C636   H695    1.083   .     S
C637   C660    1.401   .     A
C637   H706    1.083   .     S
C638   H717    1.083   .     S
C638   C659    1.401   .     A
C639   O909    1.387   .     S
C640   H728    1.083   .     S
C640   C658    1.401   .     A
C641   H739    1.083   .     S
C641   C659    1.401   .     A
C641   C657    1.386   .     A
C642   C658    1.401   .     A
C642   C656    1.386   .     A
C642   H750    1.083   .     S
C643   C655    1.386   .     A
C643   H761    1.083   .     S
C644   H766    1.083   .     S
C644   C660    1.401   .     A
C644   C654    1.386   .     A
C645   H767    1.083   .     S
C645   C653    1.386   .     A
C646   C652    1.386   .     A
C646   H768    1.083   .     S
C647   H769    1.083   .     S
C647   C651    1.386   .     A
C648   H770    1.083   .     S
C648   C649    1.386   .     A
C649   H771    1.083   .     S
C650   O910    1.387   .     S
C650   C116    1.413   1_655 A
C651   H772    1.083   .     S
C652   H773    1.083   .     S
C653   H774    1.083   .     S
C654   H775    1.083   .     S
C655   H777    1.083   .     S
C656   H778    1.083   .     S
C657   H779    1.083   .     S
H780   C502    1.110   1_556 S
H783   C503    1.111   1_556 S
H784   C503    1.111   1_556 S
H785   C504    1.110   1_554 S
H789   C505    1.111   1_554 S
H790   C505    1.111   1_554 S
H791   C506    1.110   1_556 S
H794   C507    1.111   1_556 S
H795   C507    1.111   1_556 S
H796   C508    1.110   1_554 S
H800   C509    1.111   1_554 S
H801   C509    1.111   1_554 S
H802   C510    1.110   1_556 S
H805   C512    1.111   1_556 S
H806   C512    1.111   1_556 S
H807   C513    1.110   1_554 S
H811   C514    1.111   1_554 S
H812   C514    1.111   1_554 S
H813   C515    1.110   1_556 S
H816   C516    1.111   1_556 S
H817   C516    1.111   1_556 S
H818   C517    1.110   1_554 S
H822   C518    1.111   1_554 S
H823   C518    1.111   1_554 S
O853   Zn940   1.946   .     S
O853   Zn937   1.946   .     S
O853   Zn1896  1.946   1_545 S
O853   Zn948   1.946   .     S
O854   C1550   1.281   .     A
O854   Zn939   1.943   .     S
O855   C123    1.281   1_655 A
O855   Zn942   1.943   .     S
O856   Zn941   1.943   .     S
O857   Zn951   1.943   .     S
O858   Zn950   1.943   .     S
O859   Zn945   1.943   .     S
O860   Zn937   1.943   .     S
O861   Zn947   1.943   .     S
O862   Zn946   1.943   .     S
O863   Zn949   1.943   .     S
O864   Zn943   1.946   .     S
O864   Zn1891  1.946   1_545 S
O864   Zn945   1.946   .     S
O864   Zn949   1.946   .     S
O865   Zn948   1.943   .     S
O866   Zn940   1.935   .     S
O867   Zn939   1.935   .     S
O868   Zn942   1.935   .     S
O869   Zn941   1.935   .     S
O870   Zn944   1.935   .     S
O871   Zn943   1.935   .     S
O872   Zn938   1.935   .     S
O873   Zn952   1.935   .     S
O874   Zn939   1.935   .     S
O875   Zn938   1.946   .     S
O875   Zn946   1.946   .     S
O875   Zn950   1.946   .     S
O876   Zn940   1.935   .     S
O877   Zn952   1.935   .     S
O878   Zn938   1.935   .     S
O879   Zn943   1.935   .     S
O880   Zn944   1.935   .     S
O881   Zn941   1.935   .     S
O882   Zn942   1.935   .     S
O883   Zn471   1.935   1_655 S
O884   Zn946   1.935   .     S
O885   Zn1901  1.935   .     S
O886   Zn947   1.946   .     S
O886   Zn951   1.946   .     S
O886   Zn941   1.946   .     S
O887   Zn948   1.935   .     S
O888   Zn951   1.935   .     S
O889   Zn474   1.935   1_655 S
O890   Zn945   1.935   .     S
O891   Zn1889  1.935   .     S
O892   Zn470   1.935   1_655 S
O893   Zn947   1.935   .     S
O894   Zn937   1.935   .     S
O895   Zn1897  1.935   .     S
O896   Zn950   1.935   .     S
O897   C1549   1.281   .     A
O897   Zn944   1.943   .     S
O898   Zn475   1.935   1_655 S
O899   Zn1900  1.935   .     S
O900   Zn949   1.935   .     S
O908   Zn943   1.943   .     S
O919   Zn938   1.943   .     S
O930   C124    1.281   1_655 A
O930   Zn952   1.943   .     S
O936   Zn940   1.943   .     S
Zn937  O1843   1.935   1_545 S
Zn939  O1816   1.946   .     S
Zn942  O399    1.946   1_655 S
Zn944  O1805   1.946   .     S
Zn945  O1847   1.935   1_545 S
Zn948  O1851   1.935   1_545 S
Zn949  O1837   1.935   1_545 S
Zn952  O410    1.946   1_655 S
C953   O1377   1.387   .     S
C953   C1031   1.398   .     A
C953   C1064   1.413   .     S
C954   C1056   1.398   .     A
C954   O1387   1.387   .     S
C954   C1069   1.413   .     S
C955   C1083   1.454   .     S
C955   C1119   1.401   .     A
C955   C1112   1.401   .     A
C956   C1111   1.401   .     A
C956   C1084   1.454   .     S
C956   C1122   1.401   .     A
C957   C1110   1.401   .     A
C957   C1085   1.454   .     S
C957   C1121   1.401   .     A
C958   C1124   1.401   .     A
C958   C1109   1.401   .     A
C958   C1086   1.454   .     S
C959   C1108   1.401   .     A
C959   C1123   1.401   .     A
C959   C1087   1.454   .     S
C960   C1097   1.454   .     S
C960   C1127   1.401   .     A
C960   C1107   1.401   .     A
C961   C1098   1.454   .     S
C961   C1125   1.401   .     A
C961   C1106   1.401   .     A
C962   C1090   1.454   .     S
C962   C1129   1.401   .     A
C962   C1105   1.401   .     A
C963   C1128   1.401   .     A
C963   C1103   1.401   .     A
C963   C1091   1.454   .     S
C964   C1102   1.401   .     A
C964   C1092   1.454   .     S
C964   C1131   1.401   .     A
C965   O1388   1.387   .     S
C965   C1057   1.398   .     A
C965   C118    1.413   1_565 S
C966   C1101   1.401   .     A
C966   C1094   1.454   .     S
C966   C1130   1.401   .     A
C967   C1100   1.401   .     A
C967   C1095   1.454   .     S
C967   C1133   1.401   .     A
C968   C1096   1.454   .     S
C968   C1132   1.401   .     A
C968   C1099   1.401   .     A
C969   C1080   1.469   .     S
C969   C1031   1.413   .     A
C970   C1042   1.413   .     A
C970   C1079   1.469   .     S
C971   C1078   1.469   .     S
C971   C1524   1.413   1_455 A
C971   C1053   1.413   .     S
C972   C1077   1.469   .     S
C972   C1526   1.413   1_455 A
C972   C1054   1.413   .     S
C973   C1059   1.413   .     A
C973   C1531   1.413   1_455 S
C973   C1076   1.469   .     S
C974   C1537   1.413   1_455 A
C974   C1075   1.469   .     S
C974   C1056   1.413   .     S
C975   C1074   1.469   .     S
C975   C1062   1.413   .     S
C976   C1058   1.398   .     A
C976   O1389   1.387   .     S
C976   C1072   1.413   .     S
C977   C1073   1.469   .     S
C977   C1058   1.413   .     S
C978   O1377   1.415   .     S
C978   C979    1.521   .     S
C978   H1257   1.114   .     S
C978   H1256   1.110   1_554 S
C979   H1258   1.110   .     S
C979   H1259   1.111   1_554 S
C979   H1260   1.111   1_554 S
C980   H1262   1.114   .     S
C980   O1378   1.415   .     S
C980   C981    1.521   .     S
C980   H1261   1.110   1_556 S
C981   H1264   1.110   .     S
C981   H1265   1.111   1_556 S
C981   H1266   1.111   1_556 S
C982   H1268   1.114   .     S
C982   C983    1.521   .     S
C982   O1379   1.415   .     S
C982   H1267   1.110   1_554 S
C983   H1269   1.110   .     S
C983   H1270   1.111   1_554 S
C983   H1271   1.111   1_554 S
C984   C985    1.521   .     S
C984   O1380   1.415   .     S
C984   H1273   1.114   .     S
C984   H1272   1.110   1_556 S
C985   H1275   1.110   .     S
C985   H1276   1.111   1_556 S
C985   H1277   1.111   1_556 S
C986   O1381   1.415   .     S
C986   H1279   1.114   .     S
C986   C988    1.521   .     S
C986   H1278   1.110   1_554 S
C987   C1059   1.398   .     A
C987   O1390   1.387   .     S
C987   C1068   1.413   .     S
C988   H1280   1.110   .     S
C988   H1281   1.111   1_554 S
C988   H1282   1.111   1_554 S
C989   C990    1.521   .     S
C989   O1382   1.415   .     S
C989   H1284   1.114   .     S
C989   H1283   1.110   1_556 S
C990   H1286   1.110   .     S
C990   H1287   1.111   1_556 S
C990   H1288   1.111   1_556 S
C991   H1290   1.114   .     S
C991   C992    1.521   .     S
C991   O1383   1.415   .     S
C991   H1289   1.110   1_554 S
C992   H1291   1.110   .     S
C992   H1292   1.111   1_554 S
C992   H1293   1.111   1_554 S
C993   C994    1.521   .     S
C993   H1295   1.114   .     S
C993   O1385   1.415   .     S
C993   H1294   1.110   1_556 S
C994   H1297   1.110   .     S
C994   H1298   1.111   1_556 S
C994   H1299   1.111   1_556 S
C995   H1301   1.114   .     S
C995   C996    1.521   .     S
C995   O1386   1.415   .     S
C995   H1300   1.110   .     S
C996   H1303   1.111   .     S
C996   H1302   1.110   .     S
C996   H1304   1.111   .     S
C997   H1306   1.114   .     S
C997   C999    1.521   .     S
C997   O1387   1.415   .     S
C997   H1305   1.110   .     S
C998   C1545   1.413   .     A
C998   O1391   1.387   .     S
C998   C1061   1.398   .     A
C999   H1309   1.111   .     S
C999   H1308   1.110   .     S
C999   H1310   1.111   .     S
C1000  O1388   1.415   .     S
C1000  H1312   1.114   .     S
C1000  C1001   1.521   .     S
C1000  H1311   1.110   .     S
C1001  H1313   1.110   .     S
C1001  H1315   1.111   .     S
C1001  H1314   1.111   .     S
C1002  O1389   1.415   .     S
C1002  C1003   1.521   .     S
C1002  H1316   1.110   .     S
C1002  H1317   1.114   .     S
C1003  H1321   1.111   .     S
C1003  H1319   1.110   .     S
C1003  H1320   1.111   .     S
C1004  O1390   1.415   .     S
C1004  C1005   1.521   .     S
C1004  H1323   1.114   .     S
C1004  H1322   1.110   .     S
C1005  H1325   1.111   .     S
C1005  H1324   1.110   .     S
C1005  H1326   1.111   .     S
C1006  H1328   1.114   .     S
C1006  C1007   1.521   .     S
C1006  O1391   1.415   .     S
C1006  H1327   1.110   .     S
C1007  H1141   1.111   .     S
C1007  H1140   1.111   .     S
C1007  H1139   1.110   .     S
C1008  H1143   1.114   .     S
C1008  H1142   1.110   .     S
C1008  O1392   1.415   .     S
C1008  C1010   1.521   .     S
C1009  O1392   1.387   .     S
C1009  C1070   1.413   .     A
C1009  C1062   1.398   .     A
C1010  H1144   1.110   .     S
C1010  H1145   1.111   .     S
C1010  H1146   1.111   .     S
C1011  C1012   1.521   .     S
C1011  H1147   1.110   .     S
C1011  H1148   1.114   .     S
C1011  O1393   1.415   .     S
C1012  H1150   1.110   .     S
C1012  H1152   1.111   .     S
C1012  H1151   1.111   .     S
C1013  O1394   1.413   .     S
C1013  H1154   1.113   .     S
C1013  C1014   1.520   .     S
C1013  H1153   1.111   .     S
C1014  H1156   1.110   .     S
C1014  H1157   1.111   .     S
C1014  H1155   1.109   .     S
C1015  H1158   1.111   .     S
C1015  C1016   1.520   .     S
C1015  H1159   1.113   .     S
C1015  O1396   1.413   .     S
C1016  H1162   1.110   .     S
C1016  H1161   1.109   .     S
C1016  H1163   1.111   .     S
C1017  H1165   1.113   .     S
C1017  H1164   1.111   .     S
C1017  O1397   1.413   .     S
C1017  C1018   1.520   .     S
C1018  H1167   1.110   .     S
C1018  H1168   1.111   .     S
C1018  H1166   1.109   .     S
C1019  H1170   1.113   .     S
C1019  C1021   1.520   .     S
C1019  H1169   1.111   .     S
C1019  O1398   1.413   .     S
C1020  O1393   1.387   .     S
C1020  C120    1.413   1_565 A
C1020  C1063   1.398   .     A
C1021  H1173   1.110   .     S
C1021  H1172   1.109   .     S
C1021  H1174   1.111   .     S
C1022  H1175   1.111   .     S
C1022  H1176   1.113   .     S
C1022  C1023   1.520   .     S
C1022  O1399   1.413   .     S
C1023  H1177   1.109   .     S
C1023  H1178   1.110   .     S
C1023  H1179   1.111   .     S
C1024  H1181   1.113   .     S
C1024  O1400   1.413   .     S
C1024  C1025   1.520   .     S
C1024  H1180   1.111   .     S
C1025  H1183   1.109   .     S
C1025  H1185   1.111   .     S
C1025  H1184   1.110   .     S
C1026  H1186   1.111   .     S
C1026  O1401   1.413   .     S
C1026  H1187   1.113   .     S
C1026  C1027   1.520   .     S
C1027  H1190   1.111   .     S
C1027  H1188   1.109   .     S
C1027  H1189   1.110   .     S
C1028  H1191   1.111   .     S
C1028  H1192   1.113   .     S
C1028  O1402   1.413   .     S
C1028  C1029   1.520   .     S
C1029  H1196   1.111   .     S
C1029  H1195   1.110   .     S
C1029  H1194   1.109   .     S
C1030  H1197   1.111   .     S
C1030  C1032   1.520   .     S
C1030  O1403   1.413   .     S
C1030  H1198   1.113   .     S
C1031  O1394   1.385   .     S
C1032  H1199   1.109   .     S
C1032  H1200   1.110   .     S
C1032  H1201   1.111   .     S
C1033  H1203   1.113   .     S
C1033  H1202   1.111   .     S
C1033  O1404   1.413   .     S
C1033  C1034   1.520   .     S
C1034  H1207   1.111   .     S
C1034  H1205   1.109   .     S
C1034  H1206   1.110   .     S
C1035  H1208   1.111   .     S
C1035  C1036   1.520   .     S
C1035  O1405   1.413   .     S
C1035  H1209   1.113   .     S
C1036  H1211   1.110   .     S
C1036  H1210   1.109   .     S
C1036  H1212   1.111   .     S
C1037  H1214   1.113   .     S
C1037  O1407   1.413   .     S
C1037  C1038   1.520   .     S
C1037  H1213   1.111   .     S
C1038  H1216   1.109   .     S
C1038  H1218   1.111   .     S
C1038  H1217   1.110   .     S
C1039  H1220   1.113   .     S
C1039  H1219   1.111   .     S
C1039  C1040   1.520   .     S
C1039  O1408   1.413   .     S
C1040  H1221   1.109   .     S
C1040  H1223   1.111   .     S
C1040  H1222   1.110   .     S
C1041  H1225   1.113   .     S
C1041  C1043   1.520   .     S
C1041  O1409   1.413   .     S
C1041  H1224   1.111   .     S
C1042  O1396   1.385   .     S
C1042  C1049   1.398   .     A
C1043  H1228   1.110   .     S
C1043  H1229   1.111   .     S
C1043  H1227   1.109   .     S
C1044  H1230   1.111   .     S
C1044  C1045   1.520   .     S
C1044  O1410   1.413   .     S
C1044  H1231   1.113   .     S
C1045  H1234   1.111   .     S
C1045  H1233   1.110   .     S
C1045  H1232   1.109   .     S
C1046  C1047   1.520   .     S
C1046  O1411   1.413   .     S
C1046  H1235   1.111   .     S
C1046  H1236   1.113   .     S
C1047  H1240   1.111   .     S
C1047  H1238   1.109   .     S
C1047  H1239   1.110   .     S
C1048  O1397   1.385   .     S
C1048  C1060   1.398   .     A
C1048  C1447   1.413   .     A
C1049  O1378   1.387   .     S
C1049  C1065   1.413   .     S
C1050  C1448   1.413   .     A
C1050  O1398   1.385   .     S
C1050  C1071   1.398   .     A
C1051  O1399   1.385   .     S
C1051  C1082   1.398   .     A
C1051  C17     1.413   1_565 S
C1052  C1093   1.398   .     A
C1052  O1400   1.385   .     S
C1052  C18     1.413   1_565 S
C1053  C1104   1.398   .     A
C1053  O1401   1.385   .     S
C1054  C1115   1.398   .     A
C1054  O1402   1.385   .     S
C1055  C1126   1.398   .     A
C1055  O1403   1.385   .     S
C1055  C1449   1.413   .     S
C1056  O1404   1.385   .     S
C1057  O1405   1.385   .     S
C1057  C23     1.413   1_565 A
C1058  O1407   1.385   .     S
C1059  O1408   1.385   .     S
C1060  C1542   1.413   .     A
C1060  O1379   1.387   .     S
C1061  O1409   1.385   .     S
C1061  C1450   1.413   .     A
C1062  O1410   1.385   .     S
C1063  C25     1.413   1_565 A
C1063  O1411   1.385   .     S
C1064  C1065   1.468   1_554 S
C1065  C1064   1.468   1_556 S
C1066  C1536   1.413   1_455 A
C1066  C1067   1.468   1_554 S
C1066  C1104   1.413   .     S
C1067  C1547   1.413   1_455 A
C1067  C1066   1.468   1_556 S
C1067  C1115   1.413   .     S
C1068  C1602   1.413   1_455 A
C1068  C1069   1.468   .     S
C1069  C1474   1.413   1_455 A
C1070  C1072   1.468   .     S
C1071  O1380   1.387   .     S
C1071  C1543   1.413   .     A
C1073  O1412   1.281   .     S
C1074  O1384   1.281   .     S
C1075  O1807   1.281   1_455 A
C1075  O1395   1.281   .     S
C1076  O1882   1.281   1_455 A
C1076  O1332   1.281   .     S
C1077  O1333   1.281   .     S
C1077  O1337   1.281   .     S
C1078  O1334   1.281   .     S
C1078  O1338   1.281   .     S
C1079  O1339   1.281   .     A
C1079  O1335   1.281   .     A
C1080  O1341   1.281   .     A
C1080  O1336   1.281   .     A
C1081  O1342   1.280   .     A
C1081  O1370   1.280   .     A
C1081  C1136   1.454   .     S
C1082  C112    1.413   1_565 A
C1082  O1381   1.387   .     S
C1083  O1371   1.280   .     A
C1083  O1343   1.280   .     A
C1084  O1344   1.280   .     A
C1084  O1368   1.280   .     A
C1085  O1369   1.280   .     A
C1085  O1345   1.280   .     A
C1086  O1346   1.280   .     A
C1086  O1375   1.280   .     A
C1087  O1347   1.280   .     A
C1087  O1376   1.280   .     A
C1088  C1134   1.454   .     S
C1088  O1372   1.280   .     A
C1088  O1348   1.280   .     A
C1089  O1374   1.280   .     A
C1089  O1349   1.280   .     A
C1089  C1135   1.454   .     S
C1090  O1361   1.280   .     A
C1090  O1350   1.280   .     A
C1091  O1352   1.280   .     A
C1091  O1363   1.280   .     A
C1092  O1359   1.280   .     A
C1092  O1353   1.280   .     A
C1093  C113    1.413   1_565 A
C1093  O1382   1.387   .     S
C1094  O1360   1.280   .     A
C1094  O1354   1.280   .     A
C1095  O1366   1.280   .     A
C1095  O1355   1.280   .     A
C1096  O1367   1.280   .     A
C1096  O1356   1.280   .     A
C1097  O1357   1.280   .     A
C1097  O1364   1.280   .     A
C1098  O1365   1.280   .     A
C1098  O1358   1.280   .     A
C1099  C1116   1.386   .     A
C1099  H1137   1.083   .     S
C1100  C1114   1.386   .     A
C1100  H1241   1.083   .     S
C1101  H1252   1.083   .     S
C1101  C1113   1.386   .     A
C1102  C1112   1.386   .     A
C1102  H1263   1.083   .     S
C1103  H1274   1.083   .     S
C1103  C1111   1.386   .     A
C1104  O1383   1.387   .     S
C1105  C1110   1.386   .     A
C1105  H1285   1.083   .     S
C1106  C1109   1.386   .     A
C1106  H1296   1.083   .     S
C1107  C1108   1.386   .     A
C1107  H1307   1.083   .     S
C1108  H1318   1.083   .     S
C1109  H1138   1.083   .     S
C1110  H1149   1.083   .     S
C1111  H1160   1.083   .     S
C1112  H1171   1.083   .     S
C1113  C1136   1.401   .     A
C1113  H1182   1.083   .     S
C1114  H1193   1.083   .     S
C1114  C1135   1.401   .     A
C1115  O1385   1.387   .     S
C1116  H1204   1.083   .     S
C1116  C1134   1.401   .     A
C1117  H1215   1.083   .     S
C1117  C1135   1.401   .     A
C1117  C1133   1.386   .     A
C1118  C1134   1.401   .     A
C1118  C1132   1.386   .     A
C1118  H1226   1.083   .     S
C1119  C1131   1.386   .     A
C1119  H1237   1.083   .     S
C1120  H1242   1.083   .     S
C1120  C1136   1.401   .     A
C1120  C1130   1.386   .     A
C1121  H1243   1.083   .     S
C1121  C1129   1.386   .     A
C1122  C1128   1.386   .     A
C1122  H1244   1.083   .     S
C1123  H1245   1.083   .     S
C1123  C1127   1.386   .     A
C1124  H1246   1.083   .     S
C1124  C1125   1.386   .     A
C1125  H1247   1.083   .     S
C1126  O1386   1.387   .     S
C1126  C1544   1.413   .     A
C1127  H1248   1.083   .     S
C1128  H1249   1.083   .     S
C1129  H1250   1.083   .     S
C1130  H1251   1.083   .     S
C1131  H1253   1.083   .     S
C1132  H1254   1.083   .     S
C1133  H1255   1.083   .     S
H1256  C978    1.110   1_556 S
H1259  C979    1.111   1_556 S
H1260  C979    1.111   1_556 S
H1261  C980    1.110   1_554 S
H1265  C981    1.111   1_554 S
H1266  C981    1.111   1_554 S
H1267  C982    1.110   1_556 S
H1270  C983    1.111   1_556 S
H1271  C983    1.111   1_556 S
H1272  C984    1.110   1_554 S
H1276  C985    1.111   1_554 S
H1277  C985    1.111   1_554 S
H1278  C986    1.110   1_556 S
H1281  C988    1.111   1_556 S
H1282  C988    1.111   1_556 S
H1283  C989    1.110   1_554 S
H1287  C990    1.111   1_554 S
H1288  C990    1.111   1_554 S
H1289  C991    1.110   1_556 S
H1292  C992    1.111   1_556 S
H1293  C992    1.111   1_556 S
H1294  C993    1.110   1_554 S
H1298  C994    1.111   1_554 S
H1299  C994    1.111   1_554 S
O1329  Zn1416  1.946   .     S
O1329  Zn1413  1.946   .     S
O1329  Zn1424  1.946   .     S
O1330  C122    1.281   1_565 A
O1330  Zn1415  1.943   .     S
O1331  C1551   1.281   .     A
O1331  Zn1418  1.943   .     S
O1332  Zn1417  1.943   .     S
O1333  Zn1427  1.943   .     S
O1334  Zn1426  1.943   .     S
O1335  Zn1421  1.943   .     S
O1336  Zn1413  1.943   .     S
O1337  Zn1423  1.943   .     S
O1338  Zn1422  1.943   .     S
O1339  Zn1425  1.943   .     S
O1340  Zn1419  1.946   .     S
O1340  Zn1421  1.946   .     S
O1340  Zn1425  1.946   .     S
O1341  Zn1424  1.943   .     S
O1342  Zn1416  1.935   .     S
O1343  Zn1415  1.935   .     S
O1344  Zn1418  1.935   .     S
O1345  Zn1417  1.935   .     S
O1346  Zn1420  1.935   .     S
O1347  Zn1419  1.935   .     S
O1348  Zn1414  1.935   .     S
O1349  Zn1428  1.935   .     S
O1350  Zn1415  1.935   .     S
O1351  Zn1414  1.946   .     S
O1351  Zn1894  1.946   1_455 S
O1351  Zn1422  1.946   .     S
O1351  Zn1426  1.946   .     S
O1352  Zn1416  1.935   .     S
O1353  Zn1428  1.935   .     S
O1354  Zn1414  1.935   .     S
O1355  Zn1419  1.935   .     S
O1356  Zn1420  1.935   .     S
O1357  Zn1417  1.935   .     S
O1358  Zn1418  1.935   .     S
O1359  Zn1899  1.935   .     S
O1360  Zn1422  1.935   .     S
O1361  Zn473   1.935   1_565 S
O1362  Zn1423  1.946   .     S
O1362  Zn1904  1.946   1_455 S
O1362  Zn1427  1.946   .     S
O1362  Zn1417  1.946   .     S
O1363  Zn1424  1.935   .     S
O1364  Zn1427  1.935   .     S
O1365  Zn1902  1.935   .     S
O1366  Zn1421  1.935   .     S
O1367  Zn461   1.935   1_565 S
O1368  Zn1898  1.935   .     S
O1369  Zn1423  1.935   .     S
O1370  Zn1413  1.935   .     S
O1371  Zn469   1.935   1_565 S
O1372  Zn1426  1.935   .     S
O1373  C121    1.281   1_565 A
O1373  Zn1420  1.943   .     S
O1374  Zn1903  1.935   .     S
O1375  Zn472   1.935   1_565 S
O1376  Zn1425  1.935   .     S
O1384  Zn1419  1.943   .     S
O1395  Zn1414  1.943   .     S
O1406  C1552   1.281   .     A
O1406  Zn1428  1.943   .     S
O1412  Zn1416  1.943   .     S
Zn1415 O388    1.946   1_565 S
Zn1418 O1827   1.946   .     S
Zn1420 O377    1.946   1_565 S
Zn1422 O1844   1.935   1_455 S
Zn1423 O1835   1.935   1_455 S
Zn1426 O1841   1.935   1_455 S
Zn1427 O1850   1.935   1_455 S
Zn1428 O1838   1.946   .     S
C1429  O1853   1.387   .     S
C1429  C1507   1.398   .     A
C1429  C1540   1.413   .     S
C1430  C1532   1.398   .     A
C1430  O1863   1.387   .     S
C1430  C1545   1.413   .     S
C1431  C1559   1.454   .     S
C1431  C1595   1.401   .     A
C1431  C1588   1.401   .     A
C1432  C1587   1.401   .     A
C1432  C1560   1.454   .     S
C1432  C1598   1.401   .     A
C1433  C1586   1.401   .     A
C1433  C1561   1.454   .     S
C1433  C1597   1.401   .     A
C1434  C1600   1.401   .     A
C1434  C1585   1.401   .     A
C1434  C1562   1.454   .     S
C1435  C1584   1.401   .     A
C1435  C1599   1.401   .     A
C1435  C1563   1.454   .     S
C1436  C1573   1.454   .     S
C1436  C1603   1.401   .     A
C1436  C1583   1.401   .     A
C1437  C1574   1.454   .     S
C1437  C1601   1.401   .     A
C1437  C1582   1.401   .     A
C1438  C1566   1.454   .     S
C1438  C1605   1.401   .     A
C1438  C1581   1.401   .     A
C1439  C1604   1.401   .     A
C1439  C1579   1.401   .     A
C1439  C1567   1.454   .     S
C1440  C1578   1.401   .     A
C1440  C1568   1.454   .     S
C1440  C1607   1.401   .     A
C1441  O1864   1.387   .     S
C1441  C1533   1.398   .     A
C1441  C594    1.413   1_565 S
C1442  C1577   1.401   .     A
C1442  C1570   1.454   .     S
C1442  C1606   1.401   .     A
C1443  C1576   1.401   .     A
C1443  C1571   1.454   .     S
C1443  C1609   1.401   .     A
C1444  C1572   1.454   .     S
C1444  C1608   1.401   .     A
C1444  C1575   1.401   .     A
C1445  C1556   1.469   .     S
C1445  C1507   1.413   .     A
C1446  C1518   1.413   .     A
C1446  C1555   1.469   .     S
C1447  C1554   1.469   .     S
C1447  C1529   1.413   .     S
C1448  C1553   1.469   .     S
C1448  C1530   1.413   .     S
C1449  C1535   1.413   .     A
C1449  C1552   1.469   .     S
C1450  C1551   1.469   .     S
C1450  C1532   1.413   .     S
C1451  C1550   1.469   .     S
C1451  C1538   1.413   .     S
C1452  C1534   1.398   .     A
C1452  O1865   1.387   .     S
C1452  C1548   1.413   .     S
C1453  C1549   1.469   .     S
C1453  C1534   1.413   .     S
C1454  O1853   1.415   .     S
C1454  C1455   1.521   .     S
C1454  H1733   1.114   .     S
C1454  H1732   1.110   1_554 S
C1455  H1734   1.110   .     S
C1455  H1735   1.111   1_554 S
C1455  H1736   1.111   1_554 S
C1456  H1738   1.114   .     S
C1456  O1854   1.415   .     S
C1456  C1457   1.521   .     S
C1456  H1737   1.110   1_556 S
C1457  H1740   1.110   .     S
C1457  H1741   1.111   1_556 S
C1457  H1742   1.111   1_556 S
C1458  H1744   1.114   .     S
C1458  C1459   1.521   .     S
C1458  O1855   1.415   .     S
C1458  H1743   1.110   1_554 S
C1459  H1745   1.110   .     S
C1459  H1746   1.111   1_554 S
C1459  H1747   1.111   1_554 S
C1460  C1461   1.521   .     S
C1460  O1856   1.415   .     S
C1460  H1749   1.114   .     S
C1460  H1748   1.110   1_556 S
C1461  H1751   1.110   .     S
C1461  H1752   1.111   1_556 S
C1461  H1753   1.111   1_556 S
C1462  O1857   1.415   .     S
C1462  H1755   1.114   .     S
C1462  C1464   1.521   .     S
C1462  H1754   1.110   1_554 S
C1463  C1535   1.398   .     A
C1463  O1866   1.387   .     S
C1463  C1544   1.413   .     S
C1464  H1756   1.110   .     S
C1464  H1757   1.111   1_554 S
C1464  H1758   1.111   1_554 S
C1465  C1466   1.521   .     S
C1465  O1858   1.415   .     S
C1465  H1760   1.114   .     S
C1465  H1759   1.110   1_556 S
C1466  H1762   1.110   .     S
C1466  H1763   1.111   1_556 S
C1466  H1764   1.111   1_556 S
C1467  H1766   1.114   .     S
C1467  C1468   1.521   .     S
C1467  O1859   1.415   .     S
C1467  H1765   1.110   1_554 S
C1468  H1767   1.110   .     S
C1468  H1768   1.111   1_554 S
C1468  H1769   1.111   1_554 S
C1469  C1470   1.521   .     S
C1469  H1771   1.114   .     S
C1469  O1861   1.415   .     S
C1469  H1770   1.110   1_556 S
C1470  H1773   1.110   .     S
C1470  H1774   1.111   1_556 S
C1470  H1775   1.111   1_556 S
C1471  H1777   1.114   .     S
C1471  C1472   1.521   .     S
C1471  O1862   1.415   .     S
C1471  H1776   1.110   .     S
C1472  H1779   1.111   .     S
C1472  H1778   1.110   .     S
C1472  H1780   1.111   .     S
C1473  H1782   1.114   .     S
C1473  C1475   1.521   .     S
C1473  O1863   1.415   .     S
C1473  H1781   1.110   .     S
C1474  C1069   1.413   1_655 A
C1474  O1867   1.387   .     S
C1474  C1537   1.398   .     A
C1475  H1785   1.111   .     S
C1475  H1784   1.110   .     S
C1475  H1786   1.111   .     S
C1476  O1864   1.415   .     S
C1476  H1788   1.114   .     S
C1476  C1477   1.521   .     S
C1476  H1787   1.110   .     S
C1477  H1789   1.110   .     S
C1477  H1791   1.111   .     S
C1477  H1790   1.111   .     S
C1478  O1865   1.415   .     S
C1478  C1479   1.521   .     S
C1478  H1792   1.110   .     S
C1478  H1793   1.114   .     S
C1479  H1797   1.111   .     S
C1479  H1795   1.110   .     S
C1479  H1796   1.111   .     S
C1480  O1866   1.415   .     S
C1480  C1481   1.521   .     S
C1480  H1799   1.114   .     S
C1480  H1798   1.110   .     S
C1481  H1801   1.111   .     S
C1481  H1800   1.110   .     S
C1481  H1802   1.111   .     S
C1482  H1804   1.114   .     S
C1482  C1483   1.521   .     S
C1482  O1867   1.415   .     S
C1482  H1803   1.110   .     S
C1483  H1617   1.111   .     S
C1483  H1616   1.111   .     S
C1483  H1615   1.110   .     S
C1484  H1619   1.114   .     S
C1484  H1618   1.110   .     S
C1484  O1868   1.415   .     S
C1484  C1486   1.521   .     S
C1485  O1868   1.387   .     S
C1485  C1546   1.413   .     A
C1485  C1538   1.398   .     A
C1486  H1620   1.110   .     S
C1486  H1621   1.111   .     S
C1486  H1622   1.111   .     S
C1487  C1488   1.521   .     S
C1487  H1623   1.110   .     S
C1487  H1624   1.114   .     S
C1487  O1869   1.415   .     S
C1488  H1626   1.110   .     S
C1488  H1628   1.111   .     S
C1488  H1627   1.111   .     S
C1489  O1870   1.413   .     S
C1489  H1630   1.113   .     S
C1489  C1490   1.520   .     S
C1489  H1629   1.111   .     S
C1490  H1632   1.110   .     S
C1490  H1633   1.111   .     S
C1490  H1631   1.109   .     S
C1491  H1634   1.111   .     S
C1491  C1492   1.520   .     S
C1491  H1635   1.113   .     S
C1491  O1872   1.413   .     S
C1492  H1638   1.110   .     S
C1492  H1637   1.109   .     S
C1492  H1639   1.111   .     S
C1493  H1641   1.113   .     S
C1493  H1640   1.111   .     S
C1493  O1873   1.413   .     S
C1493  C1494   1.520   .     S
C1494  H1643   1.110   .     S
C1494  H1644   1.111   .     S
C1494  H1642   1.109   .     S
C1495  H1646   1.113   .     S
C1495  C1497   1.520   .     S
C1495  H1645   1.111   .     S
C1495  O1874   1.413   .     S
C1496  O1869   1.387   .     S
C1496  C596    1.413   1_565 A
C1496  C1539   1.398   .     A
C1497  H1649   1.110   .     S
C1497  H1648   1.109   .     S
C1497  H1650   1.111   .     S
C1498  H1651   1.111   .     S
C1498  H1652   1.113   .     S
C1498  C1499   1.520   .     S
C1498  O1875   1.413   .     S
C1499  H1653   1.109   .     S
C1499  H1654   1.110   .     S
C1499  H1655   1.111   .     S
C1500  H1657   1.113   .     S
C1500  O1876   1.413   .     S
C1500  C1501   1.520   .     S
C1500  H1656   1.111   .     S
C1501  H1659   1.109   .     S
C1501  H1661   1.111   .     S
C1501  H1660   1.110   .     S
C1502  H1662   1.111   .     S
C1502  O1877   1.413   .     S
C1502  H1663   1.113   .     S
C1502  C1503   1.520   .     S
C1503  H1666   1.111   .     S
C1503  H1664   1.109   .     S
C1503  H1665   1.110   .     S
C1504  H1667   1.111   .     S
C1504  H1668   1.113   .     S
C1504  O1878   1.413   .     S
C1504  C1505   1.520   .     S
C1505  H1672   1.111   .     S
C1505  H1671   1.110   .     S
C1505  H1670   1.109   .     S
C1506  H1673   1.111   .     S
C1506  C1508   1.520   .     S
C1506  O1879   1.413   .     S
C1506  H1674   1.113   .     S
C1507  O1870   1.385   .     S
C1508  H1675   1.109   .     S
C1508  H1676   1.110   .     S
C1508  H1677   1.111   .     S
C1509  H1679   1.113   .     S
C1509  H1678   1.111   .     S
C1509  O1880   1.413   .     S
C1509  C1510   1.520   .     S
C1510  H1683   1.111   .     S
C1510  H1681   1.109   .     S
C1510  H1682   1.110   .     S
C1511  H1684   1.111   .     S
C1511  C1512   1.520   .     S
C1511  O1881   1.413   .     S
C1511  H1685   1.113   .     S
C1512  H1687   1.110   .     S
C1512  H1686   1.109   .     S
C1512  H1688   1.111   .     S
C1513  H1690   1.113   .     S
C1513  O1883   1.413   .     S
C1513  C1514   1.520   .     S
C1513  H1689   1.111   .     S
C1514  H1692   1.109   .     S
C1514  H1694   1.111   .     S
C1514  H1693   1.110   .     S
C1515  H1696   1.113   .     S
C1515  H1695   1.111   .     S
C1515  C1516   1.520   .     S
C1515  O1884   1.413   .     S
C1516  H1697   1.109   .     S
C1516  H1699   1.111   .     S
C1516  H1698   1.110   .     S
C1517  H1701   1.113   .     S
C1517  C1519   1.520   .     S
C1517  O1885   1.413   .     S
C1517  H1700   1.111   .     S
C1518  O1872   1.385   .     S
C1518  C1525   1.398   .     A
C1519  H1704   1.110   .     S
C1519  H1705   1.111   .     S
C1519  H1703   1.109   .     S
C1520  H1706   1.111   .     S
C1520  C1521   1.520   .     S
C1520  O1886   1.413   .     S
C1520  H1707   1.113   .     S
C1521  H1710   1.111   .     S
C1521  H1709   1.110   .     S
C1521  H1708   1.109   .     S
C1522  C1523   1.520   .     S
C1522  O1887   1.413   .     S
C1522  H1711   1.111   .     S
C1522  H1712   1.113   .     S
C1523  H1716   1.111   .     S
C1523  H1714   1.109   .     S
C1523  H1715   1.110   .     S
C1524  O1873   1.385   .     S
C1524  C1536   1.398   .     A
C1524  C971    1.413   1_655 A
C1525  O1854   1.387   .     S
C1525  C1541   1.413   .     S
C1526  C972    1.413   1_655 A
C1526  O1874   1.385   .     S
C1526  C1547   1.398   .     A
C1527  O1875   1.385   .     S
C1527  C1558   1.398   .     A
C1527  C493    1.413   1_565 S
C1528  C1569   1.398   .     A
C1528  O1876   1.385   .     S
C1528  C494    1.413   1_565 S
C1529  C1580   1.398   .     A
C1529  O1877   1.385   .     S
C1530  C1591   1.398   .     A
C1530  O1878   1.385   .     S
C1531  C1602   1.398   .     A
C1531  O1879   1.385   .     S
C1531  C973    1.413   1_655 S
C1532  O1880   1.385   .     S
C1533  O1881   1.385   .     S
C1533  C499    1.413   1_565 A
C1534  O1883   1.385   .     S
C1535  O1884   1.385   .     S
C1536  C1066   1.413   1_655 A
C1536  O1855   1.387   .     S
C1537  O1885   1.385   .     S
C1537  C974    1.413   1_655 A
C1538  O1886   1.385   .     S
C1539  C501    1.413   1_565 A
C1539  O1887   1.385   .     S
C1540  C1541   1.468   1_554 S
C1541  C1540   1.468   1_556 S
C1542  C1543   1.468   1_554 S
C1542  C1580   1.413   .     S
C1543  C1542   1.468   1_556 S
C1543  C1591   1.413   .     S
C1544  C1545   1.468   .     S
C1546  C1548   1.468   .     S
C1547  O1856   1.387   .     S
C1547  C1067   1.413   1_655 A
C1549  O1888   1.281   .     S
C1550  O1860   1.281   .     S
C1551  O1871   1.281   .     S
C1552  O1808   1.281   .     S
C1553  O1809   1.281   .     S
C1553  O1813   1.281   .     S
C1554  O1810   1.281   .     S
C1554  O1814   1.281   .     S
C1555  O1815   1.281   .     A
C1555  O1811   1.281   .     A
C1556  O1817   1.281   .     A
C1556  O1812   1.281   .     A
C1557  O1818   1.280   .     A
C1557  O1846   1.280   .     A
C1557  C1612   1.454   .     S
C1558  C588    1.413   1_565 A
C1558  O1857   1.387   .     S
C1559  O1847   1.280   .     A
C1559  O1819   1.280   .     A
C1560  O1820   1.280   .     A
C1560  O1844   1.280   .     A
C1561  O1845   1.280   .     A
C1561  O1821   1.280   .     A
C1562  O1822   1.280   .     A
C1562  O1851   1.280   .     A
C1563  O1823   1.280   .     A
C1563  O1852   1.280   .     A
C1564  C1610   1.454   .     S
C1564  O1848   1.280   .     A
C1564  O1824   1.280   .     A
C1565  O1850   1.280   .     A
C1565  O1825   1.280   .     A
C1565  C1611   1.454   .     S
C1566  O1837   1.280   .     A
C1566  O1826   1.280   .     A
C1567  O1828   1.280   .     A
C1567  O1839   1.280   .     A
C1568  O1835   1.280   .     A
C1568  O1829   1.280   .     A
C1569  C589    1.413   1_565 A
C1569  O1858   1.387   .     S
C1570  O1836   1.280   .     A
C1570  O1830   1.280   .     A
C1571  O1842   1.280   .     A
C1571  O1831   1.280   .     A
C1572  O1843   1.280   .     A
C1572  O1832   1.280   .     A
C1573  O1833   1.280   .     A
C1573  O1840   1.280   .     A
C1574  O1841   1.280   .     A
C1574  O1834   1.280   .     A
C1575  C1592   1.386   .     A
C1575  H1613   1.083   .     S
C1576  C1590   1.386   .     A
C1576  H1717   1.083   .     S
C1577  H1728   1.083   .     S
C1577  C1589   1.386   .     A
C1578  C1588   1.386   .     A
C1578  H1739   1.083   .     S
C1579  H1750   1.083   .     S
C1579  C1587   1.386   .     A
C1580  O1859   1.387   .     S
C1581  C1586   1.386   .     A
C1581  H1761   1.083   .     S
C1582  C1585   1.386   .     A
C1582  H1772   1.083   .     S
C1583  C1584   1.386   .     A
C1583  H1783   1.083   .     S
C1584  H1794   1.083   .     S
C1585  H1614   1.083   .     S
C1586  H1625   1.083   .     S
C1587  H1636   1.083   .     S
C1588  H1647   1.083   .     S
C1589  C1612   1.401   .     A
C1589  H1658   1.083   .     S
C1590  H1669   1.083   .     S
C1590  C1611   1.401   .     A
C1591  O1861   1.387   .     S
C1592  H1680   1.083   .     S
C1592  C1610   1.401   .     A
C1593  H1691   1.083   .     S
C1593  C1611   1.401   .     A
C1593  C1609   1.386   .     A
C1594  C1610   1.401   .     A
C1594  C1608   1.386   .     A
C1594  H1702   1.083   .     S
C1595  C1607   1.386   .     A
C1595  H1713   1.083   .     S
C1596  H1718   1.083   .     S
C1596  C1612   1.401   .     A
C1596  C1606   1.386   .     A
C1597  H1719   1.083   .     S
C1597  C1605   1.386   .     A
C1598  C1604   1.386   .     A
C1598  H1720   1.083   .     S
C1599  H1721   1.083   .     S
C1599  C1603   1.386   .     A
C1600  H1722   1.083   .     S
C1600  C1601   1.386   .     A
C1601  H1723   1.083   .     S
C1602  O1862   1.387   .     S
C1602  C1068   1.413   1_655 A
C1603  H1724   1.083   .     S
C1604  H1725   1.083   .     S
C1605  H1726   1.083   .     S
C1606  H1727   1.083   .     S
C1607  H1729   1.083   .     S
C1608  H1730   1.083   .     S
C1609  H1731   1.083   .     S
H1732  C1454   1.110   1_556 S
H1735  C1455   1.111   1_556 S
H1736  C1455   1.111   1_556 S
H1737  C1456   1.110   1_554 S
H1741  C1457   1.111   1_554 S
H1742  C1457   1.111   1_554 S
H1743  C1458   1.110   1_556 S
H1746  C1459   1.111   1_556 S
H1747  C1459   1.111   1_556 S
H1748  C1460   1.110   1_554 S
H1752  C1461   1.111   1_554 S
H1753  C1461   1.111   1_554 S
H1754  C1462   1.110   1_556 S
H1757  C1464   1.111   1_556 S
H1758  C1464   1.111   1_556 S
H1759  C1465   1.110   1_554 S
H1763  C1466   1.111   1_554 S
H1764  C1466   1.111   1_554 S
H1765  C1467   1.110   1_556 S
H1768  C1468   1.111   1_556 S
H1769  C1468   1.111   1_556 S
H1770  C1469   1.110   1_554 S
H1774  C1470   1.111   1_554 S
H1775  C1470   1.111   1_554 S
O1805  Zn1892  1.946   .     S
O1805  Zn1889  1.946   .     S
O1805  Zn1900  1.946   .     S
O1806  C598    1.281   1_565 A
O1806  Zn1891  1.943   .     S
O1807  C1075   1.281   1_655 A
O1807  Zn1894  1.943   .     S
O1808  Zn1893  1.943   .     S
O1809  Zn1903  1.943   .     S
O1810  Zn1902  1.943   .     S
O1811  Zn1897  1.943   .     S
O1812  Zn1889  1.943   .     S
O1813  Zn1899  1.943   .     S
O1814  Zn1898  1.943   .     S
O1815  Zn1901  1.943   .     S
O1816  Zn1895  1.946   .     S
O1816  Zn1897  1.946   .     S
O1816  Zn1901  1.946   .     S
O1817  Zn1900  1.943   .     S
O1818  Zn1892  1.935   .     S
O1819  Zn1891  1.935   .     S
O1820  Zn1894  1.935   .     S
O1821  Zn1893  1.935   .     S
O1822  Zn1896  1.935   .     S
O1823  Zn1895  1.935   .     S
O1824  Zn1890  1.935   .     S
O1825  Zn1904  1.935   .     S
O1826  Zn1891  1.935   .     S
O1827  Zn1890  1.946   .     S
O1827  Zn1898  1.946   .     S
O1827  Zn1902  1.946   .     S
O1828  Zn1892  1.935   .     S
O1829  Zn1904  1.935   .     S
O1830  Zn1890  1.935   .     S
O1831  Zn1895  1.935   .     S
O1832  Zn1896  1.935   .     S
O1833  Zn1893  1.935   .     S
O1834  Zn1894  1.935   .     S
O1835  Zn1423  1.935   1_655 S
O1836  Zn1898  1.935   .     S
O1837  Zn949   1.935   1_565 S
O1838  Zn1899  1.946   .     S
O1838  Zn1903  1.946   .     S
O1838  Zn1893  1.946   .     S
O1839  Zn1900  1.935   .     S
O1840  Zn1903  1.935   .     S
O1841  Zn1426  1.935   1_655 S
O1842  Zn1897  1.935   .     S
O1843  Zn937   1.935   1_565 S
O1844  Zn1422  1.935   1_655 S
O1845  Zn1899  1.935   .     S
O1846  Zn1889  1.935   .     S
O1847  Zn945   1.935   1_565 S
O1848  Zn1902  1.935   .     S
O1849  C597    1.281   1_565 A
O1849  Zn1896  1.943   .     S
O1850  Zn1427  1.935   1_655 S
O1851  Zn948   1.935   1_565 S
O1852  Zn1901  1.935   .     S
O1860  Zn1895  1.943   .     S
O1871  Zn1890  1.943   .     S
O1882  C1076   1.281   1_655 A
O1882  Zn1904  1.943   .     S
O1888  Zn1892  1.943   .     S
Zn1891 O864    1.946   1_565 S
Zn1894 O1351   1.946   1_655 S
Zn1896 O853    1.946   1_565 S
Zn1904 O1362   1.946   1_655 S
