data_str_m1_o10_o16_pcu_sym.74
_audit_creation_date              2020-01-03
_audit_creation_method            'Materials Studio'
_symmetry_space_group_name_H-M    'P1'
_symmetry_Int_Tables_number       1
_symmetry_cell_setting            triclinic
loop_
_symmetry_equiv_pos_as_xyz
  x,y,z
_cell_length_a                    32.6754
_cell_length_b                    32.5292
_cell_length_c                    31.0960
_cell_angle_alpha                 96.0549
_cell_angle_beta                  74.5787
_cell_angle_gamma                 98.9257
loop_
_atom_site_label
_atom_site_type_symbol
_atom_site_fract_x
_atom_site_fract_y
_atom_site_fract_z
_atom_site_U_iso_or_equiv
_atom_site_adp_type
_atom_site_occupancy
C1     C     0.05311   0.15972   0.25939   0.00000  Uiso   1.00
C2     C     0.17189   0.16806   0.06049   0.00000  Uiso   1.00
C3     C     0.22325   0.12031   0.05627   0.00000  Uiso   1.00
C4     C     0.28081   0.17388   0.24018   0.00000  Uiso   1.00
C5     C     0.13840   0.18920   0.41984   0.00000  Uiso   1.00
C6     C     0.32629   0.17865   0.23858   0.00000  Uiso   1.00
C7     C     0.00810   0.15532   0.26291   0.00000  Uiso   1.00
C8     C     0.18208   0.32305   0.23595   0.00000  Uiso   1.00
C9     C     0.15262   0.01163   0.26298   0.00000  Uiso   1.00
C10    C     0.15569   0.05596   0.26062   0.00000  Uiso   1.00
C11    C     0.17698   0.27805   0.23997   0.00000  Uiso   1.00
C12    C     0.08123   0.18898   0.48798   0.00000  Uiso   1.00
C13    C     0.18551   0.14836   0.12946   0.00000  Uiso   1.00
C14    C     0.14911   0.18501   0.37068   0.00000  Uiso   1.00
C15    C     0.23777   0.12258   0.00993   0.00000  Uiso   1.00
C16    C     0.19225   0.14421   0.08135   0.00000  Uiso   1.00
C17    C     0.09630   0.19531   0.44269   0.00000  Uiso   1.00
C18    C     0.21990   0.01066   0.20201   0.00000  Uiso   1.00
C19    C     0.28192   0.15811   0.41839   0.00000  Uiso   1.00
C20    C     0.27001   0.09411   0.48524   0.00000  Uiso   1.00
C21    C     0.14779   0.20233   0.08824   0.00000  Uiso   1.00
C22    C     0.10810   0.17701   0.01096   0.00000  Uiso   1.00
C23    C     0.15192   0.17504   0.49018   0.00000  Uiso   1.00
C24    C     0.16699   0.18067   0.44397   0.00000  Uiso   1.00
C25    C     0.18014   0.16386   0.01333   0.00000  Uiso   1.00
C26    C     0.21847   0.14794   0.48827   0.00000  Uiso   1.00
C27    C     0.23566   0.15944   0.44350   0.00000  Uiso   1.00
C28    C     0.21024   0.17747   0.42298   0.00000  Uiso   1.00
H29    H     0.23797   0.10172   0.07343   0.00000  Uiso   1.00
H30    H     0.30326   0.17155   0.44016   0.00000  Uiso   1.00
H31    H     0.28755   0.12585   0.40572   0.00000  Uiso   1.00
H32    H     0.25935   0.07666   0.45664   0.00000  Uiso   1.00
H33    H     0.30227   0.11190   0.47403   0.00000  Uiso   1.00
H34    H     0.27309   0.07032   0.00695   0.00000  Uiso   1.00
H35    H     0.16758   0.22132   0.10903   0.00000  Uiso   1.00
H36    H     0.14117   0.22492   0.06744   0.00000  Uiso   1.00
H37    H     0.11743   0.18849   0.11066   0.00000  Uiso   1.00
H38    H     0.12516   0.33015   0.28699   0.00000  Uiso   1.00
H39    H     0.07409   0.20203   0.42481   0.00000  Uiso   1.00
H40    H     0.09388   0.16819   0.04476   0.00000  Uiso   1.00
H41    H     0.22444   0.18831   0.38991   0.00000  Uiso   1.00
H42    H     0.24120   0.32149   0.18239   0.00000  Uiso   1.00
H43    H     0.20830   0.02611   0.17816   0.00000  Uiso   1.00
H44    H     0.23935   0.03439   0.21937   0.00000  Uiso   1.00
H45    H     0.29128   0.17707   0.38875   0.00000  Uiso   1.00
I46    I     0.30810   0.10241   0.29914   0.00000  Uiso   1.00
I47    I     0.01674   0.19432   0.02128   0.00000  Uiso   1.00
I48    I     0.03422   0.22466   0.19718   0.00000  Uiso   1.00
O49    O     0.16667   0.16667   0.25000   0.00000  Uiso   1.00
O50    O     0.15451   0.12637   0.15459   0.00000  Uiso   1.00
O51    O     0.12940   0.20391   0.34968   0.00000  Uiso   1.00
O52    O     0.20824   0.17759   0.14606   0.00000  Uiso   1.00
O53    O     0.17451   0.15880   0.34968   0.00000  Uiso   1.00
O54    O     0.17930   0.08019   0.28214   0.00000  Uiso   1.00
O55    O     0.14632   0.26085   0.27014   0.00000  Uiso   1.00
O56    O     0.07412   0.13291   0.23413   0.00000  Uiso   1.00
O57    O     0.26693   0.19272   0.21361   0.00000  Uiso   1.00
O58    O     0.07071   0.18878   0.28213   0.00000  Uiso   1.00
O59    O     0.25491   0.15226   0.27014   0.00000  Uiso   1.00
O60    O     0.13760   0.06944   0.23413   0.00000  Uiso   1.00
O61    O     0.20345   0.25620   0.21361   0.00000  Uiso   1.00
Zn62   Zn    0.19338   0.13994   0.28734   0.00000  Uiso   1.00
Zn63   Zn    0.13379   0.12458   0.21876   0.00000  Uiso   1.00
Zn64   Zn    0.21056   0.19775   0.20657   0.00000  Uiso   1.00
Zn65   Zn    0.12893   0.20439   0.28734   0.00000  Uiso   1.00
C66    C     0.38644   0.15972   0.25939   0.00000  Uiso   1.00
C67    C     0.50523   0.16806   0.06049   0.00000  Uiso   1.00
C68    C     0.55658   0.12031   0.05627   0.00000  Uiso   1.00
C69    C     0.61414   0.17388   0.24018   0.00000  Uiso   1.00
C70    C     0.47173   0.18920   0.41984   0.00000  Uiso   1.00
C71    C     0.65962   0.17865   0.23858   0.00000  Uiso   1.00
C72    C     0.34144   0.15532   0.26291   0.00000  Uiso   1.00
C73    C     0.51541   0.32305   0.23595   0.00000  Uiso   1.00
C74    C     0.48596   0.01163   0.26298   0.00000  Uiso   1.00
C75    C     0.48902   0.05596   0.26062   0.00000  Uiso   1.00
C76    C     0.51032   0.27805   0.23997   0.00000  Uiso   1.00
C77    C     0.41456   0.18898   0.48798   0.00000  Uiso   1.00
C78    C     0.51884   0.14836   0.12946   0.00000  Uiso   1.00
C79    C     0.48245   0.18501   0.37068   0.00000  Uiso   1.00
C80    C     0.57111   0.12258   0.00993   0.00000  Uiso   1.00
C81    C     0.52558   0.14421   0.08135   0.00000  Uiso   1.00
C82    C     0.42963   0.19531   0.44269   0.00000  Uiso   1.00
C83    C     0.55324   0.01066   0.20201   0.00000  Uiso   1.00
C84    C     0.61525   0.15811   0.41839   0.00000  Uiso   1.00
C85    C     0.60334   0.09411   0.48524   0.00000  Uiso   1.00
C86    C     0.48112   0.20233   0.08824   0.00000  Uiso   1.00
C87    C     0.44144   0.17701   0.01096   0.00000  Uiso   1.00
C88    C     0.48525   0.17504   0.49018   0.00000  Uiso   1.00
C89    C     0.50032   0.18067   0.44397   0.00000  Uiso   1.00
C90    C     0.51348   0.16386   0.01333   0.00000  Uiso   1.00
C91    C     0.55181   0.14794   0.48827   0.00000  Uiso   1.00
C92    C     0.56899   0.15944   0.44350   0.00000  Uiso   1.00
C93    C     0.54357   0.17747   0.42298   0.00000  Uiso   1.00
H94    H     0.57130   0.10172   0.07343   0.00000  Uiso   1.00
H95    H     0.63659   0.17155   0.44016   0.00000  Uiso   1.00
H96    H     0.62088   0.12585   0.40572   0.00000  Uiso   1.00
H97    H     0.59268   0.07666   0.45664   0.00000  Uiso   1.00
H98    H     0.63561   0.11190   0.47403   0.00000  Uiso   1.00
H99    H     0.60642   0.07032   0.00695   0.00000  Uiso   1.00
H100   H     0.50091   0.22132   0.10903   0.00000  Uiso   1.00
H101   H     0.47450   0.22492   0.06744   0.00000  Uiso   1.00
H102   H     0.45076   0.18849   0.11066   0.00000  Uiso   1.00
H103   H     0.45849   0.33015   0.28699   0.00000  Uiso   1.00
H104   H     0.40742   0.20203   0.42481   0.00000  Uiso   1.00
H105   H     0.42722   0.16819   0.04476   0.00000  Uiso   1.00
H106   H     0.55777   0.18831   0.38991   0.00000  Uiso   1.00
H107   H     0.57454   0.32149   0.18239   0.00000  Uiso   1.00
H108   H     0.54164   0.02611   0.17816   0.00000  Uiso   1.00
H109   H     0.57269   0.03439   0.21937   0.00000  Uiso   1.00
H110   H     0.62461   0.17707   0.38875   0.00000  Uiso   1.00
I111   I     0.64144   0.10241   0.29914   0.00000  Uiso   1.00
I112   I     0.35007   0.19432   0.02128   0.00000  Uiso   1.00
I113   I     0.36756   0.22466   0.19718   0.00000  Uiso   1.00
O114   O     0.50000   0.16667   0.25000   0.00000  Uiso   1.00
O115   O     0.48784   0.12637   0.15459   0.00000  Uiso   1.00
O116   O     0.46274   0.20391   0.34968   0.00000  Uiso   1.00
O117   O     0.54157   0.17759   0.14606   0.00000  Uiso   1.00
O118   O     0.50785   0.15880   0.34968   0.00000  Uiso   1.00
O119   O     0.51264   0.08019   0.28214   0.00000  Uiso   1.00
O120   O     0.47965   0.26085   0.27014   0.00000  Uiso   1.00
O121   O     0.40745   0.13291   0.23413   0.00000  Uiso   1.00
O122   O     0.60026   0.19272   0.21361   0.00000  Uiso   1.00
O123   O     0.40405   0.18878   0.28213   0.00000  Uiso   1.00
O124   O     0.58824   0.15226   0.27014   0.00000  Uiso   1.00
O125   O     0.47093   0.06944   0.23413   0.00000  Uiso   1.00
O126   O     0.53678   0.25620   0.21361   0.00000  Uiso   1.00
Zn127  Zn    0.52672   0.13994   0.28734   0.00000  Uiso   1.00
Zn128  Zn    0.46713   0.12458   0.21876   0.00000  Uiso   1.00
Zn129  Zn    0.54389   0.19775   0.20657   0.00000  Uiso   1.00
Zn130  Zn    0.46226   0.20439   0.28734   0.00000  Uiso   1.00
C131   C     0.71977   0.15972   0.25939   0.00000  Uiso   1.00
C132   C     0.83856   0.16806   0.06049   0.00000  Uiso   1.00
C133   C     0.88991   0.12031   0.05627   0.00000  Uiso   1.00
C134   C     0.94747   0.17388   0.24018   0.00000  Uiso   1.00
C135   C     0.80507   0.18920   0.41984   0.00000  Uiso   1.00
C136   C     0.99296   0.17865   0.23858   0.00000  Uiso   1.00
C137   C     0.67477   0.15532   0.26291   0.00000  Uiso   1.00
C138   C     0.84875   0.32305   0.23595   0.00000  Uiso   1.00
C139   C     0.81929   0.01163   0.26298   0.00000  Uiso   1.00
C140   C     0.82235   0.05596   0.26062   0.00000  Uiso   1.00
C141   C     0.84365   0.27805   0.23997   0.00000  Uiso   1.00
C142   C     0.74789   0.18898   0.48798   0.00000  Uiso   1.00
C143   C     0.85217   0.14836   0.12946   0.00000  Uiso   1.00
C144   C     0.81578   0.18501   0.37068   0.00000  Uiso   1.00
C145   C     0.90444   0.12258   0.00993   0.00000  Uiso   1.00
C146   C     0.85892   0.14421   0.08135   0.00000  Uiso   1.00
C147   C     0.76297   0.19531   0.44269   0.00000  Uiso   1.00
C148   C     0.88657   0.01066   0.20201   0.00000  Uiso   1.00
C149   C     0.94858   0.15811   0.41839   0.00000  Uiso   1.00
C150   C     0.93667   0.09411   0.48524   0.00000  Uiso   1.00
C151   C     0.81446   0.20233   0.08824   0.00000  Uiso   1.00
C152   C     0.77477   0.17701   0.01096   0.00000  Uiso   1.00
C153   C     0.81858   0.17504   0.49018   0.00000  Uiso   1.00
C154   C     0.83365   0.18067   0.44397   0.00000  Uiso   1.00
C155   C     0.84681   0.16386   0.01333   0.00000  Uiso   1.00
C156   C     0.88514   0.14794   0.48827   0.00000  Uiso   1.00
C157   C     0.90233   0.15944   0.44350   0.00000  Uiso   1.00
C158   C     0.87690   0.17747   0.42298   0.00000  Uiso   1.00
H159   H     0.90463   0.10172   0.07343   0.00000  Uiso   1.00
H160   H     0.96993   0.17155   0.44016   0.00000  Uiso   1.00
H161   H     0.95421   0.12585   0.40572   0.00000  Uiso   1.00
H162   H     0.92602   0.07666   0.45664   0.00000  Uiso   1.00
H163   H     0.96894   0.11190   0.47403   0.00000  Uiso   1.00
H164   H     0.93975   0.07032   0.00695   0.00000  Uiso   1.00
H165   H     0.83424   0.22132   0.10903   0.00000  Uiso   1.00
H166   H     0.80784   0.22492   0.06744   0.00000  Uiso   1.00
H167   H     0.78409   0.18849   0.11066   0.00000  Uiso   1.00
H168   H     0.79183   0.33015   0.28699   0.00000  Uiso   1.00
H169   H     0.74076   0.20203   0.42481   0.00000  Uiso   1.00
H170   H     0.76055   0.16819   0.04476   0.00000  Uiso   1.00
H171   H     0.89111   0.18831   0.38991   0.00000  Uiso   1.00
H172   H     0.90787   0.32149   0.18239   0.00000  Uiso   1.00
H173   H     0.87497   0.02611   0.17816   0.00000  Uiso   1.00
H174   H     0.90602   0.03439   0.21937   0.00000  Uiso   1.00
H175   H     0.95794   0.17707   0.38875   0.00000  Uiso   1.00
I176   I     0.97477   0.10241   0.29914   0.00000  Uiso   1.00
I177   I     0.68340   0.19432   0.02128   0.00000  Uiso   1.00
I178   I     0.70089   0.22466   0.19718   0.00000  Uiso   1.00
O179   O     0.83333   0.16667   0.25000   0.00000  Uiso   1.00
O180   O     0.82118   0.12637   0.15459   0.00000  Uiso   1.00
O181   O     0.79607   0.20391   0.34968   0.00000  Uiso   1.00
O182   O     0.87491   0.17759   0.14606   0.00000  Uiso   1.00
O183   O     0.84118   0.15880   0.34968   0.00000  Uiso   1.00
O184   O     0.84597   0.08019   0.28214   0.00000  Uiso   1.00
O185   O     0.81298   0.26085   0.27014   0.00000  Uiso   1.00
O186   O     0.74078   0.13291   0.23413   0.00000  Uiso   1.00
O187   O     0.93360   0.19272   0.21361   0.00000  Uiso   1.00
O188   O     0.73738   0.18878   0.28213   0.00000  Uiso   1.00
O189   O     0.92158   0.15226   0.27014   0.00000  Uiso   1.00
O190   O     0.80426   0.06944   0.23413   0.00000  Uiso   1.00
O191   O     0.87012   0.25620   0.21361   0.00000  Uiso   1.00
Zn192  Zn    0.86005   0.13994   0.28734   0.00000  Uiso   1.00
Zn193  Zn    0.80046   0.12458   0.21876   0.00000  Uiso   1.00
Zn194  Zn    0.87723   0.19775   0.20657   0.00000  Uiso   1.00
Zn195  Zn    0.79560   0.20439   0.28734   0.00000  Uiso   1.00
C196   C     0.05311   0.49305   0.25939   0.00000  Uiso   1.00
C197   C     0.17189   0.50140   0.06049   0.00000  Uiso   1.00
C198   C     0.22325   0.45364   0.05627   0.00000  Uiso   1.00
C199   C     0.28081   0.50721   0.24018   0.00000  Uiso   1.00
C200   C     0.13840   0.52253   0.41984   0.00000  Uiso   1.00
C201   C     0.32629   0.51199   0.23858   0.00000  Uiso   1.00
C202   C     0.00810   0.48866   0.26291   0.00000  Uiso   1.00
C203   C     0.18208   0.65638   0.23595   0.00000  Uiso   1.00
C204   C     0.15262   0.34496   0.26298   0.00000  Uiso   1.00
C205   C     0.15569   0.38929   0.26062   0.00000  Uiso   1.00
C206   C     0.17698   0.61138   0.23997   0.00000  Uiso   1.00
C207   C     0.08123   0.52231   0.48798   0.00000  Uiso   1.00
C208   C     0.18551   0.48170   0.12946   0.00000  Uiso   1.00
C209   C     0.14911   0.51835   0.37068   0.00000  Uiso   1.00
C210   C     0.23777   0.45591   0.00993   0.00000  Uiso   1.00
C211   C     0.19225   0.47754   0.08135   0.00000  Uiso   1.00
C212   C     0.09630   0.52864   0.44269   0.00000  Uiso   1.00
C213   C     0.21990   0.34399   0.20201   0.00000  Uiso   1.00
C214   C     0.28192   0.49145   0.41839   0.00000  Uiso   1.00
C215   C     0.27001   0.42744   0.48524   0.00000  Uiso   1.00
C216   C     0.14779   0.53566   0.08824   0.00000  Uiso   1.00
C217   C     0.10810   0.51035   0.01096   0.00000  Uiso   1.00
C218   C     0.15192   0.50838   0.49018   0.00000  Uiso   1.00
C219   C     0.16699   0.51401   0.44397   0.00000  Uiso   1.00
C220   C     0.18014   0.49719   0.01333   0.00000  Uiso   1.00
C221   C     0.21847   0.48127   0.48827   0.00000  Uiso   1.00
C222   C     0.23566   0.49277   0.44350   0.00000  Uiso   1.00
C223   C     0.21024   0.51080   0.42298   0.00000  Uiso   1.00
H224   H     0.23797   0.43505   0.07343   0.00000  Uiso   1.00
H225   H     0.30326   0.50488   0.44016   0.00000  Uiso   1.00
H226   H     0.28755   0.45919   0.40572   0.00000  Uiso   1.00
H227   H     0.25935   0.40999   0.45664   0.00000  Uiso   1.00
H228   H     0.30227   0.44523   0.47403   0.00000  Uiso   1.00
H229   H     0.27309   0.40365   0.00695   0.00000  Uiso   1.00
H230   H     0.16758   0.55465   0.10903   0.00000  Uiso   1.00
H231   H     0.14117   0.55825   0.06744   0.00000  Uiso   1.00
H232   H     0.11743   0.52183   0.11066   0.00000  Uiso   1.00
H233   H     0.12516   0.66349   0.28699   0.00000  Uiso   1.00
H234   H     0.07409   0.53537   0.42481   0.00000  Uiso   1.00
H235   H     0.09388   0.50153   0.04476   0.00000  Uiso   1.00
H236   H     0.22444   0.52164   0.38991   0.00000  Uiso   1.00
H237   H     0.24120   0.65482   0.18239   0.00000  Uiso   1.00
H238   H     0.20830   0.35944   0.17816   0.00000  Uiso   1.00
H239   H     0.23935   0.36772   0.21937   0.00000  Uiso   1.00
H240   H     0.29128   0.51040   0.38875   0.00000  Uiso   1.00
I241   I     0.30810   0.43574   0.29914   0.00000  Uiso   1.00
I242   I     0.01674   0.52766   0.02128   0.00000  Uiso   1.00
I243   I     0.03422   0.55799   0.19718   0.00000  Uiso   1.00
O244   O     0.16667   0.50000   0.25000   0.00000  Uiso   1.00
O245   O     0.15451   0.45970   0.15459   0.00000  Uiso   1.00
O246   O     0.12940   0.53724   0.34968   0.00000  Uiso   1.00
O247   O     0.20824   0.51092   0.14606   0.00000  Uiso   1.00
O248   O     0.17451   0.49213   0.34968   0.00000  Uiso   1.00
O249   O     0.17930   0.41352   0.28214   0.00000  Uiso   1.00
O250   O     0.14632   0.59418   0.27014   0.00000  Uiso   1.00
O251   O     0.07412   0.46625   0.23413   0.00000  Uiso   1.00
O252   O     0.26693   0.52605   0.21361   0.00000  Uiso   1.00
O253   O     0.07071   0.52211   0.28213   0.00000  Uiso   1.00
O254   O     0.25491   0.48559   0.27014   0.00000  Uiso   1.00
O255   O     0.13760   0.40277   0.23413   0.00000  Uiso   1.00
O256   O     0.20345   0.58953   0.21361   0.00000  Uiso   1.00
Zn257  Zn    0.19338   0.47327   0.28734   0.00000  Uiso   1.00
Zn258  Zn    0.13379   0.45791   0.21876   0.00000  Uiso   1.00
Zn259  Zn    0.21056   0.53109   0.20657   0.00000  Uiso   1.00
Zn260  Zn    0.12893   0.53773   0.28734   0.00000  Uiso   1.00
C261   C     0.38644   0.49305   0.25939   0.00000  Uiso   1.00
C262   C     0.50523   0.50140   0.06049   0.00000  Uiso   1.00
C263   C     0.55658   0.45364   0.05627   0.00000  Uiso   1.00
C264   C     0.61414   0.50721   0.24018   0.00000  Uiso   1.00
C265   C     0.47173   0.52253   0.41984   0.00000  Uiso   1.00
C266   C     0.65962   0.51199   0.23858   0.00000  Uiso   1.00
C267   C     0.34144   0.48866   0.26291   0.00000  Uiso   1.00
C268   C     0.51541   0.65638   0.23595   0.00000  Uiso   1.00
C269   C     0.48596   0.34496   0.26298   0.00000  Uiso   1.00
C270   C     0.48902   0.38929   0.26062   0.00000  Uiso   1.00
C271   C     0.51032   0.61138   0.23997   0.00000  Uiso   1.00
C272   C     0.41456   0.52231   0.48798   0.00000  Uiso   1.00
C273   C     0.51884   0.48170   0.12946   0.00000  Uiso   1.00
C274   C     0.48245   0.51835   0.37068   0.00000  Uiso   1.00
C275   C     0.57111   0.45591   0.00993   0.00000  Uiso   1.00
C276   C     0.52558   0.47754   0.08135   0.00000  Uiso   1.00
C277   C     0.42963   0.52864   0.44269   0.00000  Uiso   1.00
C278   C     0.55324   0.34399   0.20201   0.00000  Uiso   1.00
C279   C     0.61525   0.49145   0.41839   0.00000  Uiso   1.00
C280   C     0.60334   0.42744   0.48524   0.00000  Uiso   1.00
C281   C     0.48112   0.53566   0.08824   0.00000  Uiso   1.00
C282   C     0.44144   0.51035   0.01096   0.00000  Uiso   1.00
C283   C     0.48525   0.50838   0.49018   0.00000  Uiso   1.00
C284   C     0.50032   0.51401   0.44397   0.00000  Uiso   1.00
C285   C     0.51348   0.49719   0.01333   0.00000  Uiso   1.00
C286   C     0.55181   0.48127   0.48827   0.00000  Uiso   1.00
C287   C     0.56899   0.49277   0.44350   0.00000  Uiso   1.00
C288   C     0.54357   0.51080   0.42298   0.00000  Uiso   1.00
H289   H     0.57130   0.43505   0.07343   0.00000  Uiso   1.00
H290   H     0.63659   0.50488   0.44016   0.00000  Uiso   1.00
H291   H     0.62088   0.45919   0.40572   0.00000  Uiso   1.00
H292   H     0.59268   0.40999   0.45664   0.00000  Uiso   1.00
H293   H     0.63561   0.44523   0.47403   0.00000  Uiso   1.00
H294   H     0.60642   0.40365   0.00695   0.00000  Uiso   1.00
H295   H     0.50091   0.55465   0.10903   0.00000  Uiso   1.00
H296   H     0.47450   0.55825   0.06744   0.00000  Uiso   1.00
H297   H     0.45076   0.52183   0.11066   0.00000  Uiso   1.00
H298   H     0.45849   0.66349   0.28699   0.00000  Uiso   1.00
H299   H     0.40742   0.53537   0.42481   0.00000  Uiso   1.00
H300   H     0.42722   0.50153   0.04476   0.00000  Uiso   1.00
H301   H     0.55777   0.52164   0.38991   0.00000  Uiso   1.00
H302   H     0.57454   0.65482   0.18239   0.00000  Uiso   1.00
H303   H     0.54164   0.35944   0.17816   0.00000  Uiso   1.00
H304   H     0.57269   0.36772   0.21937   0.00000  Uiso   1.00
H305   H     0.62461   0.51040   0.38875   0.00000  Uiso   1.00
I306   I     0.64144   0.43574   0.29914   0.00000  Uiso   1.00
I307   I     0.35007   0.52766   0.02128   0.00000  Uiso   1.00
I308   I     0.36756   0.55799   0.19718   0.00000  Uiso   1.00
O309   O     0.50000   0.50000   0.25000   0.00000  Uiso   1.00
O310   O     0.48784   0.45970   0.15459   0.00000  Uiso   1.00
O311   O     0.46274   0.53724   0.34968   0.00000  Uiso   1.00
O312   O     0.54157   0.51092   0.14606   0.00000  Uiso   1.00
O313   O     0.50785   0.49213   0.34968   0.00000  Uiso   1.00
O314   O     0.51264   0.41352   0.28214   0.00000  Uiso   1.00
O315   O     0.47965   0.59418   0.27014   0.00000  Uiso   1.00
O316   O     0.40745   0.46625   0.23413   0.00000  Uiso   1.00
O317   O     0.60026   0.52605   0.21361   0.00000  Uiso   1.00
O318   O     0.40405   0.52211   0.28213   0.00000  Uiso   1.00
O319   O     0.58824   0.48559   0.27014   0.00000  Uiso   1.00
O320   O     0.47093   0.40277   0.23413   0.00000  Uiso   1.00
O321   O     0.53678   0.58953   0.21361   0.00000  Uiso   1.00
Zn322  Zn    0.52672   0.47327   0.28734   0.00000  Uiso   1.00
Zn323  Zn    0.46713   0.45791   0.21876   0.00000  Uiso   1.00
Zn324  Zn    0.54389   0.53109   0.20657   0.00000  Uiso   1.00
Zn325  Zn    0.46226   0.53773   0.28734   0.00000  Uiso   1.00
C326   C     0.71977   0.49305   0.25939   0.00000  Uiso   1.00
C327   C     0.83856   0.50140   0.06049   0.00000  Uiso   1.00
C328   C     0.88991   0.45364   0.05627   0.00000  Uiso   1.00
C329   C     0.94747   0.50721   0.24018   0.00000  Uiso   1.00
C330   C     0.80507   0.52253   0.41984   0.00000  Uiso   1.00
C331   C     0.99296   0.51199   0.23858   0.00000  Uiso   1.00
C332   C     0.67477   0.48866   0.26291   0.00000  Uiso   1.00
C333   C     0.84875   0.65638   0.23595   0.00000  Uiso   1.00
C334   C     0.81929   0.34496   0.26298   0.00000  Uiso   1.00
C335   C     0.82235   0.38929   0.26062   0.00000  Uiso   1.00
C336   C     0.84365   0.61138   0.23997   0.00000  Uiso   1.00
C337   C     0.74789   0.52231   0.48798   0.00000  Uiso   1.00
C338   C     0.85217   0.48170   0.12946   0.00000  Uiso   1.00
C339   C     0.81578   0.51835   0.37068   0.00000  Uiso   1.00
C340   C     0.90444   0.45591   0.00993   0.00000  Uiso   1.00
C341   C     0.85892   0.47754   0.08135   0.00000  Uiso   1.00
C342   C     0.76297   0.52864   0.44269   0.00000  Uiso   1.00
C343   C     0.88657   0.34399   0.20201   0.00000  Uiso   1.00
C344   C     0.94858   0.49145   0.41839   0.00000  Uiso   1.00
C345   C     0.93667   0.42744   0.48524   0.00000  Uiso   1.00
C346   C     0.81446   0.53566   0.08824   0.00000  Uiso   1.00
C347   C     0.77477   0.51035   0.01096   0.00000  Uiso   1.00
C348   C     0.81858   0.50838   0.49018   0.00000  Uiso   1.00
C349   C     0.83365   0.51401   0.44397   0.00000  Uiso   1.00
C350   C     0.84681   0.49719   0.01333   0.00000  Uiso   1.00
C351   C     0.88514   0.48127   0.48827   0.00000  Uiso   1.00
C352   C     0.90233   0.49277   0.44350   0.00000  Uiso   1.00
C353   C     0.87690   0.51080   0.42298   0.00000  Uiso   1.00
H354   H     0.90463   0.43505   0.07343   0.00000  Uiso   1.00
H355   H     0.96993   0.50488   0.44016   0.00000  Uiso   1.00
H356   H     0.95421   0.45919   0.40572   0.00000  Uiso   1.00
H357   H     0.92602   0.40999   0.45664   0.00000  Uiso   1.00
H358   H     0.96894   0.44523   0.47403   0.00000  Uiso   1.00
H359   H     0.93975   0.40365   0.00695   0.00000  Uiso   1.00
H360   H     0.83424   0.55465   0.10903   0.00000  Uiso   1.00
H361   H     0.80784   0.55825   0.06744   0.00000  Uiso   1.00
H362   H     0.78409   0.52183   0.11066   0.00000  Uiso   1.00
H363   H     0.79183   0.66349   0.28699   0.00000  Uiso   1.00
H364   H     0.74076   0.53537   0.42481   0.00000  Uiso   1.00
H365   H     0.76055   0.50153   0.04476   0.00000  Uiso   1.00
H366   H     0.89111   0.52164   0.38991   0.00000  Uiso   1.00
H367   H     0.90787   0.65482   0.18239   0.00000  Uiso   1.00
H368   H     0.87497   0.35944   0.17816   0.00000  Uiso   1.00
H369   H     0.90602   0.36772   0.21937   0.00000  Uiso   1.00
H370   H     0.95794   0.51040   0.38875   0.00000  Uiso   1.00
I371   I     0.97477   0.43574   0.29914   0.00000  Uiso   1.00
I372   I     0.68340   0.52766   0.02128   0.00000  Uiso   1.00
I373   I     0.70089   0.55799   0.19718   0.00000  Uiso   1.00
O374   O     0.83333   0.50000   0.25000   0.00000  Uiso   1.00
O375   O     0.82118   0.45970   0.15459   0.00000  Uiso   1.00
O376   O     0.79607   0.53724   0.34968   0.00000  Uiso   1.00
O377   O     0.87491   0.51092   0.14606   0.00000  Uiso   1.00
O378   O     0.84118   0.49213   0.34968   0.00000  Uiso   1.00
O379   O     0.84597   0.41352   0.28214   0.00000  Uiso   1.00
O380   O     0.81298   0.59418   0.27014   0.00000  Uiso   1.00
O381   O     0.74078   0.46625   0.23413   0.00000  Uiso   1.00
O382   O     0.93360   0.52605   0.21361   0.00000  Uiso   1.00
O383   O     0.73738   0.52211   0.28213   0.00000  Uiso   1.00
O384   O     0.92158   0.48559   0.27014   0.00000  Uiso   1.00
O385   O     0.80426   0.40277   0.23413   0.00000  Uiso   1.00
O386   O     0.87012   0.58953   0.21361   0.00000  Uiso   1.00
Zn387  Zn    0.86005   0.47327   0.28734   0.00000  Uiso   1.00
Zn388  Zn    0.80046   0.45791   0.21876   0.00000  Uiso   1.00
Zn389  Zn    0.87723   0.53109   0.20657   0.00000  Uiso   1.00
Zn390  Zn    0.79560   0.53773   0.28734   0.00000  Uiso   1.00
C391   C     0.05311   0.82639   0.25939   0.00000  Uiso   1.00
C392   C     0.17189   0.83473   0.06049   0.00000  Uiso   1.00
C393   C     0.22325   0.78698   0.05627   0.00000  Uiso   1.00
C394   C     0.28081   0.84055   0.24018   0.00000  Uiso   1.00
C395   C     0.13840   0.85586   0.41984   0.00000  Uiso   1.00
C396   C     0.32629   0.84532   0.23858   0.00000  Uiso   1.00
C397   C     0.00810   0.82199   0.26291   0.00000  Uiso   1.00
C398   C     0.18208   0.98972   0.23595   0.00000  Uiso   1.00
C399   C     0.15262   0.67830   0.26298   0.00000  Uiso   1.00
C400   C     0.15569   0.72263   0.26062   0.00000  Uiso   1.00
C401   C     0.17698   0.94471   0.23997   0.00000  Uiso   1.00
C402   C     0.08123   0.85565   0.48798   0.00000  Uiso   1.00
C403   C     0.18551   0.81503   0.12946   0.00000  Uiso   1.00
C404   C     0.14911   0.85168   0.37068   0.00000  Uiso   1.00
C405   C     0.23777   0.78925   0.00993   0.00000  Uiso   1.00
C406   C     0.19225   0.81088   0.08135   0.00000  Uiso   1.00
C407   C     0.09630   0.86197   0.44269   0.00000  Uiso   1.00
C408   C     0.21990   0.67732   0.20201   0.00000  Uiso   1.00
C409   C     0.28192   0.82478   0.41839   0.00000  Uiso   1.00
C410   C     0.27001   0.76077   0.48524   0.00000  Uiso   1.00
C411   C     0.14779   0.86900   0.08824   0.00000  Uiso   1.00
C412   C     0.10810   0.84368   0.01096   0.00000  Uiso   1.00
C413   C     0.15192   0.84171   0.49018   0.00000  Uiso   1.00
C414   C     0.16699   0.84734   0.44397   0.00000  Uiso   1.00
C415   C     0.18014   0.83053   0.01333   0.00000  Uiso   1.00
C416   C     0.21847   0.81460   0.48827   0.00000  Uiso   1.00
C417   C     0.23566   0.82611   0.44350   0.00000  Uiso   1.00
C418   C     0.21024   0.84413   0.42298   0.00000  Uiso   1.00
H419   H     0.23797   0.76838   0.07343   0.00000  Uiso   1.00
H420   H     0.30326   0.83822   0.44016   0.00000  Uiso   1.00
H421   H     0.28755   0.79252   0.40572   0.00000  Uiso   1.00
H422   H     0.25935   0.74332   0.45664   0.00000  Uiso   1.00
H423   H     0.30227   0.77856   0.47403   0.00000  Uiso   1.00
H424   H     0.27309   0.73699   0.00695   0.00000  Uiso   1.00
H425   H     0.16758   0.88798   0.10903   0.00000  Uiso   1.00
H426   H     0.14117   0.89158   0.06744   0.00000  Uiso   1.00
H427   H     0.11743   0.85516   0.11066   0.00000  Uiso   1.00
H428   H     0.12516   0.99682   0.28699   0.00000  Uiso   1.00
H429   H     0.07409   0.86870   0.42481   0.00000  Uiso   1.00
H430   H     0.09388   0.83486   0.04476   0.00000  Uiso   1.00
H431   H     0.22444   0.85498   0.38991   0.00000  Uiso   1.00
H432   H     0.24120   0.98815   0.18239   0.00000  Uiso   1.00
H433   H     0.20830   0.69277   0.17816   0.00000  Uiso   1.00
H434   H     0.23935   0.70106   0.21937   0.00000  Uiso   1.00
H435   H     0.29128   0.84373   0.38875   0.00000  Uiso   1.00
I436   I     0.30810   0.76908   0.29914   0.00000  Uiso   1.00
I437   I     0.01674   0.86099   0.02128   0.00000  Uiso   1.00
I438   I     0.03422   0.89132   0.19718   0.00000  Uiso   1.00
O439   O     0.16667   0.83333   0.25000   0.00000  Uiso   1.00
O440   O     0.15451   0.79304   0.15459   0.00000  Uiso   1.00
O441   O     0.12940   0.87058   0.34968   0.00000  Uiso   1.00
O442   O     0.20824   0.84425   0.14606   0.00000  Uiso   1.00
O443   O     0.17451   0.82546   0.34968   0.00000  Uiso   1.00
O444   O     0.17930   0.74686   0.28214   0.00000  Uiso   1.00
O445   O     0.14632   0.92751   0.27014   0.00000  Uiso   1.00
O446   O     0.07412   0.79958   0.23413   0.00000  Uiso   1.00
O447   O     0.26693   0.85939   0.21361   0.00000  Uiso   1.00
O448   O     0.07071   0.85544   0.28213   0.00000  Uiso   1.00
O449   O     0.25491   0.81892   0.27014   0.00000  Uiso   1.00
O450   O     0.13760   0.73610   0.23413   0.00000  Uiso   1.00
O451   O     0.20345   0.92286   0.21361   0.00000  Uiso   1.00
Zn452  Zn    0.19338   0.80661   0.28734   0.00000  Uiso   1.00
Zn453  Zn    0.13379   0.79124   0.21876   0.00000  Uiso   1.00
Zn454  Zn    0.21056   0.86442   0.20657   0.00000  Uiso   1.00
Zn455  Zn    0.12893   0.87106   0.28734   0.00000  Uiso   1.00
C456   C     0.38644   0.82639   0.25939   0.00000  Uiso   1.00
C457   C     0.50523   0.83473   0.06049   0.00000  Uiso   1.00
C458   C     0.55658   0.78698   0.05627   0.00000  Uiso   1.00
C459   C     0.61414   0.84055   0.24018   0.00000  Uiso   1.00
C460   C     0.47173   0.85586   0.41984   0.00000  Uiso   1.00
C461   C     0.65962   0.84532   0.23858   0.00000  Uiso   1.00
C462   C     0.34144   0.82199   0.26291   0.00000  Uiso   1.00
C463   C     0.51541   0.98972   0.23595   0.00000  Uiso   1.00
C464   C     0.48596   0.67830   0.26298   0.00000  Uiso   1.00
C465   C     0.48902   0.72263   0.26062   0.00000  Uiso   1.00
C466   C     0.51032   0.94471   0.23997   0.00000  Uiso   1.00
C467   C     0.41456   0.85565   0.48798   0.00000  Uiso   1.00
C468   C     0.51884   0.81503   0.12946   0.00000  Uiso   1.00
C469   C     0.48245   0.85168   0.37068   0.00000  Uiso   1.00
C470   C     0.57111   0.78925   0.00993   0.00000  Uiso   1.00
C471   C     0.52558   0.81088   0.08135   0.00000  Uiso   1.00
C472   C     0.42963   0.86197   0.44269   0.00000  Uiso   1.00
C473   C     0.55324   0.67732   0.20201   0.00000  Uiso   1.00
C474   C     0.61525   0.82478   0.41839   0.00000  Uiso   1.00
C475   C     0.60334   0.76077   0.48524   0.00000  Uiso   1.00
C476   C     0.48112   0.86900   0.08824   0.00000  Uiso   1.00
C477   C     0.44144   0.84368   0.01096   0.00000  Uiso   1.00
C478   C     0.48525   0.84171   0.49018   0.00000  Uiso   1.00
C479   C     0.50032   0.84734   0.44397   0.00000  Uiso   1.00
C480   C     0.51348   0.83053   0.01333   0.00000  Uiso   1.00
C481   C     0.55181   0.81460   0.48827   0.00000  Uiso   1.00
C482   C     0.56899   0.82611   0.44350   0.00000  Uiso   1.00
C483   C     0.54357   0.84413   0.42298   0.00000  Uiso   1.00
H484   H     0.57130   0.76838   0.07343   0.00000  Uiso   1.00
H485   H     0.63659   0.83822   0.44016   0.00000  Uiso   1.00
H486   H     0.62088   0.79252   0.40572   0.00000  Uiso   1.00
H487   H     0.59268   0.74332   0.45664   0.00000  Uiso   1.00
H488   H     0.63561   0.77856   0.47403   0.00000  Uiso   1.00
H489   H     0.60642   0.73699   0.00695   0.00000  Uiso   1.00
H490   H     0.50091   0.88798   0.10903   0.00000  Uiso   1.00
H491   H     0.47450   0.89158   0.06744   0.00000  Uiso   1.00
H492   H     0.45076   0.85516   0.11066   0.00000  Uiso   1.00
H493   H     0.45849   0.99682   0.28699   0.00000  Uiso   1.00
H494   H     0.40742   0.86870   0.42481   0.00000  Uiso   1.00
H495   H     0.42722   0.83486   0.04476   0.00000  Uiso   1.00
H496   H     0.55777   0.85498   0.38991   0.00000  Uiso   1.00
H497   H     0.57454   0.98815   0.18239   0.00000  Uiso   1.00
H498   H     0.54164   0.69277   0.17816   0.00000  Uiso   1.00
H499   H     0.57269   0.70106   0.21937   0.00000  Uiso   1.00
H500   H     0.62461   0.84373   0.38875   0.00000  Uiso   1.00
I501   I     0.64144   0.76908   0.29914   0.00000  Uiso   1.00
I502   I     0.35007   0.86099   0.02128   0.00000  Uiso   1.00
I503   I     0.36756   0.89132   0.19718   0.00000  Uiso   1.00
O504   O     0.50000   0.83333   0.25000   0.00000  Uiso   1.00
O505   O     0.48784   0.79304   0.15459   0.00000  Uiso   1.00
O506   O     0.46274   0.87058   0.34968   0.00000  Uiso   1.00
O507   O     0.54157   0.84425   0.14606   0.00000  Uiso   1.00
O508   O     0.50785   0.82546   0.34968   0.00000  Uiso   1.00
O509   O     0.51264   0.74686   0.28214   0.00000  Uiso   1.00
O510   O     0.47965   0.92751   0.27014   0.00000  Uiso   1.00
O511   O     0.40745   0.79958   0.23413   0.00000  Uiso   1.00
O512   O     0.60026   0.85939   0.21361   0.00000  Uiso   1.00
O513   O     0.40405   0.85544   0.28213   0.00000  Uiso   1.00
O514   O     0.58824   0.81892   0.27014   0.00000  Uiso   1.00
O515   O     0.47093   0.73610   0.23413   0.00000  Uiso   1.00
O516   O     0.53678   0.92286   0.21361   0.00000  Uiso   1.00
Zn517  Zn    0.52672   0.80661   0.28734   0.00000  Uiso   1.00
Zn518  Zn    0.46713   0.79124   0.21876   0.00000  Uiso   1.00
Zn519  Zn    0.54389   0.86442   0.20657   0.00000  Uiso   1.00
Zn520  Zn    0.46226   0.87106   0.28734   0.00000  Uiso   1.00
C521   C     0.71977   0.82639   0.25939   0.00000  Uiso   1.00
C522   C     0.83856   0.83473   0.06049   0.00000  Uiso   1.00
C523   C     0.88991   0.78698   0.05627   0.00000  Uiso   1.00
C524   C     0.94747   0.84055   0.24018   0.00000  Uiso   1.00
C525   C     0.80507   0.85586   0.41984   0.00000  Uiso   1.00
C526   C     0.99296   0.84532   0.23858   0.00000  Uiso   1.00
C527   C     0.67477   0.82199   0.26291   0.00000  Uiso   1.00
C528   C     0.84875   0.98972   0.23595   0.00000  Uiso   1.00
C529   C     0.81929   0.67830   0.26298   0.00000  Uiso   1.00
C530   C     0.82235   0.72263   0.26062   0.00000  Uiso   1.00
C531   C     0.84365   0.94471   0.23997   0.00000  Uiso   1.00
C532   C     0.74789   0.85565   0.48798   0.00000  Uiso   1.00
C533   C     0.85217   0.81503   0.12946   0.00000  Uiso   1.00
C534   C     0.81578   0.85168   0.37068   0.00000  Uiso   1.00
C535   C     0.90444   0.78925   0.00993   0.00000  Uiso   1.00
C536   C     0.85892   0.81088   0.08135   0.00000  Uiso   1.00
C537   C     0.76297   0.86197   0.44269   0.00000  Uiso   1.00
C538   C     0.88657   0.67732   0.20201   0.00000  Uiso   1.00
C539   C     0.94858   0.82478   0.41839   0.00000  Uiso   1.00
C540   C     0.93667   0.76077   0.48524   0.00000  Uiso   1.00
C541   C     0.81446   0.86900   0.08824   0.00000  Uiso   1.00
C542   C     0.77477   0.84368   0.01096   0.00000  Uiso   1.00
C543   C     0.81858   0.84171   0.49018   0.00000  Uiso   1.00
C544   C     0.83365   0.84734   0.44397   0.00000  Uiso   1.00
C545   C     0.84681   0.83053   0.01333   0.00000  Uiso   1.00
C546   C     0.88514   0.81460   0.48827   0.00000  Uiso   1.00
C547   C     0.90233   0.82611   0.44350   0.00000  Uiso   1.00
C548   C     0.87690   0.84413   0.42298   0.00000  Uiso   1.00
H549   H     0.90463   0.76838   0.07343   0.00000  Uiso   1.00
H550   H     0.96993   0.83822   0.44016   0.00000  Uiso   1.00
H551   H     0.95421   0.79252   0.40572   0.00000  Uiso   1.00
H552   H     0.92602   0.74332   0.45664   0.00000  Uiso   1.00
H553   H     0.96894   0.77856   0.47403   0.00000  Uiso   1.00
H554   H     0.93975   0.73699   0.00695   0.00000  Uiso   1.00
H555   H     0.83424   0.88798   0.10903   0.00000  Uiso   1.00
H556   H     0.80784   0.89158   0.06744   0.00000  Uiso   1.00
H557   H     0.78409   0.85516   0.11066   0.00000  Uiso   1.00
H558   H     0.79183   0.99682   0.28699   0.00000  Uiso   1.00
H559   H     0.74076   0.86870   0.42481   0.00000  Uiso   1.00
H560   H     0.76055   0.83486   0.04476   0.00000  Uiso   1.00
H561   H     0.89111   0.85498   0.38991   0.00000  Uiso   1.00
H562   H     0.90787   0.98815   0.18239   0.00000  Uiso   1.00
H563   H     0.87497   0.69277   0.17816   0.00000  Uiso   1.00
H564   H     0.90602   0.70106   0.21937   0.00000  Uiso   1.00
H565   H     0.95794   0.84373   0.38875   0.00000  Uiso   1.00
I566   I     0.97477   0.76908   0.29914   0.00000  Uiso   1.00
I567   I     0.68340   0.86099   0.02128   0.00000  Uiso   1.00
I568   I     0.70089   0.89132   0.19718   0.00000  Uiso   1.00
O569   O     0.83333   0.83333   0.25000   0.00000  Uiso   1.00
O570   O     0.82118   0.79304   0.15459   0.00000  Uiso   1.00
O571   O     0.79607   0.87058   0.34968   0.00000  Uiso   1.00
O572   O     0.87491   0.84425   0.14606   0.00000  Uiso   1.00
O573   O     0.84118   0.82546   0.34968   0.00000  Uiso   1.00
O574   O     0.84597   0.74686   0.28214   0.00000  Uiso   1.00
O575   O     0.81298   0.92751   0.27014   0.00000  Uiso   1.00
O576   O     0.74078   0.79958   0.23413   0.00000  Uiso   1.00
O577   O     0.93360   0.85939   0.21361   0.00000  Uiso   1.00
O578   O     0.73738   0.85544   0.28213   0.00000  Uiso   1.00
O579   O     0.92158   0.81892   0.27014   0.00000  Uiso   1.00
O580   O     0.80426   0.73610   0.23413   0.00000  Uiso   1.00
O581   O     0.87012   0.92286   0.21361   0.00000  Uiso   1.00
Zn582  Zn    0.86005   0.80661   0.28734   0.00000  Uiso   1.00
Zn583  Zn    0.80046   0.79124   0.21876   0.00000  Uiso   1.00
Zn584  Zn    0.87723   0.86442   0.20657   0.00000  Uiso   1.00
Zn585  Zn    0.79560   0.87106   0.28734   0.00000  Uiso   1.00
C586   C     0.05311   0.15972   0.75939   0.00000  Uiso   1.00
C587   C     0.17189   0.16806   0.56049   0.00000  Uiso   1.00
C588   C     0.22325   0.12031   0.55627   0.00000  Uiso   1.00
C589   C     0.28081   0.17388   0.74018   0.00000  Uiso   1.00
C590   C     0.13840   0.18920   0.91984   0.00000  Uiso   1.00
C591   C     0.32629   0.17865   0.73858   0.00000  Uiso   1.00
C592   C     0.00810   0.15532   0.76291   0.00000  Uiso   1.00
C593   C     0.18208   0.32305   0.73595   0.00000  Uiso   1.00
C594   C     0.15262   0.01163   0.76298   0.00000  Uiso   1.00
C595   C     0.15569   0.05596   0.76062   0.00000  Uiso   1.00
C596   C     0.17698   0.27805   0.73997   0.00000  Uiso   1.00
C597   C     0.08123   0.18898   0.98798   0.00000  Uiso   1.00
C598   C     0.18551   0.14836   0.62946   0.00000  Uiso   1.00
C599   C     0.14911   0.18501   0.87068   0.00000  Uiso   1.00
C600   C     0.23777   0.12258   0.50993   0.00000  Uiso   1.00
C601   C     0.19225   0.14421   0.58135   0.00000  Uiso   1.00
C602   C     0.09630   0.19531   0.94269   0.00000  Uiso   1.00
C603   C     0.21990   0.01066   0.70201   0.00000  Uiso   1.00
C604   C     0.28192   0.15811   0.91839   0.00000  Uiso   1.00
C605   C     0.27001   0.09411   0.98524   0.00000  Uiso   1.00
C606   C     0.14779   0.20233   0.58824   0.00000  Uiso   1.00
C607   C     0.10810   0.17701   0.51096   0.00000  Uiso   1.00
C608   C     0.15192   0.17504   0.99018   0.00000  Uiso   1.00
C609   C     0.16699   0.18067   0.94397   0.00000  Uiso   1.00
C610   C     0.18014   0.16386   0.51333   0.00000  Uiso   1.00
C611   C     0.21847   0.14794   0.98827   0.00000  Uiso   1.00
C612   C     0.23566   0.15944   0.94350   0.00000  Uiso   1.00
C613   C     0.21024   0.17747   0.92298   0.00000  Uiso   1.00
H614   H     0.23797   0.10172   0.57343   0.00000  Uiso   1.00
H615   H     0.30326   0.17155   0.94016   0.00000  Uiso   1.00
H616   H     0.28755   0.12585   0.90572   0.00000  Uiso   1.00
H617   H     0.25935   0.07666   0.95664   0.00000  Uiso   1.00
H618   H     0.30227   0.11190   0.97403   0.00000  Uiso   1.00
H619   H     0.27309   0.07032   0.50695   0.00000  Uiso   1.00
H620   H     0.16758   0.22132   0.60903   0.00000  Uiso   1.00
H621   H     0.14117   0.22492   0.56744   0.00000  Uiso   1.00
H622   H     0.11743   0.18849   0.61066   0.00000  Uiso   1.00
H623   H     0.12516   0.33015   0.78699   0.00000  Uiso   1.00
H624   H     0.07409   0.20203   0.92481   0.00000  Uiso   1.00
H625   H     0.09388   0.16819   0.54476   0.00000  Uiso   1.00
H626   H     0.22444   0.18831   0.88991   0.00000  Uiso   1.00
H627   H     0.24120   0.32149   0.68239   0.00000  Uiso   1.00
H628   H     0.20830   0.02611   0.67816   0.00000  Uiso   1.00
H629   H     0.23935   0.03439   0.71937   0.00000  Uiso   1.00
H630   H     0.29128   0.17707   0.88875   0.00000  Uiso   1.00
I631   I     0.30810   0.10241   0.79914   0.00000  Uiso   1.00
I632   I     0.01674   0.19432   0.52128   0.00000  Uiso   1.00
I633   I     0.03422   0.22466   0.69718   0.00000  Uiso   1.00
O634   O     0.16667   0.16667   0.75000   0.00000  Uiso   1.00
O635   O     0.15451   0.12637   0.65459   0.00000  Uiso   1.00
O636   O     0.12940   0.20391   0.84968   0.00000  Uiso   1.00
O637   O     0.20824   0.17759   0.64606   0.00000  Uiso   1.00
O638   O     0.17451   0.15880   0.84968   0.00000  Uiso   1.00
O639   O     0.17930   0.08019   0.78214   0.00000  Uiso   1.00
O640   O     0.14632   0.26085   0.77014   0.00000  Uiso   1.00
O641   O     0.07412   0.13291   0.73413   0.00000  Uiso   1.00
O642   O     0.26693   0.19272   0.71361   0.00000  Uiso   1.00
O643   O     0.07071   0.18878   0.78213   0.00000  Uiso   1.00
O644   O     0.25491   0.15226   0.77014   0.00000  Uiso   1.00
O645   O     0.13760   0.06944   0.73413   0.00000  Uiso   1.00
O646   O     0.20345   0.25620   0.71361   0.00000  Uiso   1.00
Zn647  Zn    0.19338   0.13994   0.78734   0.00000  Uiso   1.00
Zn648  Zn    0.13379   0.12458   0.71876   0.00000  Uiso   1.00
Zn649  Zn    0.21056   0.19775   0.70657   0.00000  Uiso   1.00
Zn650  Zn    0.12893   0.20439   0.78734   0.00000  Uiso   1.00
C651   C     0.38644   0.15972   0.75939   0.00000  Uiso   1.00
C652   C     0.50523   0.16806   0.56049   0.00000  Uiso   1.00
C653   C     0.55658   0.12031   0.55627   0.00000  Uiso   1.00
C654   C     0.61414   0.17388   0.74018   0.00000  Uiso   1.00
C655   C     0.47173   0.18920   0.91984   0.00000  Uiso   1.00
C656   C     0.65962   0.17865   0.73858   0.00000  Uiso   1.00
C657   C     0.34144   0.15532   0.76291   0.00000  Uiso   1.00
C658   C     0.51541   0.32305   0.73595   0.00000  Uiso   1.00
C659   C     0.48596   0.01163   0.76298   0.00000  Uiso   1.00
C660   C     0.48902   0.05596   0.76062   0.00000  Uiso   1.00
C661   C     0.51032   0.27805   0.73997   0.00000  Uiso   1.00
C662   C     0.41456   0.18898   0.98798   0.00000  Uiso   1.00
C663   C     0.51884   0.14836   0.62946   0.00000  Uiso   1.00
C664   C     0.48245   0.18501   0.87068   0.00000  Uiso   1.00
C665   C     0.57111   0.12258   0.50993   0.00000  Uiso   1.00
C666   C     0.52558   0.14421   0.58135   0.00000  Uiso   1.00
C667   C     0.42963   0.19531   0.94269   0.00000  Uiso   1.00
C668   C     0.55324   0.01066   0.70201   0.00000  Uiso   1.00
C669   C     0.61525   0.15811   0.91839   0.00000  Uiso   1.00
C670   C     0.60334   0.09411   0.98524   0.00000  Uiso   1.00
C671   C     0.48112   0.20233   0.58824   0.00000  Uiso   1.00
C672   C     0.44144   0.17701   0.51096   0.00000  Uiso   1.00
C673   C     0.48525   0.17504   0.99018   0.00000  Uiso   1.00
C674   C     0.50032   0.18067   0.94397   0.00000  Uiso   1.00
C675   C     0.51348   0.16386   0.51333   0.00000  Uiso   1.00
C676   C     0.55181   0.14794   0.98827   0.00000  Uiso   1.00
C677   C     0.56899   0.15944   0.94350   0.00000  Uiso   1.00
C678   C     0.54357   0.17747   0.92298   0.00000  Uiso   1.00
H679   H     0.57130   0.10172   0.57343   0.00000  Uiso   1.00
H680   H     0.63659   0.17155   0.94016   0.00000  Uiso   1.00
H681   H     0.62088   0.12585   0.90572   0.00000  Uiso   1.00
H682   H     0.59268   0.07666   0.95664   0.00000  Uiso   1.00
H683   H     0.63561   0.11190   0.97403   0.00000  Uiso   1.00
H684   H     0.60642   0.07032   0.50695   0.00000  Uiso   1.00
H685   H     0.50091   0.22132   0.60903   0.00000  Uiso   1.00
H686   H     0.47450   0.22492   0.56744   0.00000  Uiso   1.00
H687   H     0.45076   0.18849   0.61066   0.00000  Uiso   1.00
H688   H     0.45849   0.33015   0.78699   0.00000  Uiso   1.00
H689   H     0.40742   0.20203   0.92481   0.00000  Uiso   1.00
H690   H     0.42722   0.16819   0.54476   0.00000  Uiso   1.00
H691   H     0.55777   0.18831   0.88991   0.00000  Uiso   1.00
H692   H     0.57454   0.32149   0.68239   0.00000  Uiso   1.00
H693   H     0.54164   0.02611   0.67816   0.00000  Uiso   1.00
H694   H     0.57269   0.03439   0.71937   0.00000  Uiso   1.00
H695   H     0.62461   0.17707   0.88875   0.00000  Uiso   1.00
I696   I     0.64144   0.10241   0.79914   0.00000  Uiso   1.00
I697   I     0.35007   0.19432   0.52128   0.00000  Uiso   1.00
I698   I     0.36756   0.22466   0.69718   0.00000  Uiso   1.00
O699   O     0.50000   0.16667   0.75000   0.00000  Uiso   1.00
O700   O     0.48784   0.12637   0.65459   0.00000  Uiso   1.00
O701   O     0.46274   0.20391   0.84968   0.00000  Uiso   1.00
O702   O     0.54157   0.17759   0.64606   0.00000  Uiso   1.00
O703   O     0.50785   0.15880   0.84968   0.00000  Uiso   1.00
O704   O     0.51264   0.08019   0.78214   0.00000  Uiso   1.00
O705   O     0.47965   0.26085   0.77014   0.00000  Uiso   1.00
O706   O     0.40745   0.13291   0.73413   0.00000  Uiso   1.00
O707   O     0.60026   0.19272   0.71361   0.00000  Uiso   1.00
O708   O     0.40405   0.18878   0.78213   0.00000  Uiso   1.00
O709   O     0.58824   0.15226   0.77014   0.00000  Uiso   1.00
O710   O     0.47093   0.06944   0.73413   0.00000  Uiso   1.00
O711   O     0.53678   0.25620   0.71361   0.00000  Uiso   1.00
Zn712  Zn    0.52672   0.13994   0.78734   0.00000  Uiso   1.00
Zn713  Zn    0.46713   0.12458   0.71876   0.00000  Uiso   1.00
Zn714  Zn    0.54389   0.19775   0.70657   0.00000  Uiso   1.00
Zn715  Zn    0.46226   0.20439   0.78734   0.00000  Uiso   1.00
C716   C     0.71977   0.15972   0.75939   0.00000  Uiso   1.00
C717   C     0.83856   0.16806   0.56049   0.00000  Uiso   1.00
C718   C     0.88991   0.12031   0.55627   0.00000  Uiso   1.00
C719   C     0.94747   0.17388   0.74018   0.00000  Uiso   1.00
C720   C     0.80507   0.18920   0.91984   0.00000  Uiso   1.00
C721   C     0.99296   0.17865   0.73858   0.00000  Uiso   1.00
C722   C     0.67477   0.15532   0.76291   0.00000  Uiso   1.00
C723   C     0.84875   0.32305   0.73595   0.00000  Uiso   1.00
C724   C     0.81929   0.01163   0.76298   0.00000  Uiso   1.00
C725   C     0.82235   0.05596   0.76062   0.00000  Uiso   1.00
C726   C     0.84365   0.27805   0.73997   0.00000  Uiso   1.00
C727   C     0.74789   0.18898   0.98798   0.00000  Uiso   1.00
C728   C     0.85217   0.14836   0.62946   0.00000  Uiso   1.00
C729   C     0.81578   0.18501   0.87068   0.00000  Uiso   1.00
C730   C     0.90444   0.12258   0.50993   0.00000  Uiso   1.00
C731   C     0.85892   0.14421   0.58135   0.00000  Uiso   1.00
C732   C     0.76297   0.19531   0.94269   0.00000  Uiso   1.00
C733   C     0.88657   0.01066   0.70201   0.00000  Uiso   1.00
C734   C     0.94858   0.15811   0.91839   0.00000  Uiso   1.00
C735   C     0.93667   0.09411   0.98524   0.00000  Uiso   1.00
C736   C     0.81446   0.20233   0.58824   0.00000  Uiso   1.00
C737   C     0.77477   0.17701   0.51096   0.00000  Uiso   1.00
C738   C     0.81858   0.17504   0.99018   0.00000  Uiso   1.00
C739   C     0.83365   0.18067   0.94397   0.00000  Uiso   1.00
C740   C     0.84681   0.16386   0.51333   0.00000  Uiso   1.00
C741   C     0.88514   0.14794   0.98827   0.00000  Uiso   1.00
C742   C     0.90233   0.15944   0.94350   0.00000  Uiso   1.00
C743   C     0.87690   0.17747   0.92298   0.00000  Uiso   1.00
H744   H     0.90463   0.10172   0.57343   0.00000  Uiso   1.00
H745   H     0.96993   0.17155   0.94016   0.00000  Uiso   1.00
H746   H     0.95421   0.12585   0.90572   0.00000  Uiso   1.00
H747   H     0.92602   0.07666   0.95664   0.00000  Uiso   1.00
H748   H     0.96894   0.11190   0.97403   0.00000  Uiso   1.00
H749   H     0.93975   0.07032   0.50695   0.00000  Uiso   1.00
H750   H     0.83424   0.22132   0.60903   0.00000  Uiso   1.00
H751   H     0.80784   0.22492   0.56744   0.00000  Uiso   1.00
H752   H     0.78409   0.18849   0.61066   0.00000  Uiso   1.00
H753   H     0.79183   0.33015   0.78699   0.00000  Uiso   1.00
H754   H     0.74076   0.20203   0.92481   0.00000  Uiso   1.00
H755   H     0.76055   0.16819   0.54476   0.00000  Uiso   1.00
H756   H     0.89111   0.18831   0.88991   0.00000  Uiso   1.00
H757   H     0.90787   0.32149   0.68239   0.00000  Uiso   1.00
H758   H     0.87497   0.02611   0.67816   0.00000  Uiso   1.00
H759   H     0.90602   0.03439   0.71937   0.00000  Uiso   1.00
H760   H     0.95794   0.17707   0.88875   0.00000  Uiso   1.00
I761   I     0.97477   0.10241   0.79914   0.00000  Uiso   1.00
I762   I     0.68340   0.19432   0.52128   0.00000  Uiso   1.00
I763   I     0.70089   0.22466   0.69718   0.00000  Uiso   1.00
O764   O     0.83333   0.16667   0.75000   0.00000  Uiso   1.00
O765   O     0.82118   0.12637   0.65459   0.00000  Uiso   1.00
O766   O     0.79607   0.20391   0.84968   0.00000  Uiso   1.00
O767   O     0.87491   0.17759   0.64606   0.00000  Uiso   1.00
O768   O     0.84118   0.15880   0.84968   0.00000  Uiso   1.00
O769   O     0.84597   0.08019   0.78214   0.00000  Uiso   1.00
O770   O     0.81298   0.26085   0.77014   0.00000  Uiso   1.00
O771   O     0.74078   0.13291   0.73413   0.00000  Uiso   1.00
O772   O     0.93360   0.19272   0.71361   0.00000  Uiso   1.00
O773   O     0.73738   0.18878   0.78213   0.00000  Uiso   1.00
O774   O     0.92158   0.15226   0.77014   0.00000  Uiso   1.00
O775   O     0.80426   0.06944   0.73413   0.00000  Uiso   1.00
O776   O     0.87012   0.25620   0.71361   0.00000  Uiso   1.00
Zn777  Zn    0.86005   0.13994   0.78734   0.00000  Uiso   1.00
Zn778  Zn    0.80046   0.12458   0.71876   0.00000  Uiso   1.00
Zn779  Zn    0.87723   0.19775   0.70657   0.00000  Uiso   1.00
Zn780  Zn    0.79560   0.20439   0.78734   0.00000  Uiso   1.00
C781   C     0.05311   0.49305   0.75939   0.00000  Uiso   1.00
C782   C     0.17189   0.50140   0.56049   0.00000  Uiso   1.00
C783   C     0.22325   0.45364   0.55627   0.00000  Uiso   1.00
C784   C     0.28081   0.50721   0.74018   0.00000  Uiso   1.00
C785   C     0.13840   0.52253   0.91984   0.00000  Uiso   1.00
C786   C     0.32629   0.51199   0.73858   0.00000  Uiso   1.00
C787   C     0.00810   0.48866   0.76291   0.00000  Uiso   1.00
C788   C     0.18208   0.65638   0.73595   0.00000  Uiso   1.00
C789   C     0.15262   0.34496   0.76298   0.00000  Uiso   1.00
C790   C     0.15569   0.38929   0.76062   0.00000  Uiso   1.00
C791   C     0.17698   0.61138   0.73997   0.00000  Uiso   1.00
C792   C     0.08123   0.52231   0.98798   0.00000  Uiso   1.00
C793   C     0.18551   0.48170   0.62946   0.00000  Uiso   1.00
C794   C     0.14911   0.51835   0.87068   0.00000  Uiso   1.00
C795   C     0.23777   0.45591   0.50993   0.00000  Uiso   1.00
C796   C     0.19225   0.47754   0.58135   0.00000  Uiso   1.00
C797   C     0.09630   0.52864   0.94269   0.00000  Uiso   1.00
C798   C     0.21990   0.34399   0.70201   0.00000  Uiso   1.00
C799   C     0.28192   0.49145   0.91839   0.00000  Uiso   1.00
C800   C     0.27001   0.42744   0.98524   0.00000  Uiso   1.00
C801   C     0.14779   0.53566   0.58824   0.00000  Uiso   1.00
C802   C     0.10810   0.51035   0.51096   0.00000  Uiso   1.00
C803   C     0.15192   0.50838   0.99018   0.00000  Uiso   1.00
C804   C     0.16699   0.51401   0.94397   0.00000  Uiso   1.00
C805   C     0.18014   0.49719   0.51333   0.00000  Uiso   1.00
C806   C     0.21847   0.48127   0.98827   0.00000  Uiso   1.00
C807   C     0.23566   0.49277   0.94350   0.00000  Uiso   1.00
C808   C     0.21024   0.51080   0.92298   0.00000  Uiso   1.00
H809   H     0.23797   0.43505   0.57343   0.00000  Uiso   1.00
H810   H     0.30326   0.50488   0.94016   0.00000  Uiso   1.00
H811   H     0.28755   0.45919   0.90572   0.00000  Uiso   1.00
H812   H     0.25935   0.40999   0.95664   0.00000  Uiso   1.00
H813   H     0.30227   0.44523   0.97403   0.00000  Uiso   1.00
H814   H     0.27309   0.40365   0.50695   0.00000  Uiso   1.00
H815   H     0.16758   0.55465   0.60903   0.00000  Uiso   1.00
H816   H     0.14117   0.55825   0.56744   0.00000  Uiso   1.00
H817   H     0.11743   0.52183   0.61066   0.00000  Uiso   1.00
H818   H     0.12516   0.66349   0.78699   0.00000  Uiso   1.00
H819   H     0.07409   0.53537   0.92481   0.00000  Uiso   1.00
H820   H     0.09388   0.50153   0.54476   0.00000  Uiso   1.00
H821   H     0.22444   0.52164   0.88991   0.00000  Uiso   1.00
H822   H     0.24120   0.65482   0.68239   0.00000  Uiso   1.00
H823   H     0.20830   0.35944   0.67816   0.00000  Uiso   1.00
H824   H     0.23935   0.36772   0.71937   0.00000  Uiso   1.00
H825   H     0.29128   0.51040   0.88875   0.00000  Uiso   1.00
I826   I     0.30810   0.43574   0.79914   0.00000  Uiso   1.00
I827   I     0.01674   0.52766   0.52128   0.00000  Uiso   1.00
I828   I     0.03422   0.55799   0.69718   0.00000  Uiso   1.00
O829   O     0.16667   0.50000   0.75000   0.00000  Uiso   1.00
O830   O     0.15451   0.45970   0.65459   0.00000  Uiso   1.00
O831   O     0.12940   0.53724   0.84968   0.00000  Uiso   1.00
O832   O     0.20824   0.51092   0.64606   0.00000  Uiso   1.00
O833   O     0.17451   0.49213   0.84968   0.00000  Uiso   1.00
O834   O     0.17930   0.41352   0.78214   0.00000  Uiso   1.00
O835   O     0.14632   0.59418   0.77014   0.00000  Uiso   1.00
O836   O     0.07412   0.46625   0.73413   0.00000  Uiso   1.00
O837   O     0.26693   0.52605   0.71361   0.00000  Uiso   1.00
O838   O     0.07071   0.52211   0.78213   0.00000  Uiso   1.00
O839   O     0.25491   0.48559   0.77014   0.00000  Uiso   1.00
O840   O     0.13760   0.40277   0.73413   0.00000  Uiso   1.00
O841   O     0.20345   0.58953   0.71361   0.00000  Uiso   1.00
Zn842  Zn    0.19338   0.47327   0.78734   0.00000  Uiso   1.00
Zn843  Zn    0.13379   0.45791   0.71876   0.00000  Uiso   1.00
Zn844  Zn    0.21056   0.53109   0.70657   0.00000  Uiso   1.00
Zn845  Zn    0.12893   0.53773   0.78734   0.00000  Uiso   1.00
C846   C     0.38644   0.49305   0.75939   0.00000  Uiso   1.00
C847   C     0.50523   0.50140   0.56049   0.00000  Uiso   1.00
C848   C     0.55658   0.45364   0.55627   0.00000  Uiso   1.00
C849   C     0.61414   0.50721   0.74018   0.00000  Uiso   1.00
C850   C     0.47173   0.52253   0.91984   0.00000  Uiso   1.00
C851   C     0.65962   0.51199   0.73858   0.00000  Uiso   1.00
C852   C     0.34144   0.48866   0.76291   0.00000  Uiso   1.00
C853   C     0.51541   0.65638   0.73595   0.00000  Uiso   1.00
C854   C     0.48596   0.34496   0.76298   0.00000  Uiso   1.00
C855   C     0.48902   0.38929   0.76062   0.00000  Uiso   1.00
C856   C     0.51032   0.61138   0.73997   0.00000  Uiso   1.00
C857   C     0.41456   0.52231   0.98798   0.00000  Uiso   1.00
C858   C     0.51884   0.48170   0.62946   0.00000  Uiso   1.00
C859   C     0.48245   0.51835   0.87068   0.00000  Uiso   1.00
C860   C     0.57111   0.45591   0.50993   0.00000  Uiso   1.00
C861   C     0.52558   0.47754   0.58135   0.00000  Uiso   1.00
C862   C     0.42963   0.52864   0.94269   0.00000  Uiso   1.00
C863   C     0.55324   0.34399   0.70201   0.00000  Uiso   1.00
C864   C     0.61525   0.49145   0.91839   0.00000  Uiso   1.00
C865   C     0.60334   0.42744   0.98524   0.00000  Uiso   1.00
C866   C     0.48112   0.53566   0.58824   0.00000  Uiso   1.00
C867   C     0.44144   0.51035   0.51096   0.00000  Uiso   1.00
C868   C     0.48525   0.50838   0.99018   0.00000  Uiso   1.00
C869   C     0.50032   0.51401   0.94397   0.00000  Uiso   1.00
C870   C     0.51348   0.49719   0.51333   0.00000  Uiso   1.00
C871   C     0.55181   0.48127   0.98827   0.00000  Uiso   1.00
C872   C     0.56899   0.49277   0.94350   0.00000  Uiso   1.00
C873   C     0.54357   0.51080   0.92298   0.00000  Uiso   1.00
H874   H     0.57130   0.43505   0.57343   0.00000  Uiso   1.00
H875   H     0.63659   0.50488   0.94016   0.00000  Uiso   1.00
H876   H     0.62088   0.45919   0.90572   0.00000  Uiso   1.00
H877   H     0.59268   0.40999   0.95664   0.00000  Uiso   1.00
H878   H     0.63561   0.44523   0.97403   0.00000  Uiso   1.00
H879   H     0.60642   0.40365   0.50695   0.00000  Uiso   1.00
H880   H     0.50091   0.55465   0.60903   0.00000  Uiso   1.00
H881   H     0.47450   0.55825   0.56744   0.00000  Uiso   1.00
H882   H     0.45076   0.52183   0.61066   0.00000  Uiso   1.00
H883   H     0.45849   0.66349   0.78699   0.00000  Uiso   1.00
H884   H     0.40742   0.53537   0.92481   0.00000  Uiso   1.00
H885   H     0.42722   0.50153   0.54476   0.00000  Uiso   1.00
H886   H     0.55777   0.52164   0.88991   0.00000  Uiso   1.00
H887   H     0.57454   0.65482   0.68239   0.00000  Uiso   1.00
H888   H     0.54164   0.35944   0.67816   0.00000  Uiso   1.00
H889   H     0.57269   0.36772   0.71937   0.00000  Uiso   1.00
H890   H     0.62461   0.51040   0.88875   0.00000  Uiso   1.00
I891   I     0.64144   0.43574   0.79914   0.00000  Uiso   1.00
I892   I     0.35007   0.52766   0.52128   0.00000  Uiso   1.00
I893   I     0.36756   0.55799   0.69718   0.00000  Uiso   1.00
O894   O     0.50000   0.50000   0.75000   0.00000  Uiso   1.00
O895   O     0.48784   0.45970   0.65459   0.00000  Uiso   1.00
O896   O     0.46274   0.53724   0.84968   0.00000  Uiso   1.00
O897   O     0.54157   0.51092   0.64606   0.00000  Uiso   1.00
O898   O     0.50785   0.49213   0.84968   0.00000  Uiso   1.00
O899   O     0.51264   0.41352   0.78214   0.00000  Uiso   1.00
O900   O     0.47965   0.59418   0.77014   0.00000  Uiso   1.00
O901   O     0.40745   0.46625   0.73413   0.00000  Uiso   1.00
O902   O     0.60026   0.52605   0.71361   0.00000  Uiso   1.00
O903   O     0.40405   0.52211   0.78213   0.00000  Uiso   1.00
O904   O     0.58824   0.48559   0.77014   0.00000  Uiso   1.00
O905   O     0.47093   0.40277   0.73413   0.00000  Uiso   1.00
O906   O     0.53678   0.58953   0.71361   0.00000  Uiso   1.00
Zn907  Zn    0.52672   0.47327   0.78734   0.00000  Uiso   1.00
Zn908  Zn    0.46713   0.45791   0.71876   0.00000  Uiso   1.00
Zn909  Zn    0.54389   0.53109   0.70657   0.00000  Uiso   1.00
Zn910  Zn    0.46226   0.53773   0.78734   0.00000  Uiso   1.00
C911   C     0.71977   0.49305   0.75939   0.00000  Uiso   1.00
C912   C     0.83856   0.50140   0.56049   0.00000  Uiso   1.00
C913   C     0.88991   0.45364   0.55627   0.00000  Uiso   1.00
C914   C     0.94747   0.50721   0.74018   0.00000  Uiso   1.00
C915   C     0.80507   0.52253   0.91984   0.00000  Uiso   1.00
C916   C     0.99296   0.51199   0.73858   0.00000  Uiso   1.00
C917   C     0.67477   0.48866   0.76291   0.00000  Uiso   1.00
C918   C     0.84875   0.65638   0.73595   0.00000  Uiso   1.00
C919   C     0.81929   0.34496   0.76298   0.00000  Uiso   1.00
C920   C     0.82235   0.38929   0.76062   0.00000  Uiso   1.00
C921   C     0.84365   0.61138   0.73997   0.00000  Uiso   1.00
C922   C     0.74789   0.52231   0.98798   0.00000  Uiso   1.00
C923   C     0.85217   0.48170   0.62946   0.00000  Uiso   1.00
C924   C     0.81578   0.51835   0.87068   0.00000  Uiso   1.00
C925   C     0.90444   0.45591   0.50993   0.00000  Uiso   1.00
C926   C     0.85892   0.47754   0.58135   0.00000  Uiso   1.00
C927   C     0.76297   0.52864   0.94269   0.00000  Uiso   1.00
C928   C     0.88657   0.34399   0.70201   0.00000  Uiso   1.00
C929   C     0.94858   0.49145   0.91839   0.00000  Uiso   1.00
C930   C     0.93667   0.42744   0.98524   0.00000  Uiso   1.00
C931   C     0.81446   0.53566   0.58824   0.00000  Uiso   1.00
C932   C     0.77477   0.51035   0.51096   0.00000  Uiso   1.00
C933   C     0.81858   0.50838   0.99018   0.00000  Uiso   1.00
C934   C     0.83365   0.51401   0.94397   0.00000  Uiso   1.00
C935   C     0.84681   0.49719   0.51333   0.00000  Uiso   1.00
C936   C     0.88514   0.48127   0.98827   0.00000  Uiso   1.00
C937   C     0.90233   0.49277   0.94350   0.00000  Uiso   1.00
C938   C     0.87690   0.51080   0.92298   0.00000  Uiso   1.00
H939   H     0.90463   0.43505   0.57343   0.00000  Uiso   1.00
H940   H     0.96993   0.50488   0.94016   0.00000  Uiso   1.00
H941   H     0.95421   0.45919   0.90572   0.00000  Uiso   1.00
H942   H     0.92602   0.40999   0.95664   0.00000  Uiso   1.00
H943   H     0.96894   0.44523   0.97403   0.00000  Uiso   1.00
H944   H     0.93975   0.40365   0.50695   0.00000  Uiso   1.00
H945   H     0.83424   0.55465   0.60903   0.00000  Uiso   1.00
H946   H     0.80784   0.55825   0.56744   0.00000  Uiso   1.00
H947   H     0.78409   0.52183   0.61066   0.00000  Uiso   1.00
H948   H     0.79183   0.66349   0.78699   0.00000  Uiso   1.00
H949   H     0.74076   0.53537   0.92481   0.00000  Uiso   1.00
H950   H     0.76055   0.50153   0.54476   0.00000  Uiso   1.00
H951   H     0.89111   0.52164   0.88991   0.00000  Uiso   1.00
H952   H     0.90787   0.65482   0.68239   0.00000  Uiso   1.00
H953   H     0.87497   0.35944   0.67816   0.00000  Uiso   1.00
H954   H     0.90602   0.36772   0.71937   0.00000  Uiso   1.00
H955   H     0.95794   0.51040   0.88875   0.00000  Uiso   1.00
I956   I     0.97477   0.43574   0.79914   0.00000  Uiso   1.00
I957   I     0.68340   0.52766   0.52128   0.00000  Uiso   1.00
I958   I     0.70089   0.55799   0.69718   0.00000  Uiso   1.00
O959   O     0.83333   0.50000   0.75000   0.00000  Uiso   1.00
O960   O     0.82118   0.45970   0.65459   0.00000  Uiso   1.00
O961   O     0.79607   0.53724   0.84968   0.00000  Uiso   1.00
O962   O     0.87491   0.51092   0.64606   0.00000  Uiso   1.00
O963   O     0.84118   0.49213   0.84968   0.00000  Uiso   1.00
O964   O     0.84597   0.41352   0.78214   0.00000  Uiso   1.00
O965   O     0.81298   0.59418   0.77014   0.00000  Uiso   1.00
O966   O     0.74078   0.46625   0.73413   0.00000  Uiso   1.00
O967   O     0.93360   0.52605   0.71361   0.00000  Uiso   1.00
O968   O     0.73738   0.52211   0.78213   0.00000  Uiso   1.00
O969   O     0.92158   0.48559   0.77014   0.00000  Uiso   1.00
O970   O     0.80426   0.40277   0.73413   0.00000  Uiso   1.00
O971   O     0.87012   0.58953   0.71361   0.00000  Uiso   1.00
Zn972  Zn    0.86005   0.47327   0.78734   0.00000  Uiso   1.00
Zn973  Zn    0.80046   0.45791   0.71876   0.00000  Uiso   1.00
Zn974  Zn    0.87723   0.53109   0.70657   0.00000  Uiso   1.00
Zn975  Zn    0.79560   0.53773   0.78734   0.00000  Uiso   1.00
C976   C     0.05311   0.82639   0.75939   0.00000  Uiso   1.00
C977   C     0.17189   0.83473   0.56049   0.00000  Uiso   1.00
C978   C     0.22325   0.78698   0.55627   0.00000  Uiso   1.00
C979   C     0.28081   0.84055   0.74018   0.00000  Uiso   1.00
C980   C     0.13840   0.85586   0.91984   0.00000  Uiso   1.00
C981   C     0.32629   0.84532   0.73858   0.00000  Uiso   1.00
C982   C     0.00810   0.82199   0.76291   0.00000  Uiso   1.00
C983   C     0.18208   0.98972   0.73595   0.00000  Uiso   1.00
C984   C     0.15262   0.67830   0.76298   0.00000  Uiso   1.00
C985   C     0.15569   0.72263   0.76062   0.00000  Uiso   1.00
C986   C     0.17698   0.94471   0.73997   0.00000  Uiso   1.00
C987   C     0.08123   0.85565   0.98798   0.00000  Uiso   1.00
C988   C     0.18551   0.81503   0.62946   0.00000  Uiso   1.00
C989   C     0.14911   0.85168   0.87068   0.00000  Uiso   1.00
C990   C     0.23777   0.78925   0.50993   0.00000  Uiso   1.00
C991   C     0.19225   0.81088   0.58135   0.00000  Uiso   1.00
C992   C     0.09630   0.86197   0.94269   0.00000  Uiso   1.00
C993   C     0.21990   0.67732   0.70201   0.00000  Uiso   1.00
C994   C     0.28192   0.82478   0.91839   0.00000  Uiso   1.00
C995   C     0.27001   0.76077   0.98524   0.00000  Uiso   1.00
C996   C     0.14779   0.86900   0.58824   0.00000  Uiso   1.00
C997   C     0.10810   0.84368   0.51096   0.00000  Uiso   1.00
C998   C     0.15192   0.84171   0.99018   0.00000  Uiso   1.00
C999   C     0.16699   0.84734   0.94397   0.00000  Uiso   1.00
C1000  C     0.18014   0.83053   0.51333   0.00000  Uiso   1.00
C1001  C     0.21847   0.81460   0.98827   0.00000  Uiso   1.00
C1002  C     0.23566   0.82611   0.94350   0.00000  Uiso   1.00
C1003  C     0.21024   0.84413   0.92298   0.00000  Uiso   1.00
H1004  H     0.23797   0.76838   0.57343   0.00000  Uiso   1.00
H1005  H     0.30326   0.83822   0.94016   0.00000  Uiso   1.00
H1006  H     0.28755   0.79252   0.90572   0.00000  Uiso   1.00
H1007  H     0.25935   0.74332   0.95664   0.00000  Uiso   1.00
H1008  H     0.30227   0.77856   0.97403   0.00000  Uiso   1.00
H1009  H     0.27309   0.73699   0.50695   0.00000  Uiso   1.00
H1010  H     0.16758   0.88798   0.60903   0.00000  Uiso   1.00
H1011  H     0.14117   0.89158   0.56744   0.00000  Uiso   1.00
H1012  H     0.11743   0.85516   0.61066   0.00000  Uiso   1.00
H1013  H     0.12516   0.99682   0.78699   0.00000  Uiso   1.00
H1014  H     0.07409   0.86870   0.92481   0.00000  Uiso   1.00
H1015  H     0.09388   0.83486   0.54476   0.00000  Uiso   1.00
H1016  H     0.22444   0.85498   0.88991   0.00000  Uiso   1.00
H1017  H     0.24120   0.98815   0.68239   0.00000  Uiso   1.00
H1018  H     0.20830   0.69277   0.67816   0.00000  Uiso   1.00
H1019  H     0.23935   0.70106   0.71937   0.00000  Uiso   1.00
H1020  H     0.29128   0.84373   0.88875   0.00000  Uiso   1.00
I1021  I     0.30810   0.76908   0.79914   0.00000  Uiso   1.00
I1022  I     0.01674   0.86099   0.52128   0.00000  Uiso   1.00
I1023  I     0.03422   0.89132   0.69718   0.00000  Uiso   1.00
O1024  O     0.16667   0.83333   0.75000   0.00000  Uiso   1.00
O1025  O     0.15451   0.79304   0.65459   0.00000  Uiso   1.00
O1026  O     0.12940   0.87058   0.84968   0.00000  Uiso   1.00
O1027  O     0.20824   0.84425   0.64606   0.00000  Uiso   1.00
O1028  O     0.17451   0.82546   0.84968   0.00000  Uiso   1.00
O1029  O     0.17930   0.74686   0.78214   0.00000  Uiso   1.00
O1030  O     0.14632   0.92751   0.77014   0.00000  Uiso   1.00
O1031  O     0.07412   0.79958   0.73413   0.00000  Uiso   1.00
O1032  O     0.26693   0.85939   0.71361   0.00000  Uiso   1.00
O1033  O     0.07071   0.85544   0.78213   0.00000  Uiso   1.00
O1034  O     0.25491   0.81892   0.77014   0.00000  Uiso   1.00
O1035  O     0.13760   0.73610   0.73413   0.00000  Uiso   1.00
O1036  O     0.20345   0.92286   0.71361   0.00000  Uiso   1.00
Zn1037 Zn    0.19338   0.80661   0.78734   0.00000  Uiso   1.00
Zn1038 Zn    0.13379   0.79124   0.71876   0.00000  Uiso   1.00
Zn1039 Zn    0.21056   0.86442   0.70657   0.00000  Uiso   1.00
Zn1040 Zn    0.12893   0.87106   0.78734   0.00000  Uiso   1.00
C1041  C     0.38644   0.82639   0.75939   0.00000  Uiso   1.00
C1042  C     0.50523   0.83473   0.56049   0.00000  Uiso   1.00
C1043  C     0.55658   0.78698   0.55627   0.00000  Uiso   1.00
C1044  C     0.61414   0.84055   0.74018   0.00000  Uiso   1.00
C1045  C     0.47173   0.85586   0.91984   0.00000  Uiso   1.00
C1046  C     0.65962   0.84532   0.73858   0.00000  Uiso   1.00
C1047  C     0.34144   0.82199   0.76291   0.00000  Uiso   1.00
C1048  C     0.51541   0.98972   0.73595   0.00000  Uiso   1.00
C1049  C     0.48596   0.67830   0.76298   0.00000  Uiso   1.00
C1050  C     0.48902   0.72263   0.76062   0.00000  Uiso   1.00
C1051  C     0.51032   0.94471   0.73997   0.00000  Uiso   1.00
C1052  C     0.41456   0.85565   0.98798   0.00000  Uiso   1.00
C1053  C     0.51884   0.81503   0.62946   0.00000  Uiso   1.00
C1054  C     0.48245   0.85168   0.87068   0.00000  Uiso   1.00
C1055  C     0.57111   0.78925   0.50993   0.00000  Uiso   1.00
C1056  C     0.52558   0.81088   0.58135   0.00000  Uiso   1.00
C1057  C     0.42963   0.86197   0.94269   0.00000  Uiso   1.00
C1058  C     0.55324   0.67732   0.70201   0.00000  Uiso   1.00
C1059  C     0.61525   0.82478   0.91839   0.00000  Uiso   1.00
C1060  C     0.60334   0.76077   0.98524   0.00000  Uiso   1.00
C1061  C     0.48112   0.86900   0.58824   0.00000  Uiso   1.00
C1062  C     0.44144   0.84368   0.51096   0.00000  Uiso   1.00
C1063  C     0.48525   0.84171   0.99018   0.00000  Uiso   1.00
C1064  C     0.50032   0.84734   0.94397   0.00000  Uiso   1.00
C1065  C     0.51348   0.83053   0.51333   0.00000  Uiso   1.00
C1066  C     0.55181   0.81460   0.98827   0.00000  Uiso   1.00
C1067  C     0.56899   0.82611   0.94350   0.00000  Uiso   1.00
C1068  C     0.54357   0.84413   0.92298   0.00000  Uiso   1.00
H1069  H     0.57130   0.76838   0.57343   0.00000  Uiso   1.00
H1070  H     0.63659   0.83822   0.94016   0.00000  Uiso   1.00
H1071  H     0.62088   0.79252   0.90572   0.00000  Uiso   1.00
H1072  H     0.59268   0.74332   0.95664   0.00000  Uiso   1.00
H1073  H     0.63561   0.77856   0.97403   0.00000  Uiso   1.00
H1074  H     0.60642   0.73699   0.50695   0.00000  Uiso   1.00
H1075  H     0.50091   0.88798   0.60903   0.00000  Uiso   1.00
H1076  H     0.47450   0.89158   0.56744   0.00000  Uiso   1.00
H1077  H     0.45076   0.85516   0.61066   0.00000  Uiso   1.00
H1078  H     0.45849   0.99682   0.78699   0.00000  Uiso   1.00
H1079  H     0.40742   0.86870   0.92481   0.00000  Uiso   1.00
H1080  H     0.42722   0.83486   0.54476   0.00000  Uiso   1.00
H1081  H     0.55777   0.85498   0.88991   0.00000  Uiso   1.00
H1082  H     0.57454   0.98815   0.68239   0.00000  Uiso   1.00
H1083  H     0.54164   0.69277   0.67816   0.00000  Uiso   1.00
H1084  H     0.57269   0.70106   0.71937   0.00000  Uiso   1.00
H1085  H     0.62461   0.84373   0.88875   0.00000  Uiso   1.00
I1086  I     0.64144   0.76908   0.79914   0.00000  Uiso   1.00
I1087  I     0.35007   0.86099   0.52128   0.00000  Uiso   1.00
I1088  I     0.36756   0.89132   0.69718   0.00000  Uiso   1.00
O1089  O     0.50000   0.83333   0.75000   0.00000  Uiso   1.00
O1090  O     0.48784   0.79304   0.65459   0.00000  Uiso   1.00
O1091  O     0.46274   0.87058   0.84968   0.00000  Uiso   1.00
O1092  O     0.54157   0.84425   0.64606   0.00000  Uiso   1.00
O1093  O     0.50785   0.82546   0.84968   0.00000  Uiso   1.00
O1094  O     0.51264   0.74686   0.78214   0.00000  Uiso   1.00
O1095  O     0.47965   0.92751   0.77014   0.00000  Uiso   1.00
O1096  O     0.40745   0.79958   0.73413   0.00000  Uiso   1.00
O1097  O     0.60026   0.85939   0.71361   0.00000  Uiso   1.00
O1098  O     0.40405   0.85544   0.78213   0.00000  Uiso   1.00
O1099  O     0.58824   0.81892   0.77014   0.00000  Uiso   1.00
O1100  O     0.47093   0.73610   0.73413   0.00000  Uiso   1.00
O1101  O     0.53678   0.92286   0.71361   0.00000  Uiso   1.00
Zn1102 Zn    0.52672   0.80661   0.78734   0.00000  Uiso   1.00
Zn1103 Zn    0.46713   0.79124   0.71876   0.00000  Uiso   1.00
Zn1104 Zn    0.54389   0.86442   0.70657   0.00000  Uiso   1.00
Zn1105 Zn    0.46226   0.87106   0.78734   0.00000  Uiso   1.00
C1106  C     0.71977   0.82639   0.75939   0.00000  Uiso   1.00
C1107  C     0.83856   0.83473   0.56049   0.00000  Uiso   1.00
C1108  C     0.88991   0.78698   0.55627   0.00000  Uiso   1.00
C1109  C     0.94747   0.84055   0.74018   0.00000  Uiso   1.00
C1110  C     0.80507   0.85586   0.91984   0.00000  Uiso   1.00
C1111  C     0.99296   0.84532   0.73858   0.00000  Uiso   1.00
C1112  C     0.67477   0.82199   0.76291   0.00000  Uiso   1.00
C1113  C     0.84875   0.98972   0.73595   0.00000  Uiso   1.00
C1114  C     0.81929   0.67830   0.76298   0.00000  Uiso   1.00
C1115  C     0.82235   0.72263   0.76062   0.00000  Uiso   1.00
C1116  C     0.84365   0.94471   0.73997   0.00000  Uiso   1.00
C1117  C     0.74789   0.85565   0.98798   0.00000  Uiso   1.00
C1118  C     0.85217   0.81503   0.62946   0.00000  Uiso   1.00
C1119  C     0.81578   0.85168   0.87068   0.00000  Uiso   1.00
C1120  C     0.90444   0.78925   0.50993   0.00000  Uiso   1.00
C1121  C     0.85892   0.81088   0.58135   0.00000  Uiso   1.00
C1122  C     0.76297   0.86197   0.94269   0.00000  Uiso   1.00
C1123  C     0.88657   0.67732   0.70201   0.00000  Uiso   1.00
C1124  C     0.94858   0.82478   0.91839   0.00000  Uiso   1.00
C1125  C     0.93667   0.76077   0.98524   0.00000  Uiso   1.00
C1126  C     0.81446   0.86900   0.58824   0.00000  Uiso   1.00
C1127  C     0.77477   0.84368   0.51096   0.00000  Uiso   1.00
C1128  C     0.81858   0.84171   0.99018   0.00000  Uiso   1.00
C1129  C     0.83365   0.84734   0.94397   0.00000  Uiso   1.00
C1130  C     0.84681   0.83053   0.51333   0.00000  Uiso   1.00
C1131  C     0.88514   0.81460   0.98827   0.00000  Uiso   1.00
C1132  C     0.90233   0.82611   0.94350   0.00000  Uiso   1.00
C1133  C     0.87690   0.84413   0.92298   0.00000  Uiso   1.00
H1134  H     0.90463   0.76838   0.57343   0.00000  Uiso   1.00
H1135  H     0.96993   0.83822   0.94016   0.00000  Uiso   1.00
H1136  H     0.95421   0.79252   0.90572   0.00000  Uiso   1.00
H1137  H     0.92602   0.74332   0.95664   0.00000  Uiso   1.00
H1138  H     0.96894   0.77856   0.97403   0.00000  Uiso   1.00
H1139  H     0.93975   0.73699   0.50695   0.00000  Uiso   1.00
H1140  H     0.83424   0.88798   0.60903   0.00000  Uiso   1.00
H1141  H     0.80784   0.89158   0.56744   0.00000  Uiso   1.00
H1142  H     0.78409   0.85516   0.61066   0.00000  Uiso   1.00
H1143  H     0.79183   0.99682   0.78699   0.00000  Uiso   1.00
H1144  H     0.74076   0.86870   0.92481   0.00000  Uiso   1.00
H1145  H     0.76055   0.83486   0.54476   0.00000  Uiso   1.00
H1146  H     0.89111   0.85498   0.88991   0.00000  Uiso   1.00
H1147  H     0.90787   0.98815   0.68239   0.00000  Uiso   1.00
H1148  H     0.87497   0.69277   0.67816   0.00000  Uiso   1.00
H1149  H     0.90602   0.70106   0.71937   0.00000  Uiso   1.00
H1150  H     0.95794   0.84373   0.88875   0.00000  Uiso   1.00
I1151  I     0.97477   0.76908   0.79914   0.00000  Uiso   1.00
I1152  I     0.68340   0.86099   0.52128   0.00000  Uiso   1.00
I1153  I     0.70089   0.89132   0.69718   0.00000  Uiso   1.00
O1154  O     0.83333   0.83333   0.75000   0.00000  Uiso   1.00
O1155  O     0.82118   0.79304   0.65459   0.00000  Uiso   1.00
O1156  O     0.79607   0.87058   0.84968   0.00000  Uiso   1.00
O1157  O     0.87491   0.84425   0.64606   0.00000  Uiso   1.00
O1158  O     0.84118   0.82546   0.84968   0.00000  Uiso   1.00
O1159  O     0.84597   0.74686   0.78214   0.00000  Uiso   1.00
O1160  O     0.81298   0.92751   0.77014   0.00000  Uiso   1.00
O1161  O     0.74078   0.79958   0.73413   0.00000  Uiso   1.00
O1162  O     0.93360   0.85939   0.71361   0.00000  Uiso   1.00
O1163  O     0.73738   0.85544   0.78213   0.00000  Uiso   1.00
O1164  O     0.92158   0.81892   0.77014   0.00000  Uiso   1.00
O1165  O     0.80426   0.73610   0.73413   0.00000  Uiso   1.00
O1166  O     0.87012   0.92286   0.71361   0.00000  Uiso   1.00
Zn1167 Zn    0.86005   0.80661   0.78734   0.00000  Uiso   1.00
Zn1168 Zn    0.80046   0.79124   0.71876   0.00000  Uiso   1.00
Zn1169 Zn    0.87723   0.86442   0.70657   0.00000  Uiso   1.00
Zn1170 Zn    0.79560   0.87106   0.78734   0.00000  Uiso   1.00
loop_
_geom_bond_atom_site_label_1
_geom_bond_atom_site_label_2
_geom_bond_distance
_geom_bond_site_symmetry_2
_ccdc_geom_bond_type
C1     O58     1.277   .     A
C1     O56     1.266   .     A
C1     C7      1.431   .     S
C2     C16     1.400   .     A
C2     C21     1.522   .     S
C2     C25     1.415   .     A
C3     C15     1.398   .     A
C3     H29     1.085   .     S
C3     C16     1.391   .     A
C4     O57     1.287   .     A
C4     O59     1.270   .     A
C4     C6      1.458   .     S
C5     C14     1.471   .     S
C5     C24     1.418   .     A
C5     C17     1.404   .     A
C6     C72     1.353   .     S
C6     I113    2.138   .     S
C7     C136    1.353   1_455 S
C7     I176    2.143   1_455 S
C8     C11     1.462   .     S
C8     C204    1.341   .     S
C8     C213    1.517   .     S
C9     C10     1.438   .     S
C9     C398    1.341   1_545 S
C9     H428    1.086   1_545 S
C10    O60     1.279   .     A
C10    O54     1.280   .     A
C11    O55     1.278   .     A
C11    O61     1.271   .     A
C12    C17     1.389   .     A
C12    C607    1.390   .     S
C12    I632    2.111   .     S
C13    O52     1.266   .     A
C13    C16     1.448   .     S
C13    O50     1.273   .     A
C14    O51     1.285   .     A
C14    O53     1.287   .     A
C15    C605    1.510   1_554 S
C15    C611    1.427   1_554 S
C17    H39     1.083   .     S
C18    H44     1.111   .     S
C18    H43     1.111   .     S
C18    C398    1.517   1_545 S
C18    H432    1.109   1_545 S
C19    H45     1.111   .     S
C19    H31     1.107   .     S
C19    C27     1.511   .     S
C19    H30     1.109   .     S
C20    H33     1.107   .     S
C20    H32     1.110   .     S
C20    C600    1.510   .     S
C20    H619    1.111   .     S
C21    H35     1.110   .     S
C21    H36     1.108   .     S
C21    H37     1.110   .     S
C22    H40     1.079   .     S
C22    C597    1.390   1_554 S
C22    C608    1.414   1_554 S
C23    C24     1.411   .     A
C23    C607    1.414   .     S
C23    C610    1.419   .     S
C24    C28     1.405   .     A
C25    C608    1.419   1_554 S
C25    C611    1.429   1_554 S
C26    C27     1.422   .     A
C26    C610    1.429   .     S
C26    C600    1.427   .     S
C27    C28     1.398   .     A
C28    H41     1.081   .     S
H34    C605    1.111   1_554 S
H38    C204    1.086   .     S
H42    C213    1.109   .     S
I46    C72     2.143   .     S
I47    C597    2.111   1_554 S
I48    C136    2.138   1_455 S
O49    Zn64    1.926   .     S
O49    Zn63    1.947   .     S
O49    Zn65    1.945   .     S
O49    Zn62    1.963   .     S
O50    Zn63    1.933   .     S
O51    Zn65    1.945   .     S
O52    Zn64    1.943   .     S
O53    Zn62    1.935   .     S
O54    Zn62    1.926   .     S
O55    Zn65    1.924   .     S
O56    Zn63    1.935   .     S
O57    Zn64    1.945   .     S
O58    Zn65    1.936   .     S
O59    Zn62    1.927   .     S
O60    Zn63    1.935   .     S
O61    Zn64    1.933   .     S
C66    O123    1.277   .     A
C66    O121    1.266   .     A
C66    C72     1.431   .     S
C67    C81     1.400   .     A
C67    C86     1.522   .     S
C67    C90     1.415   .     A
C68    C80     1.398   .     A
C68    H94     1.085   .     S
C68    C81     1.391   .     A
C69    O122    1.287   .     A
C69    O124    1.270   .     A
C69    C71     1.458   .     S
C70    C79     1.471   .     S
C70    C89     1.418   .     A
C70    C82     1.404   .     A
C71    C137    1.353   .     S
C71    I178    2.138   .     S
C73    C76     1.462   .     S
C73    C269    1.341   .     S
C73    C278    1.517   .     S
C74    C75     1.438   .     S
C74    C463    1.341   1_545 S
C74    H493    1.086   1_545 S
C75    O125    1.279   .     A
C75    O119    1.280   .     A
C76    O120    1.278   .     A
C76    O126    1.271   .     A
C77    C82     1.389   .     A
C77    C672    1.390   .     S
C77    I697    2.111   .     S
C78    O117    1.266   .     A
C78    C81     1.448   .     S
C78    O115    1.273   .     A
C79    O116    1.285   .     A
C79    O118    1.287   .     A
C80    C670    1.510   1_554 S
C80    C676    1.427   1_554 S
C82    H104    1.083   .     S
C83    H109    1.111   .     S
C83    H108    1.111   .     S
C83    C463    1.517   1_545 S
C83    H497    1.109   1_545 S
C84    H110    1.111   .     S
C84    H96     1.107   .     S
C84    C92     1.511   .     S
C84    H95     1.109   .     S
C85    H98     1.107   .     S
C85    H97     1.110   .     S
C85    C665    1.510   .     S
C85    H684    1.111   .     S
C86    H100    1.110   .     S
C86    H101    1.108   .     S
C86    H102    1.110   .     S
C87    H105    1.079   .     S
C87    C662    1.390   1_554 S
C87    C673    1.414   1_554 S
C88    C89     1.411   .     A
C88    C672    1.414   .     S
C88    C675    1.419   .     S
C89    C93     1.405   .     A
C90    C673    1.419   1_554 S
C90    C676    1.429   1_554 S
C91    C92     1.422   .     A
C91    C675    1.429   .     S
C91    C665    1.427   .     S
C92    C93     1.398   .     A
C93    H106    1.081   .     S
H99    C670    1.111   1_554 S
H103   C269    1.086   .     S
H107   C278    1.109   .     S
I111   C137    2.143   .     S
I112   C662    2.111   1_554 S
O114   Zn129   1.926   .     S
O114   Zn128   1.947   .     S
O114   Zn130   1.945   .     S
O114   Zn127   1.963   .     S
O115   Zn128   1.933   .     S
O116   Zn130   1.945   .     S
O117   Zn129   1.943   .     S
O118   Zn127   1.935   .     S
O119   Zn127   1.926   .     S
O120   Zn130   1.924   .     S
O121   Zn128   1.935   .     S
O122   Zn129   1.945   .     S
O123   Zn130   1.936   .     S
O124   Zn127   1.927   .     S
O125   Zn128   1.935   .     S
O126   Zn129   1.933   .     S
C131   O188    1.277   .     A
C131   O186    1.266   .     A
C131   C137    1.431   .     S
C132   C146    1.400   .     A
C132   C151    1.522   .     S
C132   C155    1.415   .     A
C133   C145    1.398   .     A
C133   H159    1.085   .     S
C133   C146    1.391   .     A
C134   O187    1.287   .     A
C134   O189    1.270   .     A
C134   C136    1.458   .     S
C135   C144    1.471   .     S
C135   C154    1.418   .     A
C135   C147    1.404   .     A
C136   C7      1.353   1_655 S
C136   I48     2.138   1_655 S
C138   C141    1.462   .     S
C138   C334    1.341   .     S
C138   C343    1.517   .     S
C139   C140    1.438   .     S
C139   C528    1.341   1_545 S
C139   H558    1.086   1_545 S
C140   O190    1.279   .     A
C140   O184    1.280   .     A
C141   O185    1.278   .     A
C141   O191    1.271   .     A
C142   C147    1.389   .     A
C142   C737    1.390   .     S
C142   I762    2.111   .     S
C143   O182    1.266   .     A
C143   C146    1.448   .     S
C143   O180    1.273   .     A
C144   O181    1.285   .     A
C144   O183    1.287   .     A
C145   C735    1.510   1_554 S
C145   C741    1.427   1_554 S
C147   H169    1.083   .     S
C148   H174    1.111   .     S
C148   H173    1.111   .     S
C148   C528    1.517   1_545 S
C148   H562    1.109   1_545 S
C149   H175    1.111   .     S
C149   H161    1.107   .     S
C149   C157    1.511   .     S
C149   H160    1.109   .     S
C150   H163    1.107   .     S
C150   H162    1.110   .     S
C150   C730    1.510   .     S
C150   H749    1.111   .     S
C151   H165    1.110   .     S
C151   H166    1.108   .     S
C151   H167    1.110   .     S
C152   H170    1.079   .     S
C152   C727    1.390   1_554 S
C152   C738    1.414   1_554 S
C153   C154    1.411   .     A
C153   C737    1.414   .     S
C153   C740    1.419   .     S
C154   C158    1.405   .     A
C155   C738    1.419   1_554 S
C155   C741    1.429   1_554 S
C156   C157    1.422   .     A
C156   C740    1.429   .     S
C156   C730    1.427   .     S
C157   C158    1.398   .     A
C158   H171    1.081   .     S
H164   C735    1.111   1_554 S
H168   C334    1.086   .     S
H172   C343    1.109   .     S
I176   C7      2.143   1_655 S
I177   C727    2.111   1_554 S
O179   Zn194   1.926   .     S
O179   Zn193   1.947   .     S
O179   Zn195   1.945   .     S
O179   Zn192   1.963   .     S
O180   Zn193   1.933   .     S
O181   Zn195   1.945   .     S
O182   Zn194   1.943   .     S
O183   Zn192   1.935   .     S
O184   Zn192   1.926   .     S
O185   Zn195   1.924   .     S
O186   Zn193   1.935   .     S
O187   Zn194   1.945   .     S
O188   Zn195   1.936   .     S
O189   Zn192   1.927   .     S
O190   Zn193   1.935   .     S
O191   Zn194   1.933   .     S
C196   O253    1.277   .     A
C196   O251    1.266   .     A
C196   C202    1.431   .     S
C197   C211    1.400   .     A
C197   C216    1.522   .     S
C197   C220    1.415   .     A
C198   C210    1.398   .     A
C198   H224    1.085   .     S
C198   C211    1.391   .     A
C199   O252    1.287   .     A
C199   O254    1.270   .     A
C199   C201    1.458   .     S
C200   C209    1.471   .     S
C200   C219    1.418   .     A
C200   C212    1.404   .     A
C201   C267    1.353   .     S
C201   I308    2.138   .     S
C202   C331    1.353   1_455 S
C202   I371    2.143   1_455 S
C203   C206    1.462   .     S
C203   C399    1.341   .     S
C203   C408    1.517   .     S
C204   C205    1.438   .     S
C205   O255    1.279   .     A
C205   O249    1.280   .     A
C206   O250    1.278   .     A
C206   O256    1.271   .     A
C207   C212    1.389   .     A
C207   C802    1.390   .     S
C207   I827    2.111   .     S
C208   O247    1.266   .     A
C208   C211    1.448   .     S
C208   O245    1.273   .     A
C209   O246    1.285   .     A
C209   O248    1.287   .     A
C210   C800    1.510   1_554 S
C210   C806    1.427   1_554 S
C212   H234    1.083   .     S
C213   H239    1.111   .     S
C213   H238    1.111   .     S
C214   H240    1.111   .     S
C214   H226    1.107   .     S
C214   C222    1.511   .     S
C214   H225    1.109   .     S
C215   H228    1.107   .     S
C215   H227    1.110   .     S
C215   C795    1.510   .     S
C215   H814    1.111   .     S
C216   H230    1.110   .     S
C216   H231    1.108   .     S
C216   H232    1.110   .     S
C217   H235    1.079   .     S
C217   C792    1.390   1_554 S
C217   C803    1.414   1_554 S
C218   C219    1.411   .     A
C218   C802    1.414   .     S
C218   C805    1.419   .     S
C219   C223    1.405   .     A
C220   C803    1.419   1_554 S
C220   C806    1.429   1_554 S
C221   C222    1.422   .     A
C221   C805    1.429   .     S
C221   C795    1.427   .     S
C222   C223    1.398   .     A
C223   H236    1.081   .     S
H229   C800    1.111   1_554 S
H233   C399    1.086   .     S
H237   C408    1.109   .     S
I241   C267    2.143   .     S
I242   C792    2.111   1_554 S
I243   C331    2.138   1_455 S
O244   Zn259   1.926   .     S
O244   Zn258   1.947   .     S
O244   Zn260   1.945   .     S
O244   Zn257   1.963   .     S
O245   Zn258   1.933   .     S
O246   Zn260   1.945   .     S
O247   Zn259   1.943   .     S
O248   Zn257   1.935   .     S
O249   Zn257   1.926   .     S
O250   Zn260   1.924   .     S
O251   Zn258   1.935   .     S
O252   Zn259   1.945   .     S
O253   Zn260   1.936   .     S
O254   Zn257   1.927   .     S
O255   Zn258   1.935   .     S
O256   Zn259   1.933   .     S
C261   O318    1.277   .     A
C261   O316    1.266   .     A
C261   C267    1.431   .     S
C262   C276    1.400   .     A
C262   C281    1.522   .     S
C262   C285    1.415   .     A
C263   C275    1.398   .     A
C263   H289    1.085   .     S
C263   C276    1.391   .     A
C264   O317    1.287   .     A
C264   O319    1.270   .     A
C264   C266    1.458   .     S
C265   C274    1.471   .     S
C265   C284    1.418   .     A
C265   C277    1.404   .     A
C266   C332    1.353   .     S
C266   I373    2.138   .     S
C268   C271    1.462   .     S
C268   C464    1.341   .     S
C268   C473    1.517   .     S
C269   C270    1.438   .     S
C270   O320    1.279   .     A
C270   O314    1.280   .     A
C271   O315    1.278   .     A
C271   O321    1.271   .     A
C272   C277    1.389   .     A
C272   C867    1.390   .     S
C272   I892    2.111   .     S
C273   O312    1.266   .     A
C273   C276    1.448   .     S
C273   O310    1.273   .     A
C274   O311    1.285   .     A
C274   O313    1.287   .     A
C275   C865    1.510   1_554 S
C275   C871    1.427   1_554 S
C277   H299    1.083   .     S
C278   H304    1.111   .     S
C278   H303    1.111   .     S
C279   H305    1.111   .     S
C279   H291    1.107   .     S
C279   C287    1.511   .     S
C279   H290    1.109   .     S
C280   H293    1.107   .     S
C280   H292    1.110   .     S
C280   C860    1.510   .     S
C280   H879    1.111   .     S
C281   H295    1.110   .     S
C281   H296    1.108   .     S
C281   H297    1.110   .     S
C282   H300    1.079   .     S
C282   C857    1.390   1_554 S
C282   C868    1.414   1_554 S
C283   C284    1.411   .     A
C283   C867    1.414   .     S
C283   C870    1.419   .     S
C284   C288    1.405   .     A
C285   C868    1.419   1_554 S
C285   C871    1.429   1_554 S
C286   C287    1.422   .     A
C286   C870    1.429   .     S
C286   C860    1.427   .     S
C287   C288    1.398   .     A
C288   H301    1.081   .     S
H294   C865    1.111   1_554 S
H298   C464    1.086   .     S
H302   C473    1.109   .     S
I306   C332    2.143   .     S
I307   C857    2.111   1_554 S
O309   Zn324   1.926   .     S
O309   Zn323   1.947   .     S
O309   Zn325   1.945   .     S
O309   Zn322   1.963   .     S
O310   Zn323   1.933   .     S
O311   Zn325   1.945   .     S
O312   Zn324   1.943   .     S
O313   Zn322   1.935   .     S
O314   Zn322   1.926   .     S
O315   Zn325   1.924   .     S
O316   Zn323   1.935   .     S
O317   Zn324   1.945   .     S
O318   Zn325   1.936   .     S
O319   Zn322   1.927   .     S
O320   Zn323   1.935   .     S
O321   Zn324   1.933   .     S
C326   O383    1.277   .     A
C326   O381    1.266   .     A
C326   C332    1.431   .     S
C327   C341    1.400   .     A
C327   C346    1.522   .     S
C327   C350    1.415   .     A
C328   C340    1.398   .     A
C328   H354    1.085   .     S
C328   C341    1.391   .     A
C329   O382    1.287   .     A
C329   O384    1.270   .     A
C329   C331    1.458   .     S
C330   C339    1.471   .     S
C330   C349    1.418   .     A
C330   C342    1.404   .     A
C331   C202    1.353   1_655 S
C331   I243    2.138   1_655 S
C333   C336    1.462   .     S
C333   C529    1.341   .     S
C333   C538    1.517   .     S
C334   C335    1.438   .     S
C335   O385    1.279   .     A
C335   O379    1.280   .     A
C336   O380    1.278   .     A
C336   O386    1.271   .     A
C337   C342    1.389   .     A
C337   C932    1.390   .     S
C337   I957    2.111   .     S
C338   O377    1.266   .     A
C338   C341    1.448   .     S
C338   O375    1.273   .     A
C339   O376    1.285   .     A
C339   O378    1.287   .     A
C340   C930    1.510   1_554 S
C340   C936    1.427   1_554 S
C342   H364    1.083   .     S
C343   H369    1.111   .     S
C343   H368    1.111   .     S
C344   H370    1.111   .     S
C344   H356    1.107   .     S
C344   C352    1.511   .     S
C344   H355    1.109   .     S
C345   H358    1.107   .     S
C345   H357    1.110   .     S
C345   C925    1.510   .     S
C345   H944    1.111   .     S
C346   H360    1.110   .     S
C346   H361    1.108   .     S
C346   H362    1.110   .     S
C347   H365    1.079   .     S
C347   C922    1.390   1_554 S
C347   C933    1.414   1_554 S
C348   C349    1.411   .     A
C348   C932    1.414   .     S
C348   C935    1.419   .     S
C349   C353    1.405   .     A
C350   C933    1.419   1_554 S
C350   C936    1.429   1_554 S
C351   C352    1.422   .     A
C351   C935    1.429   .     S
C351   C925    1.427   .     S
C352   C353    1.398   .     A
C353   H366    1.081   .     S
H359   C930    1.111   1_554 S
H363   C529    1.086   .     S
H367   C538    1.109   .     S
I371   C202    2.143   1_655 S
I372   C922    2.111   1_554 S
O374   Zn389   1.926   .     S
O374   Zn388   1.947   .     S
O374   Zn390   1.945   .     S
O374   Zn387   1.963   .     S
O375   Zn388   1.933   .     S
O376   Zn390   1.945   .     S
O377   Zn389   1.943   .     S
O378   Zn387   1.935   .     S
O379   Zn387   1.926   .     S
O380   Zn390   1.924   .     S
O381   Zn388   1.935   .     S
O382   Zn389   1.945   .     S
O383   Zn390   1.936   .     S
O384   Zn387   1.927   .     S
O385   Zn388   1.935   .     S
O386   Zn389   1.933   .     S
C391   O448    1.277   .     A
C391   O446    1.266   .     A
C391   C397    1.431   .     S
C392   C406    1.400   .     A
C392   C411    1.522   .     S
C392   C415    1.415   .     A
C393   C405    1.398   .     A
C393   H419    1.085   .     S
C393   C406    1.391   .     A
C394   O447    1.287   .     A
C394   O449    1.270   .     A
C394   C396    1.458   .     S
C395   C404    1.471   .     S
C395   C414    1.418   .     A
C395   C407    1.404   .     A
C396   C462    1.353   .     S
C396   I503    2.138   .     S
C397   C526    1.353   1_455 S
C397   I566    2.143   1_455 S
C398   C401    1.462   .     S
C398   C9      1.341   1_565 S
C398   C18     1.517   1_565 S
C399   C400    1.438   .     S
C400   O450    1.279   .     A
C400   O444    1.280   .     A
C401   O445    1.278   .     A
C401   O451    1.271   .     A
C402   C407    1.389   .     A
C402   C997    1.390   .     S
C402   I1022   2.111   .     S
C403   O442    1.266   .     A
C403   C406    1.448   .     S
C403   O440    1.273   .     A
C404   O441    1.285   .     A
C404   O443    1.287   .     A
C405   C995    1.510   1_554 S
C405   C1001   1.427   1_554 S
C407   H429    1.083   .     S
C408   H434    1.111   .     S
C408   H433    1.111   .     S
C409   H435    1.111   .     S
C409   H421    1.107   .     S
C409   C417    1.511   .     S
C409   H420    1.109   .     S
C410   H423    1.107   .     S
C410   H422    1.110   .     S
C410   C990    1.510   .     S
C410   H1009   1.111   .     S
C411   H425    1.110   .     S
C411   H426    1.108   .     S
C411   H427    1.110   .     S
C412   H430    1.079   .     S
C412   C987    1.390   1_554 S
C412   C998    1.414   1_554 S
C413   C414    1.411   .     A
C413   C997    1.414   .     S
C413   C1000   1.419   .     S
C414   C418    1.405   .     A
C415   C998    1.419   1_554 S
C415   C1001   1.429   1_554 S
C416   C417    1.422   .     A
C416   C1000   1.429   .     S
C416   C990    1.427   .     S
C417   C418    1.398   .     A
C418   H431    1.081   .     S
H424   C995    1.111   1_554 S
H428   C9      1.086   1_565 S
H432   C18     1.109   1_565 S
I436   C462    2.143   .     S
I437   C987    2.111   1_554 S
I438   C526    2.138   1_455 S
O439   Zn454   1.926   .     S
O439   Zn453   1.947   .     S
O439   Zn455   1.945   .     S
O439   Zn452   1.963   .     S
O440   Zn453   1.933   .     S
O441   Zn455   1.945   .     S
O442   Zn454   1.943   .     S
O443   Zn452   1.935   .     S
O444   Zn452   1.926   .     S
O445   Zn455   1.924   .     S
O446   Zn453   1.935   .     S
O447   Zn454   1.945   .     S
O448   Zn455   1.936   .     S
O449   Zn452   1.927   .     S
O450   Zn453   1.935   .     S
O451   Zn454   1.933   .     S
C456   O513    1.277   .     A
C456   O511    1.266   .     A
C456   C462    1.431   .     S
C457   C471    1.400   .     A
C457   C476    1.522   .     S
C457   C480    1.415   .     A
C458   C470    1.398   .     A
C458   H484    1.085   .     S
C458   C471    1.391   .     A
C459   O512    1.287   .     A
C459   O514    1.270   .     A
C459   C461    1.458   .     S
C460   C469    1.471   .     S
C460   C479    1.418   .     A
C460   C472    1.404   .     A
C461   C527    1.353   .     S
C461   I568    2.138   .     S
C463   C466    1.462   .     S
C463   C74     1.341   1_565 S
C463   C83     1.517   1_565 S
C464   C465    1.438   .     S
C465   O515    1.279   .     A
C465   O509    1.280   .     A
C466   O510    1.278   .     A
C466   O516    1.271   .     A
C467   C472    1.389   .     A
C467   C1062   1.390   .     S
C467   I1087   2.111   .     S
C468   O507    1.266   .     A
C468   C471    1.448   .     S
C468   O505    1.273   .     A
C469   O506    1.285   .     A
C469   O508    1.287   .     A
C470   C1060   1.510   1_554 S
C470   C1066   1.427   1_554 S
C472   H494    1.083   .     S
C473   H499    1.111   .     S
C473   H498    1.111   .     S
C474   H500    1.111   .     S
C474   H486    1.107   .     S
C474   C482    1.511   .     S
C474   H485    1.109   .     S
C475   H488    1.107   .     S
C475   H487    1.110   .     S
C475   C1055   1.510   .     S
C475   H1074   1.111   .     S
C476   H490    1.110   .     S
C476   H491    1.108   .     S
C476   H492    1.110   .     S
C477   H495    1.079   .     S
C477   C1052   1.390   1_554 S
C477   C1063   1.414   1_554 S
C478   C479    1.411   .     A
C478   C1062   1.414   .     S
C478   C1065   1.419   .     S
C479   C483    1.405   .     A
C480   C1063   1.419   1_554 S
C480   C1066   1.429   1_554 S
C481   C482    1.422   .     A
C481   C1065   1.429   .     S
C481   C1055   1.427   .     S
C482   C483    1.398   .     A
C483   H496    1.081   .     S
H489   C1060   1.111   1_554 S
H493   C74     1.086   1_565 S
H497   C83     1.109   1_565 S
I501   C527    2.143   .     S
I502   C1052   2.111   1_554 S
O504   Zn519   1.926   .     S
O504   Zn518   1.947   .     S
O504   Zn520   1.945   .     S
O504   Zn517   1.963   .     S
O505   Zn518   1.933   .     S
O506   Zn520   1.945   .     S
O507   Zn519   1.943   .     S
O508   Zn517   1.935   .     S
O509   Zn517   1.926   .     S
O510   Zn520   1.924   .     S
O511   Zn518   1.935   .     S
O512   Zn519   1.945   .     S
O513   Zn520   1.936   .     S
O514   Zn517   1.927   .     S
O515   Zn518   1.935   .     S
O516   Zn519   1.933   .     S
C521   O578    1.277   .     A
C521   O576    1.266   .     A
C521   C527    1.431   .     S
C522   C536    1.400   .     A
C522   C541    1.522   .     S
C522   C545    1.415   .     A
C523   C535    1.398   .     A
C523   H549    1.085   .     S
C523   C536    1.391   .     A
C524   O577    1.287   .     A
C524   O579    1.270   .     A
C524   C526    1.458   .     S
C525   C534    1.471   .     S
C525   C544    1.418   .     A
C525   C537    1.404   .     A
C526   C397    1.353   1_655 S
C526   I438    2.138   1_655 S
C528   C531    1.462   .     S
C528   C139    1.341   1_565 S
C528   C148    1.517   1_565 S
C529   C530    1.438   .     S
C530   O580    1.279   .     A
C530   O574    1.280   .     A
C531   O575    1.278   .     A
C531   O581    1.271   .     A
C532   C537    1.389   .     A
C532   C1127   1.390   .     S
C532   I1152   2.111   .     S
C533   O572    1.266   .     A
C533   C536    1.448   .     S
C533   O570    1.273   .     A
C534   O571    1.285   .     A
C534   O573    1.287   .     A
C535   C1125   1.510   1_554 S
C535   C1131   1.427   1_554 S
C537   H559    1.083   .     S
C538   H564    1.111   .     S
C538   H563    1.111   .     S
C539   H565    1.111   .     S
C539   H551    1.107   .     S
C539   C547    1.511   .     S
C539   H550    1.109   .     S
C540   H553    1.107   .     S
C540   H552    1.110   .     S
C540   C1120   1.510   .     S
C540   H1139   1.111   .     S
C541   H555    1.110   .     S
C541   H556    1.108   .     S
C541   H557    1.110   .     S
C542   H560    1.079   .     S
C542   C1117   1.390   1_554 S
C542   C1128   1.414   1_554 S
C543   C544    1.411   .     A
C543   C1127   1.414   .     S
C543   C1130   1.419   .     S
C544   C548    1.405   .     A
C545   C1128   1.419   1_554 S
C545   C1131   1.429   1_554 S
C546   C547    1.422   .     A
C546   C1130   1.429   .     S
C546   C1120   1.427   .     S
C547   C548    1.398   .     A
C548   H561    1.081   .     S
H554   C1125   1.111   1_554 S
H558   C139    1.086   1_565 S
H562   C148    1.109   1_565 S
I566   C397    2.143   1_655 S
I567   C1117   2.111   1_554 S
O569   Zn584   1.926   .     S
O569   Zn583   1.947   .     S
O569   Zn585   1.945   .     S
O569   Zn582   1.963   .     S
O570   Zn583   1.933   .     S
O571   Zn585   1.945   .     S
O572   Zn584   1.943   .     S
O573   Zn582   1.935   .     S
O574   Zn582   1.926   .     S
O575   Zn585   1.924   .     S
O576   Zn583   1.935   .     S
O577   Zn584   1.945   .     S
O578   Zn585   1.936   .     S
O579   Zn582   1.927   .     S
O580   Zn583   1.935   .     S
O581   Zn584   1.933   .     S
C586   O643    1.277   .     A
C586   O641    1.266   .     A
C586   C592    1.431   .     S
C587   C601    1.400   .     A
C587   C606    1.522   .     S
C587   C610    1.415   .     A
C588   C600    1.398   .     A
C588   H614    1.085   .     S
C588   C601    1.391   .     A
C589   O642    1.287   .     A
C589   O644    1.270   .     A
C589   C591    1.458   .     S
C590   C599    1.471   .     S
C590   C609    1.418   .     A
C590   C602    1.404   .     A
C591   C657    1.353   .     S
C591   I698    2.138   .     S
C592   C721    1.353   1_455 S
C592   I761    2.143   1_455 S
C593   C596    1.462   .     S
C593   C789    1.341   .     S
C593   C798    1.517   .     S
C594   C595    1.438   .     S
C594   C983    1.341   1_545 S
C594   H1013   1.086   1_545 S
C595   O645    1.279   .     A
C595   O639    1.280   .     A
C596   O640    1.278   .     A
C596   O646    1.271   .     A
C597   C602    1.389   .     A
C597   C22     1.390   1_556 S
C597   I47     2.111   1_556 S
C598   O637    1.266   .     A
C598   C601    1.448   .     S
C598   O635    1.273   .     A
C599   O636    1.285   .     A
C599   O638    1.287   .     A
C602   H624    1.083   .     S
C603   H629    1.111   .     S
C603   H628    1.111   .     S
C603   C983    1.517   1_545 S
C603   H1017   1.109   1_545 S
C604   H630    1.111   .     S
C604   H616    1.107   .     S
C604   C612    1.511   .     S
C604   H615    1.109   .     S
C605   H618    1.107   .     S
C605   H617    1.110   .     S
C605   C15     1.510   1_556 S
C605   H34     1.111   1_556 S
C606   H620    1.110   .     S
C606   H621    1.108   .     S
C606   H622    1.110   .     S
C607   H625    1.079   .     S
C608   C609    1.411   .     A
C608   C22     1.414   1_556 S
C608   C25     1.419   1_556 S
C609   C613    1.405   .     A
C611   C612    1.422   .     A
C611   C25     1.429   1_556 S
C611   C15     1.427   1_556 S
C612   C613    1.398   .     A
C613   H626    1.081   .     S
H623   C789    1.086   .     S
H627   C798    1.109   .     S
I631   C657    2.143   .     S
I633   C721    2.138   1_455 S
O634   Zn649   1.926   .     S
O634   Zn648   1.947   .     S
O634   Zn650   1.945   .     S
O634   Zn647   1.963   .     S
O635   Zn648   1.933   .     S
O636   Zn650   1.945   .     S
O637   Zn649   1.943   .     S
O638   Zn647   1.935   .     S
O639   Zn647   1.926   .     S
O640   Zn650   1.924   .     S
O641   Zn648   1.935   .     S
O642   Zn649   1.945   .     S
O643   Zn650   1.936   .     S
O644   Zn647   1.927   .     S
O645   Zn648   1.935   .     S
O646   Zn649   1.933   .     S
C651   O708    1.277   .     A
C651   O706    1.266   .     A
C651   C657    1.431   .     S
C652   C666    1.400   .     A
C652   C671    1.522   .     S
C652   C675    1.415   .     A
C653   C665    1.398   .     A
C653   H679    1.085   .     S
C653   C666    1.391   .     A
C654   O707    1.287   .     A
C654   O709    1.270   .     A
C654   C656    1.458   .     S
C655   C664    1.471   .     S
C655   C674    1.418   .     A
C655   C667    1.404   .     A
C656   C722    1.353   .     S
C656   I763    2.138   .     S
C658   C661    1.462   .     S
C658   C854    1.341   .     S
C658   C863    1.517   .     S
C659   C660    1.438   .     S
C659   C1048   1.341   1_545 S
C659   H1078   1.086   1_545 S
C660   O710    1.279   .     A
C660   O704    1.280   .     A
C661   O705    1.278   .     A
C661   O711    1.271   .     A
C662   C667    1.389   .     A
C662   C87     1.390   1_556 S
C662   I112    2.111   1_556 S
C663   O702    1.266   .     A
C663   C666    1.448   .     S
C663   O700    1.273   .     A
C664   O701    1.285   .     A
C664   O703    1.287   .     A
C667   H689    1.083   .     S
C668   H694    1.111   .     S
C668   H693    1.111   .     S
C668   C1048   1.517   1_545 S
C668   H1082   1.109   1_545 S
C669   H695    1.111   .     S
C669   H681    1.107   .     S
C669   C677    1.511   .     S
C669   H680    1.109   .     S
C670   H683    1.107   .     S
C670   H682    1.110   .     S
C670   C80     1.510   1_556 S
C670   H99     1.111   1_556 S
C671   H685    1.110   .     S
C671   H686    1.108   .     S
C671   H687    1.110   .     S
C672   H690    1.079   .     S
C673   C674    1.411   .     A
C673   C87     1.414   1_556 S
C673   C90     1.419   1_556 S
C674   C678    1.405   .     A
C676   C677    1.422   .     A
C676   C90     1.429   1_556 S
C676   C80     1.427   1_556 S
C677   C678    1.398   .     A
C678   H691    1.081   .     S
H688   C854    1.086   .     S
H692   C863    1.109   .     S
I696   C722    2.143   .     S
O699   Zn714   1.926   .     S
O699   Zn713   1.947   .     S
O699   Zn715   1.945   .     S
O699   Zn712   1.963   .     S
O700   Zn713   1.933   .     S
O701   Zn715   1.945   .     S
O702   Zn714   1.943   .     S
O703   Zn712   1.935   .     S
O704   Zn712   1.926   .     S
O705   Zn715   1.924   .     S
O706   Zn713   1.935   .     S
O707   Zn714   1.945   .     S
O708   Zn715   1.936   .     S
O709   Zn712   1.927   .     S
O710   Zn713   1.935   .     S
O711   Zn714   1.933   .     S
C716   O773    1.277   .     A
C716   O771    1.266   .     A
C716   C722    1.431   .     S
C717   C731    1.400   .     A
C717   C736    1.522   .     S
C717   C740    1.415   .     A
C718   C730    1.398   .     A
C718   H744    1.085   .     S
C718   C731    1.391   .     A
C719   O772    1.287   .     A
C719   O774    1.270   .     A
C719   C721    1.458   .     S
C720   C729    1.471   .     S
C720   C739    1.418   .     A
C720   C732    1.404   .     A
C721   C592    1.353   1_655 S
C721   I633    2.138   1_655 S
C723   C726    1.462   .     S
C723   C919    1.341   .     S
C723   C928    1.517   .     S
C724   C725    1.438   .     S
C724   C1113   1.341   1_545 S
C724   H1143   1.086   1_545 S
C725   O775    1.279   .     A
C725   O769    1.280   .     A
C726   O770    1.278   .     A
C726   O776    1.271   .     A
C727   C732    1.389   .     A
C727   C152    1.390   1_556 S
C727   I177    2.111   1_556 S
C728   O767    1.266   .     A
C728   C731    1.448   .     S
C728   O765    1.273   .     A
C729   O766    1.285   .     A
C729   O768    1.287   .     A
C732   H754    1.083   .     S
C733   H759    1.111   .     S
C733   H758    1.111   .     S
C733   C1113   1.517   1_545 S
C733   H1147   1.109   1_545 S
C734   H760    1.111   .     S
C734   H746    1.107   .     S
C734   C742    1.511   .     S
C734   H745    1.109   .     S
C735   H748    1.107   .     S
C735   H747    1.110   .     S
C735   C145    1.510   1_556 S
C735   H164    1.111   1_556 S
C736   H750    1.110   .     S
C736   H751    1.108   .     S
C736   H752    1.110   .     S
C737   H755    1.079   .     S
C738   C739    1.411   .     A
C738   C152    1.414   1_556 S
C738   C155    1.419   1_556 S
C739   C743    1.405   .     A
C741   C742    1.422   .     A
C741   C155    1.429   1_556 S
C741   C145    1.427   1_556 S
C742   C743    1.398   .     A
C743   H756    1.081   .     S
H753   C919    1.086   .     S
H757   C928    1.109   .     S
I761   C592    2.143   1_655 S
O764   Zn779   1.926   .     S
O764   Zn778   1.947   .     S
O764   Zn780   1.945   .     S
O764   Zn777   1.963   .     S
O765   Zn778   1.933   .     S
O766   Zn780   1.945   .     S
O767   Zn779   1.943   .     S
O768   Zn777   1.935   .     S
O769   Zn777   1.926   .     S
O770   Zn780   1.924   .     S
O771   Zn778   1.935   .     S
O772   Zn779   1.945   .     S
O773   Zn780   1.936   .     S
O774   Zn777   1.927   .     S
O775   Zn778   1.935   .     S
O776   Zn779   1.933   .     S
C781   O838    1.277   .     A
C781   O836    1.266   .     A
C781   C787    1.431   .     S
C782   C796    1.400   .     A
C782   C801    1.522   .     S
C782   C805    1.415   .     A
C783   C795    1.398   .     A
C783   H809    1.085   .     S
C783   C796    1.391   .     A
C784   O837    1.287   .     A
C784   O839    1.270   .     A
C784   C786    1.458   .     S
C785   C794    1.471   .     S
C785   C804    1.418   .     A
C785   C797    1.404   .     A
C786   C852    1.353   .     S
C786   I893    2.138   .     S
C787   C916    1.353   1_455 S
C787   I956    2.143   1_455 S
C788   C791    1.462   .     S
C788   C984    1.341   .     S
C788   C993    1.517   .     S
C789   C790    1.438   .     S
C790   O840    1.279   .     A
C790   O834    1.280   .     A
C791   O835    1.278   .     A
C791   O841    1.271   .     A
C792   C797    1.389   .     A
C792   C217    1.390   1_556 S
C792   I242    2.111   1_556 S
C793   O832    1.266   .     A
C793   C796    1.448   .     S
C793   O830    1.273   .     A
C794   O831    1.285   .     A
C794   O833    1.287   .     A
C797   H819    1.083   .     S
C798   H824    1.111   .     S
C798   H823    1.111   .     S
C799   H825    1.111   .     S
C799   H811    1.107   .     S
C799   C807    1.511   .     S
C799   H810    1.109   .     S
C800   H813    1.107   .     S
C800   H812    1.110   .     S
C800   C210    1.510   1_556 S
C800   H229    1.111   1_556 S
C801   H815    1.110   .     S
C801   H816    1.108   .     S
C801   H817    1.110   .     S
C802   H820    1.079   .     S
C803   C804    1.411   .     A
C803   C217    1.414   1_556 S
C803   C220    1.419   1_556 S
C804   C808    1.405   .     A
C806   C807    1.422   .     A
C806   C220    1.429   1_556 S
C806   C210    1.427   1_556 S
C807   C808    1.398   .     A
C808   H821    1.081   .     S
H818   C984    1.086   .     S
H822   C993    1.109   .     S
I826   C852    2.143   .     S
I828   C916    2.138   1_455 S
O829   Zn844   1.926   .     S
O829   Zn843   1.947   .     S
O829   Zn845   1.945   .     S
O829   Zn842   1.963   .     S
O830   Zn843   1.933   .     S
O831   Zn845   1.945   .     S
O832   Zn844   1.943   .     S
O833   Zn842   1.935   .     S
O834   Zn842   1.926   .     S
O835   Zn845   1.924   .     S
O836   Zn843   1.935   .     S
O837   Zn844   1.945   .     S
O838   Zn845   1.936   .     S
O839   Zn842   1.927   .     S
O840   Zn843   1.935   .     S
O841   Zn844   1.933   .     S
C846   O903    1.277   .     A
C846   O901    1.266   .     A
C846   C852    1.431   .     S
C847   C861    1.400   .     A
C847   C866    1.522   .     S
C847   C870    1.415   .     A
C848   C860    1.398   .     A
C848   H874    1.085   .     S
C848   C861    1.391   .     A
C849   O902    1.287   .     A
C849   O904    1.270   .     A
C849   C851    1.458   .     S
C850   C859    1.471   .     S
C850   C869    1.418   .     A
C850   C862    1.404   .     A
C851   C917    1.353   .     S
C851   I958    2.138   .     S
C853   C856    1.462   .     S
C853   C1049   1.341   .     S
C853   C1058   1.517   .     S
C854   C855    1.438   .     S
C855   O905    1.279   .     A
C855   O899    1.280   .     A
C856   O900    1.278   .     A
C856   O906    1.271   .     A
C857   C862    1.389   .     A
C857   C282    1.390   1_556 S
C857   I307    2.111   1_556 S
C858   O897    1.266   .     A
C858   C861    1.448   .     S
C858   O895    1.273   .     A
C859   O896    1.285   .     A
C859   O898    1.287   .     A
C862   H884    1.083   .     S
C863   H889    1.111   .     S
C863   H888    1.111   .     S
C864   H890    1.111   .     S
C864   H876    1.107   .     S
C864   C872    1.511   .     S
C864   H875    1.109   .     S
C865   H878    1.107   .     S
C865   H877    1.110   .     S
C865   C275    1.510   1_556 S
C865   H294    1.111   1_556 S
C866   H880    1.110   .     S
C866   H881    1.108   .     S
C866   H882    1.110   .     S
C867   H885    1.079   .     S
C868   C869    1.411   .     A
C868   C282    1.414   1_556 S
C868   C285    1.419   1_556 S
C869   C873    1.405   .     A
C871   C872    1.422   .     A
C871   C285    1.429   1_556 S
C871   C275    1.427   1_556 S
C872   C873    1.398   .     A
C873   H886    1.081   .     S
H883   C1049   1.086   .     S
H887   C1058   1.109   .     S
I891   C917    2.143   .     S
O894   Zn909   1.926   .     S
O894   Zn908   1.947   .     S
O894   Zn910   1.945   .     S
O894   Zn907   1.963   .     S
O895   Zn908   1.933   .     S
O896   Zn910   1.945   .     S
O897   Zn909   1.943   .     S
O898   Zn907   1.935   .     S
O899   Zn907   1.926   .     S
O900   Zn910   1.924   .     S
O901   Zn908   1.935   .     S
O902   Zn909   1.945   .     S
O903   Zn910   1.936   .     S
O904   Zn907   1.927   .     S
O905   Zn908   1.935   .     S
O906   Zn909   1.933   .     S
C911   O968    1.277   .     A
C911   O966    1.266   .     A
C911   C917    1.431   .     S
C912   C926    1.400   .     A
C912   C931    1.522   .     S
C912   C935    1.415   .     A
C913   C925    1.398   .     A
C913   H939    1.085   .     S
C913   C926    1.391   .     A
C914   O967    1.287   .     A
C914   O969    1.270   .     A
C914   C916    1.458   .     S
C915   C924    1.471   .     S
C915   C934    1.418   .     A
C915   C927    1.404   .     A
C916   C787    1.353   1_655 S
C916   I828    2.138   1_655 S
C918   C921    1.462   .     S
C918   C1114   1.341   .     S
C918   C1123   1.517   .     S
C919   C920    1.438   .     S
C920   O970    1.279   .     A
C920   O964    1.280   .     A
C921   O965    1.278   .     A
C921   O971    1.271   .     A
C922   C927    1.389   .     A
C922   C347    1.390   1_556 S
C922   I372    2.111   1_556 S
C923   O962    1.266   .     A
C923   C926    1.448   .     S
C923   O960    1.273   .     A
C924   O961    1.285   .     A
C924   O963    1.287   .     A
C927   H949    1.083   .     S
C928   H954    1.111   .     S
C928   H953    1.111   .     S
C929   H955    1.111   .     S
C929   H941    1.107   .     S
C929   C937    1.511   .     S
C929   H940    1.109   .     S
C930   H943    1.107   .     S
C930   H942    1.110   .     S
C930   C340    1.510   1_556 S
C930   H359    1.111   1_556 S
C931   H945    1.110   .     S
C931   H946    1.108   .     S
C931   H947    1.110   .     S
C932   H950    1.079   .     S
C933   C934    1.411   .     A
C933   C347    1.414   1_556 S
C933   C350    1.419   1_556 S
C934   C938    1.405   .     A
C936   C937    1.422   .     A
C936   C350    1.429   1_556 S
C936   C340    1.427   1_556 S
C937   C938    1.398   .     A
C938   H951    1.081   .     S
H948   C1114   1.086   .     S
H952   C1123   1.109   .     S
I956   C787    2.143   1_655 S
O959   Zn974   1.926   .     S
O959   Zn973   1.947   .     S
O959   Zn975   1.945   .     S
O959   Zn972   1.963   .     S
O960   Zn973   1.933   .     S
O961   Zn975   1.945   .     S
O962   Zn974   1.943   .     S
O963   Zn972   1.935   .     S
O964   Zn972   1.926   .     S
O965   Zn975   1.924   .     S
O966   Zn973   1.935   .     S
O967   Zn974   1.945   .     S
O968   Zn975   1.936   .     S
O969   Zn972   1.927   .     S
O970   Zn973   1.935   .     S
O971   Zn974   1.933   .     S
C976   O1033   1.277   .     A
C976   O1031   1.266   .     A
C976   C982    1.431   .     S
C977   C991    1.400   .     A
C977   C996    1.522   .     S
C977   C1000   1.415   .     A
C978   C990    1.398   .     A
C978   H1004   1.085   .     S
C978   C991    1.391   .     A
C979   O1032   1.287   .     A
C979   O1034   1.270   .     A
C979   C981    1.458   .     S
C980   C989    1.471   .     S
C980   C999    1.418   .     A
C980   C992    1.404   .     A
C981   C1047   1.353   .     S
C981   I1088   2.138   .     S
C982   C1111   1.353   1_455 S
C982   I1151   2.143   1_455 S
C983   C986    1.462   .     S
C983   C594    1.341   1_565 S
C983   C603    1.517   1_565 S
C984   C985    1.438   .     S
C985   O1035   1.279   .     A
C985   O1029   1.280   .     A
C986   O1030   1.278   .     A
C986   O1036   1.271   .     A
C987   C992    1.389   .     A
C987   C412    1.390   1_556 S
C987   I437    2.111   1_556 S
C988   O1027   1.266   .     A
C988   C991    1.448   .     S
C988   O1025   1.273   .     A
C989   O1026   1.285   .     A
C989   O1028   1.287   .     A
C992   H1014   1.083   .     S
C993   H1019   1.111   .     S
C993   H1018   1.111   .     S
C994   H1020   1.111   .     S
C994   H1006   1.107   .     S
C994   C1002   1.511   .     S
C994   H1005   1.109   .     S
C995   H1008   1.107   .     S
C995   H1007   1.110   .     S
C995   C405    1.510   1_556 S
C995   H424    1.111   1_556 S
C996   H1010   1.110   .     S
C996   H1011   1.108   .     S
C996   H1012   1.110   .     S
C997   H1015   1.079   .     S
C998   C999    1.411   .     A
C998   C412    1.414   1_556 S
C998   C415    1.419   1_556 S
C999   C1003   1.405   .     A
C1001  C1002   1.422   .     A
C1001  C415    1.429   1_556 S
C1001  C405    1.427   1_556 S
C1002  C1003   1.398   .     A
C1003  H1016   1.081   .     S
H1013  C594    1.086   1_565 S
H1017  C603    1.109   1_565 S
I1021  C1047   2.143   .     S
I1023  C1111   2.138   1_455 S
O1024  Zn1039  1.926   .     S
O1024  Zn1038  1.947   .     S
O1024  Zn1040  1.945   .     S
O1024  Zn1037  1.963   .     S
O1025  Zn1038  1.933   .     S
O1026  Zn1040  1.945   .     S
O1027  Zn1039  1.943   .     S
O1028  Zn1037  1.935   .     S
O1029  Zn1037  1.926   .     S
O1030  Zn1040  1.924   .     S
O1031  Zn1038  1.935   .     S
O1032  Zn1039  1.945   .     S
O1033  Zn1040  1.936   .     S
O1034  Zn1037  1.927   .     S
O1035  Zn1038  1.935   .     S
O1036  Zn1039  1.933   .     S
C1041  O1098   1.277   .     A
C1041  O1096   1.266   .     A
C1041  C1047   1.431   .     S
C1042  C1056   1.400   .     A
C1042  C1061   1.522   .     S
C1042  C1065   1.415   .     A
C1043  C1055   1.398   .     A
C1043  H1069   1.085   .     S
C1043  C1056   1.391   .     A
C1044  O1097   1.287   .     A
C1044  O1099   1.270   .     A
C1044  C1046   1.458   .     S
C1045  C1054   1.471   .     S
C1045  C1064   1.418   .     A
C1045  C1057   1.404   .     A
C1046  C1112   1.353   .     S
C1046  I1153   2.138   .     S
C1048  C1051   1.462   .     S
C1048  C659    1.341   1_565 S
C1048  C668    1.517   1_565 S
C1049  C1050   1.438   .     S
C1050  O1100   1.279   .     A
C1050  O1094   1.280   .     A
C1051  O1095   1.278   .     A
C1051  O1101   1.271   .     A
C1052  C1057   1.389   .     A
C1052  C477    1.390   1_556 S
C1052  I502    2.111   1_556 S
C1053  O1092   1.266   .     A
C1053  C1056   1.448   .     S
C1053  O1090   1.273   .     A
C1054  O1091   1.285   .     A
C1054  O1093   1.287   .     A
C1057  H1079   1.083   .     S
C1058  H1084   1.111   .     S
C1058  H1083   1.111   .     S
C1059  H1085   1.111   .     S
C1059  H1071   1.107   .     S
C1059  C1067   1.511   .     S
C1059  H1070   1.109   .     S
C1060  H1073   1.107   .     S
C1060  H1072   1.110   .     S
C1060  C470    1.510   1_556 S
C1060  H489    1.111   1_556 S
C1061  H1075   1.110   .     S
C1061  H1076   1.108   .     S
C1061  H1077   1.110   .     S
C1062  H1080   1.079   .     S
C1063  C1064   1.411   .     A
C1063  C477    1.414   1_556 S
C1063  C480    1.419   1_556 S
C1064  C1068   1.405   .     A
C1066  C1067   1.422   .     A
C1066  C480    1.429   1_556 S
C1066  C470    1.427   1_556 S
C1067  C1068   1.398   .     A
C1068  H1081   1.081   .     S
H1078  C659    1.086   1_565 S
H1082  C668    1.109   1_565 S
I1086  C1112   2.143   .     S
O1089  Zn1104  1.926   .     S
O1089  Zn1103  1.947   .     S
O1089  Zn1105  1.945   .     S
O1089  Zn1102  1.963   .     S
O1090  Zn1103  1.933   .     S
O1091  Zn1105  1.945   .     S
O1092  Zn1104  1.943   .     S
O1093  Zn1102  1.935   .     S
O1094  Zn1102  1.926   .     S
O1095  Zn1105  1.924   .     S
O1096  Zn1103  1.935   .     S
O1097  Zn1104  1.945   .     S
O1098  Zn1105  1.936   .     S
O1099  Zn1102  1.927   .     S
O1100  Zn1103  1.935   .     S
O1101  Zn1104  1.933   .     S
C1106  O1163   1.277   .     A
C1106  O1161   1.266   .     A
C1106  C1112   1.431   .     S
C1107  C1121   1.400   .     A
C1107  C1126   1.522   .     S
C1107  C1130   1.415   .     A
C1108  C1120   1.398   .     A
C1108  H1134   1.085   .     S
C1108  C1121   1.391   .     A
C1109  O1162   1.287   .     A
C1109  O1164   1.270   .     A
C1109  C1111   1.458   .     S
C1110  C1119   1.471   .     S
C1110  C1129   1.418   .     A
C1110  C1122   1.404   .     A
C1111  C982    1.353   1_655 S
C1111  I1023   2.138   1_655 S
C1113  C1116   1.462   .     S
C1113  C724    1.341   1_565 S
C1113  C733    1.517   1_565 S
C1114  C1115   1.438   .     S
C1115  O1165   1.279   .     A
C1115  O1159   1.280   .     A
C1116  O1160   1.278   .     A
C1116  O1166   1.271   .     A
C1117  C1122   1.389   .     A
C1117  C542    1.390   1_556 S
C1117  I567    2.111   1_556 S
C1118  O1157   1.266   .     A
C1118  C1121   1.448   .     S
C1118  O1155   1.273   .     A
C1119  O1156   1.285   .     A
C1119  O1158   1.287   .     A
C1122  H1144   1.083   .     S
C1123  H1149   1.111   .     S
C1123  H1148   1.111   .     S
C1124  H1150   1.111   .     S
C1124  H1136   1.107   .     S
C1124  C1132   1.511   .     S
C1124  H1135   1.109   .     S
C1125  H1138   1.107   .     S
C1125  H1137   1.110   .     S
C1125  C535    1.510   1_556 S
C1125  H554    1.111   1_556 S
C1126  H1140   1.110   .     S
C1126  H1141   1.108   .     S
C1126  H1142   1.110   .     S
C1127  H1145   1.079   .     S
C1128  C1129   1.411   .     A
C1128  C542    1.414   1_556 S
C1128  C545    1.419   1_556 S
C1129  C1133   1.405   .     A
C1131  C1132   1.422   .     A
C1131  C545    1.429   1_556 S
C1131  C535    1.427   1_556 S
C1132  C1133   1.398   .     A
C1133  H1146   1.081   .     S
H1143  C724    1.086   1_565 S
H1147  C733    1.109   1_565 S
I1151  C982    2.143   1_655 S
O1154  Zn1169  1.926   .     S
O1154  Zn1168  1.947   .     S
O1154  Zn1170  1.945   .     S
O1154  Zn1167  1.963   .     S
O1155  Zn1168  1.933   .     S
O1156  Zn1170  1.945   .     S
O1157  Zn1169  1.943   .     S
O1158  Zn1167  1.935   .     S
O1159  Zn1167  1.926   .     S
O1160  Zn1170  1.924   .     S
O1161  Zn1168  1.935   .     S
O1162  Zn1169  1.945   .     S
O1163  Zn1170  1.936   .     S
O1164  Zn1167  1.927   .     S
O1165  Zn1168  1.935   .     S
O1166  Zn1169  1.933   .     S
