data_str_m2_o1_o17_pcu_sym.205
_audit_creation_date              2020-01-03
_audit_creation_method            'Materials Studio'
_symmetry_space_group_name_H-M    'P1'
_symmetry_Int_Tables_number       1
_symmetry_cell_setting            triclinic
loop_
_symmetry_equiv_pos_as_xyz
  x,y,z
_cell_length_a                    32.7232
_cell_length_b                    28.9990
_cell_length_c                    29.9428
_cell_angle_alpha                 89.0868
_cell_angle_beta                  91.2689
_cell_angle_gamma                 88.8047
loop_
_atom_site_label
_atom_site_type_symbol
_atom_site_fract_x
_atom_site_fract_y
_atom_site_fract_z
_atom_site_U_iso_or_equiv
_atom_site_adp_type
_atom_site_occupancy
O1     O     0.10655   0.20625   0.25000   0.00000  Uiso   1.00
O2     O     0.22679   0.12709   0.25000   0.00000  Uiso   1.00
O3     O     0.22679   0.20625   0.25000   0.00000  Uiso   1.00
O4     O     0.10655   0.12709   0.25000   0.00000  Uiso   1.00
C5     C     0.08756   0.16721   0.25029   0.00000  Uiso   1.00
C6     C     0.24581   0.16641   0.25011   0.00000  Uiso   1.00
O7     O     0.16666   0.20627   0.18513   0.00000  Uiso   1.00
O8     O     0.16668   0.12707   0.31487   0.00000  Uiso   1.00
O9     O     0.16668   0.20627   0.31487   0.00000  Uiso   1.00
O10    O     0.16666   0.12707   0.18513   0.00000  Uiso   1.00
C11    C     0.16717   0.16676   0.16455   0.00000  Uiso   1.00
C12    C     0.16475   0.16635   0.33530   0.00000  Uiso   1.00
Cu13   Cu    0.16667   0.21355   0.25000   0.00000  Uiso   1.00
Cu14   Cu    0.16667   0.11978   0.25000   0.00000  Uiso   1.00
C15    C     0.19200   0.13974   0.40745   0.00000  Uiso   1.00
C16    C     0.13412   0.18732   0.09272   0.00000  Uiso   1.00
C17    C     0.16192   0.16485   0.38358   0.00000  Uiso   1.00
C18    C     0.16671   0.16587   0.11608   0.00000  Uiso   1.00
C19    C     0.12821   0.18485   0.40519   0.00000  Uiso   1.00
C20    C     0.19581   0.13862   0.09378   0.00000  Uiso   1.00
C21    C     0.12597   0.18080   0.45250   0.00000  Uiso   1.00
C22    C     0.19184   0.13285   0.04719   0.00000  Uiso   1.00
C23    C     0.15895   0.15837   0.47645   0.00000  Uiso   1.00
C24    C     0.16050   0.15817   0.02342   0.00000  Uiso   1.00
C25    C     0.19046   0.13575   0.45353   0.00000  Uiso   1.00
C26    C     0.13065   0.18336   0.04654   0.00000  Uiso   1.00
C27    C     0.09259   0.19862   0.47708   0.00000  Uiso   1.00
C28    C     0.21857   0.10358   0.02321   0.00000  Uiso   1.00
C29    C     0.09660   0.20229   0.02350   0.00000  Uiso   1.00
C30    C     0.21928   0.10782   0.47672   0.00000  Uiso   1.00
H31    H     0.21683   0.12325   0.38985   0.00000  Uiso   1.00
H32    H     0.11085   0.20604   0.11078   0.00000  Uiso   1.00
H33    H     0.07197   0.21802   0.04198   0.00000  Uiso   1.00
H34    H     0.24109   0.08734   0.45832   0.00000  Uiso   1.00
C35    C     0.02271   0.13049   0.27040   0.00000  Uiso   1.00
C36    C     0.31080   0.20552   0.23270   0.00000  Uiso   1.00
C37    C     0.31354   0.12928   0.26891   0.00000  Uiso   1.00
C38    C     0.02007   0.20620   0.23350   0.00000  Uiso   1.00
C39    C     0.29056   0.16654   0.24978   0.00000  Uiso   1.00
C40    C     0.04292   0.16837   0.25183   0.00000  Uiso   1.00
C41    C     0.15096   0.02573   0.21442   0.00000  Uiso   1.00
C42    C     0.18299   0.30752   0.28533   0.00000  Uiso   1.00
C43    C     0.18084   0.02322   0.28636   0.00000  Uiso   1.00
C44    C     0.15249   0.31005   0.21365   0.00000  Uiso   1.00
N45    N     0.16667   0.28402   0.25000   0.00000  Uiso   1.00
N46    N     0.16667   0.04931   0.25000   0.00000  Uiso   1.00
O47    O     0.09628   0.20384   0.37936   0.00000  Uiso   1.00
C48    C     0.09875   0.25240   0.37839   0.00000  Uiso   1.00
H49    H     0.12301   0.26310   0.35552   0.00000  Uiso   1.00
H50    H     0.10527   0.26667   0.41212   0.00000  Uiso   1.00
C51    C     0.05822   0.27297   0.36028   0.00000  Uiso   1.00
H52    H     0.05357   0.26268   0.32499   0.00000  Uiso   1.00
H53    H     0.03247   0.25948   0.37976   0.00000  Uiso   1.00
C54    C     0.05764   0.32539   0.36289   0.00000  Uiso   1.00
H55    H     0.06138   0.00296   0.39811   0.00000  Uiso   1.00
H56    H     0.02788   0.00597   0.34955   0.00000  Uiso   1.00
H57    H     0.08276   0.00633   0.34292   0.00000  Uiso   1.00
O58    O     0.22841   0.11841   0.11764   0.00000  Uiso   1.00
C59    C     0.25984   0.15071   0.12399   0.00000  Uiso   1.00
H60    H     0.26662   0.15197   0.16033   0.00000  Uiso   1.00
H61    H     0.25171   0.18660   0.11229   0.00000  Uiso   1.00
C62    C     0.29854   0.13457   0.10051   0.00000  Uiso   1.00
H63    H     0.30544   0.09784   0.10945   0.00000  Uiso   1.00
H64    H     0.29348   0.13776   0.06380   0.00000  Uiso   1.00
C65    C     0.00196   0.16332   0.11353   0.00000  Uiso   1.00
H66    H     0.32898   0.20032   0.10539   0.00000  Uiso   1.00
H67    H     0.02906   0.15165   0.09473   0.00000  Uiso   1.00
H68    H     0.00907   0.15902   0.14978   0.00000  Uiso   1.00
N69    N     0.05361   0.21008   0.45650   0.00000  Uiso   1.00
O70    O     0.03517   0.17955   0.43235   0.00000  Uiso   1.00
O71    O     0.03270   0.24569   0.47000   0.00000  Uiso   1.00
N72    N     0.24238   0.06693   0.04463   0.00000  Uiso   1.00
O73    O     0.22535   0.03991   0.07359   0.00000  Uiso   1.00
O74    O     0.27730   0.05414   0.02832   0.00000  Uiso   1.00
N75    N     0.04510   0.09291   0.29169   0.00000  Uiso   1.00
O76    O     0.06684   0.09970   0.32782   0.00000  Uiso   1.00
O77    O     0.04438   0.05210   0.27432   0.00000  Uiso   1.00
N78    N     0.28863   0.24508   0.21437   0.00000  Uiso   1.00
O79    O     0.26635   0.24160   0.17814   0.00000  Uiso   1.00
O80    O     0.29415   0.28562   0.23121   0.00000  Uiso   1.00
N81    N     0.29426   0.09155   0.29068   0.00000  Uiso   1.00
O82    O     0.28241   0.05682   0.26703   0.00000  Uiso   1.00
O83    O     0.29985   0.08593   0.33360   0.00000  Uiso   1.00
N84    N     0.03948   0.24426   0.21226   0.00000  Uiso   1.00
O85    O     0.05327   0.27752   0.23665   0.00000  Uiso   1.00
O86    O     0.03230   0.25205   0.16988   0.00000  Uiso   1.00
N87    N     0.13069   0.05000   0.17803   0.00000  Uiso   1.00
O88    O     0.09352   0.06560   0.18269   0.00000  Uiso   1.00
O89    O     0.14579   0.04851   0.13822   0.00000  Uiso   1.00
N90    N     0.20590   0.28330   0.32004   0.00000  Uiso   1.00
O91    O     0.24278   0.26865   0.31210   0.00000  Uiso   1.00
O92    O     0.19485   0.28628   0.36139   0.00000  Uiso   1.00
N93    N     0.19025   0.04428   0.32789   0.00000  Uiso   1.00
O94    O     0.16168   0.04664   0.35739   0.00000  Uiso   1.00
O95    O     0.22807   0.04542   0.34171   0.00000  Uiso   1.00
N96    N     0.14306   0.28896   0.17211   0.00000  Uiso   1.00
O97    O     0.10529   0.28836   0.15801   0.00000  Uiso   1.00
O98    O     0.17176   0.28601   0.14280   0.00000  Uiso   1.00
O99    O     0.43988   0.20625   0.25000   0.00000  Uiso   1.00
O100   O     0.56012   0.12709   0.25000   0.00000  Uiso   1.00
O101   O     0.56012   0.20625   0.25000   0.00000  Uiso   1.00
O102   O     0.43988   0.12709   0.25000   0.00000  Uiso   1.00
C103   C     0.42090   0.16721   0.25029   0.00000  Uiso   1.00
C104   C     0.57915   0.16641   0.25011   0.00000  Uiso   1.00
O105   O     0.49999   0.20627   0.18513   0.00000  Uiso   1.00
O106   O     0.50001   0.12707   0.31487   0.00000  Uiso   1.00
O107   O     0.50001   0.20627   0.31487   0.00000  Uiso   1.00
O108   O     0.49999   0.12707   0.18513   0.00000  Uiso   1.00
C109   C     0.50050   0.16676   0.16455   0.00000  Uiso   1.00
C110   C     0.49808   0.16635   0.33530   0.00000  Uiso   1.00
Cu111  Cu    0.50000   0.21355   0.25000   0.00000  Uiso   1.00
Cu112  Cu    0.50000   0.11978   0.25000   0.00000  Uiso   1.00
C113   C     0.52533   0.13974   0.40745   0.00000  Uiso   1.00
C114   C     0.46745   0.18732   0.09272   0.00000  Uiso   1.00
C115   C     0.49525   0.16485   0.38358   0.00000  Uiso   1.00
C116   C     0.50004   0.16587   0.11608   0.00000  Uiso   1.00
C117   C     0.46155   0.18485   0.40519   0.00000  Uiso   1.00
C118   C     0.52914   0.13862   0.09378   0.00000  Uiso   1.00
C119   C     0.45930   0.18080   0.45250   0.00000  Uiso   1.00
C120   C     0.52517   0.13285   0.04719   0.00000  Uiso   1.00
C121   C     0.49228   0.15837   0.47645   0.00000  Uiso   1.00
C122   C     0.49384   0.15817   0.02342   0.00000  Uiso   1.00
C123   C     0.52380   0.13575   0.45353   0.00000  Uiso   1.00
C124   C     0.46399   0.18336   0.04654   0.00000  Uiso   1.00
C125   C     0.42593   0.19862   0.47708   0.00000  Uiso   1.00
C126   C     0.55191   0.10358   0.02321   0.00000  Uiso   1.00
C127   C     0.42993   0.20229   0.02350   0.00000  Uiso   1.00
C128   C     0.55261   0.10782   0.47672   0.00000  Uiso   1.00
H129   H     0.55016   0.12325   0.38985   0.00000  Uiso   1.00
H130   H     0.44418   0.20604   0.11078   0.00000  Uiso   1.00
H131   H     0.40530   0.21802   0.04198   0.00000  Uiso   1.00
H132   H     0.57442   0.08734   0.45832   0.00000  Uiso   1.00
C133   C     0.35604   0.13049   0.27040   0.00000  Uiso   1.00
C134   C     0.64414   0.20552   0.23270   0.00000  Uiso   1.00
C135   C     0.64687   0.12928   0.26891   0.00000  Uiso   1.00
C136   C     0.35340   0.20620   0.23350   0.00000  Uiso   1.00
C137   C     0.62389   0.16654   0.24978   0.00000  Uiso   1.00
C138   C     0.37626   0.16837   0.25183   0.00000  Uiso   1.00
C139   C     0.48429   0.02573   0.21442   0.00000  Uiso   1.00
C140   C     0.51632   0.30752   0.28533   0.00000  Uiso   1.00
C141   C     0.51418   0.02322   0.28636   0.00000  Uiso   1.00
C142   C     0.48582   0.31005   0.21365   0.00000  Uiso   1.00
N143   N     0.50000   0.28402   0.25000   0.00000  Uiso   1.00
N144   N     0.50000   0.04931   0.25000   0.00000  Uiso   1.00
O145   O     0.42961   0.20384   0.37936   0.00000  Uiso   1.00
C146   C     0.43208   0.25240   0.37839   0.00000  Uiso   1.00
H147   H     0.45634   0.26310   0.35552   0.00000  Uiso   1.00
H148   H     0.43860   0.26667   0.41212   0.00000  Uiso   1.00
C149   C     0.39155   0.27297   0.36028   0.00000  Uiso   1.00
H150   H     0.38691   0.26268   0.32499   0.00000  Uiso   1.00
H151   H     0.36580   0.25948   0.37976   0.00000  Uiso   1.00
C152   C     0.39097   0.32539   0.36289   0.00000  Uiso   1.00
H153   H     0.39471   0.00296   0.39811   0.00000  Uiso   1.00
H154   H     0.36121   0.00597   0.34955   0.00000  Uiso   1.00
H155   H     0.41609   0.00633   0.34292   0.00000  Uiso   1.00
O156   O     0.56175   0.11841   0.11764   0.00000  Uiso   1.00
C157   C     0.59317   0.15071   0.12399   0.00000  Uiso   1.00
H158   H     0.59996   0.15197   0.16033   0.00000  Uiso   1.00
H159   H     0.58504   0.18660   0.11229   0.00000  Uiso   1.00
C160   C     0.63187   0.13457   0.10051   0.00000  Uiso   1.00
H161   H     0.63878   0.09784   0.10945   0.00000  Uiso   1.00
H162   H     0.62682   0.13776   0.06380   0.00000  Uiso   1.00
C163   C     0.33529   0.16332   0.11353   0.00000  Uiso   1.00
H164   H     0.66232   0.20032   0.10539   0.00000  Uiso   1.00
H165   H     0.36239   0.15165   0.09473   0.00000  Uiso   1.00
H166   H     0.34240   0.15902   0.14978   0.00000  Uiso   1.00
N167   N     0.38695   0.21008   0.45650   0.00000  Uiso   1.00
O168   O     0.36851   0.17955   0.43235   0.00000  Uiso   1.00
O169   O     0.36603   0.24569   0.47000   0.00000  Uiso   1.00
N170   N     0.57571   0.06693   0.04463   0.00000  Uiso   1.00
O171   O     0.55869   0.03991   0.07359   0.00000  Uiso   1.00
O172   O     0.61063   0.05414   0.02832   0.00000  Uiso   1.00
N173   N     0.37844   0.09291   0.29169   0.00000  Uiso   1.00
O174   O     0.40017   0.09970   0.32782   0.00000  Uiso   1.00
O175   O     0.37771   0.05210   0.27432   0.00000  Uiso   1.00
N176   N     0.62197   0.24508   0.21437   0.00000  Uiso   1.00
O177   O     0.59968   0.24160   0.17814   0.00000  Uiso   1.00
O178   O     0.62748   0.28562   0.23121   0.00000  Uiso   1.00
N179   N     0.62760   0.09155   0.29068   0.00000  Uiso   1.00
O180   O     0.61575   0.05682   0.26703   0.00000  Uiso   1.00
O181   O     0.63319   0.08593   0.33360   0.00000  Uiso   1.00
N182   N     0.37281   0.24426   0.21226   0.00000  Uiso   1.00
O183   O     0.38661   0.27752   0.23665   0.00000  Uiso   1.00
O184   O     0.36563   0.25205   0.16988   0.00000  Uiso   1.00
N185   N     0.46403   0.05000   0.17803   0.00000  Uiso   1.00
O186   O     0.42685   0.06560   0.18269   0.00000  Uiso   1.00
O187   O     0.47913   0.04851   0.13822   0.00000  Uiso   1.00
N188   N     0.53923   0.28330   0.32004   0.00000  Uiso   1.00
O189   O     0.57612   0.26865   0.31210   0.00000  Uiso   1.00
O190   O     0.52819   0.28628   0.36139   0.00000  Uiso   1.00
N191   N     0.52358   0.04428   0.32789   0.00000  Uiso   1.00
O192   O     0.49501   0.04664   0.35739   0.00000  Uiso   1.00
O193   O     0.56141   0.04542   0.34171   0.00000  Uiso   1.00
N194   N     0.47639   0.28896   0.17211   0.00000  Uiso   1.00
O195   O     0.43862   0.28836   0.15801   0.00000  Uiso   1.00
O196   O     0.50510   0.28601   0.14280   0.00000  Uiso   1.00
O197   O     0.77321   0.20625   0.25000   0.00000  Uiso   1.00
O198   O     0.89345   0.12709   0.25000   0.00000  Uiso   1.00
O199   O     0.89345   0.20625   0.25000   0.00000  Uiso   1.00
O200   O     0.77321   0.12709   0.25000   0.00000  Uiso   1.00
C201   C     0.75423   0.16721   0.25029   0.00000  Uiso   1.00
C202   C     0.91248   0.16641   0.25011   0.00000  Uiso   1.00
O203   O     0.83332   0.20627   0.18513   0.00000  Uiso   1.00
O204   O     0.83334   0.12707   0.31487   0.00000  Uiso   1.00
O205   O     0.83334   0.20627   0.31487   0.00000  Uiso   1.00
O206   O     0.83332   0.12707   0.18513   0.00000  Uiso   1.00
C207   C     0.83384   0.16676   0.16455   0.00000  Uiso   1.00
C208   C     0.83141   0.16635   0.33530   0.00000  Uiso   1.00
Cu209  Cu    0.83333   0.21355   0.25000   0.00000  Uiso   1.00
Cu210  Cu    0.83333   0.11978   0.25000   0.00000  Uiso   1.00
C211   C     0.85866   0.13974   0.40745   0.00000  Uiso   1.00
C212   C     0.80078   0.18732   0.09272   0.00000  Uiso   1.00
C213   C     0.82859   0.16485   0.38358   0.00000  Uiso   1.00
C214   C     0.83337   0.16587   0.11608   0.00000  Uiso   1.00
C215   C     0.79488   0.18485   0.40519   0.00000  Uiso   1.00
C216   C     0.86247   0.13862   0.09378   0.00000  Uiso   1.00
C217   C     0.79264   0.18080   0.45250   0.00000  Uiso   1.00
C218   C     0.85850   0.13285   0.04719   0.00000  Uiso   1.00
C219   C     0.82562   0.15837   0.47645   0.00000  Uiso   1.00
C220   C     0.82717   0.15817   0.02342   0.00000  Uiso   1.00
C221   C     0.85713   0.13575   0.45353   0.00000  Uiso   1.00
C222   C     0.79732   0.18336   0.04654   0.00000  Uiso   1.00
C223   C     0.75926   0.19862   0.47708   0.00000  Uiso   1.00
C224   C     0.88524   0.10358   0.02321   0.00000  Uiso   1.00
C225   C     0.76326   0.20229   0.02350   0.00000  Uiso   1.00
C226   C     0.88594   0.10782   0.47672   0.00000  Uiso   1.00
H227   H     0.88349   0.12325   0.38985   0.00000  Uiso   1.00
H228   H     0.77752   0.20604   0.11078   0.00000  Uiso   1.00
H229   H     0.73863   0.21802   0.04198   0.00000  Uiso   1.00
H230   H     0.90775   0.08734   0.45832   0.00000  Uiso   1.00
C231   C     0.68938   0.13049   0.27040   0.00000  Uiso   1.00
C232   C     0.97747   0.20552   0.23270   0.00000  Uiso   1.00
C233   C     0.98021   0.12928   0.26891   0.00000  Uiso   1.00
C234   C     0.68674   0.20620   0.23350   0.00000  Uiso   1.00
C235   C     0.95722   0.16654   0.24978   0.00000  Uiso   1.00
C236   C     0.70959   0.16837   0.25183   0.00000  Uiso   1.00
C237   C     0.81762   0.02573   0.21442   0.00000  Uiso   1.00
C238   C     0.84965   0.30752   0.28533   0.00000  Uiso   1.00
C239   C     0.84751   0.02322   0.28636   0.00000  Uiso   1.00
C240   C     0.81915   0.31005   0.21365   0.00000  Uiso   1.00
N241   N     0.83333   0.28402   0.25000   0.00000  Uiso   1.00
N242   N     0.83333   0.04931   0.25000   0.00000  Uiso   1.00
O243   O     0.76294   0.20384   0.37936   0.00000  Uiso   1.00
C244   C     0.76542   0.25240   0.37839   0.00000  Uiso   1.00
H245   H     0.78968   0.26310   0.35552   0.00000  Uiso   1.00
H246   H     0.77194   0.26667   0.41212   0.00000  Uiso   1.00
C247   C     0.72489   0.27297   0.36028   0.00000  Uiso   1.00
H248   H     0.72024   0.26268   0.32499   0.00000  Uiso   1.00
H249   H     0.69914   0.25948   0.37976   0.00000  Uiso   1.00
C250   C     0.72430   0.32539   0.36289   0.00000  Uiso   1.00
H251   H     0.72805   0.00296   0.39811   0.00000  Uiso   1.00
H252   H     0.69454   0.00597   0.34955   0.00000  Uiso   1.00
H253   H     0.74943   0.00633   0.34292   0.00000  Uiso   1.00
O254   O     0.89508   0.11841   0.11764   0.00000  Uiso   1.00
C255   C     0.92651   0.15071   0.12399   0.00000  Uiso   1.00
H256   H     0.93329   0.15197   0.16033   0.00000  Uiso   1.00
H257   H     0.91837   0.18660   0.11229   0.00000  Uiso   1.00
C258   C     0.96521   0.13457   0.10051   0.00000  Uiso   1.00
H259   H     0.97211   0.09784   0.10945   0.00000  Uiso   1.00
H260   H     0.96015   0.13776   0.06380   0.00000  Uiso   1.00
C261   C     0.66863   0.16332   0.11353   0.00000  Uiso   1.00
H262   H     0.99565   0.20032   0.10539   0.00000  Uiso   1.00
H263   H     0.69572   0.15165   0.09473   0.00000  Uiso   1.00
H264   H     0.67574   0.15902   0.14978   0.00000  Uiso   1.00
N265   N     0.72028   0.21008   0.45650   0.00000  Uiso   1.00
O266   O     0.70184   0.17955   0.43235   0.00000  Uiso   1.00
O267   O     0.69937   0.24569   0.47000   0.00000  Uiso   1.00
N268   N     0.90904   0.06693   0.04463   0.00000  Uiso   1.00
O269   O     0.89202   0.03991   0.07359   0.00000  Uiso   1.00
O270   O     0.94396   0.05414   0.02832   0.00000  Uiso   1.00
N271   N     0.71177   0.09291   0.29169   0.00000  Uiso   1.00
O272   O     0.73351   0.09970   0.32782   0.00000  Uiso   1.00
O273   O     0.71104   0.05210   0.27432   0.00000  Uiso   1.00
N274   N     0.95530   0.24508   0.21437   0.00000  Uiso   1.00
O275   O     0.93302   0.24160   0.17814   0.00000  Uiso   1.00
O276   O     0.96082   0.28562   0.23121   0.00000  Uiso   1.00
N277   N     0.96093   0.09155   0.29068   0.00000  Uiso   1.00
O278   O     0.94908   0.05682   0.26703   0.00000  Uiso   1.00
O279   O     0.96652   0.08593   0.33360   0.00000  Uiso   1.00
N280   N     0.70614   0.24426   0.21226   0.00000  Uiso   1.00
O281   O     0.71994   0.27752   0.23665   0.00000  Uiso   1.00
O282   O     0.69896   0.25205   0.16988   0.00000  Uiso   1.00
N283   N     0.79736   0.05000   0.17803   0.00000  Uiso   1.00
O284   O     0.76019   0.06560   0.18269   0.00000  Uiso   1.00
O285   O     0.81246   0.04851   0.13822   0.00000  Uiso   1.00
N286   N     0.87256   0.28330   0.32004   0.00000  Uiso   1.00
O287   O     0.90945   0.26865   0.31210   0.00000  Uiso   1.00
O288   O     0.86152   0.28628   0.36139   0.00000  Uiso   1.00
N289   N     0.85692   0.04428   0.32789   0.00000  Uiso   1.00
O290   O     0.82835   0.04664   0.35739   0.00000  Uiso   1.00
O291   O     0.89474   0.04542   0.34171   0.00000  Uiso   1.00
N292   N     0.80972   0.28896   0.17211   0.00000  Uiso   1.00
O293   O     0.77196   0.28836   0.15801   0.00000  Uiso   1.00
O294   O     0.83843   0.28601   0.14280   0.00000  Uiso   1.00
O295   O     0.10655   0.53958   0.25000   0.00000  Uiso   1.00
O296   O     0.22679   0.46042   0.25000   0.00000  Uiso   1.00
O297   O     0.22679   0.53958   0.25000   0.00000  Uiso   1.00
O298   O     0.10655   0.46042   0.25000   0.00000  Uiso   1.00
C299   C     0.08756   0.50054   0.25029   0.00000  Uiso   1.00
C300   C     0.24581   0.49974   0.25011   0.00000  Uiso   1.00
O301   O     0.16666   0.53960   0.18513   0.00000  Uiso   1.00
O302   O     0.16668   0.46040   0.31487   0.00000  Uiso   1.00
O303   O     0.16668   0.53960   0.31487   0.00000  Uiso   1.00
O304   O     0.16666   0.46040   0.18513   0.00000  Uiso   1.00
C305   C     0.16717   0.50009   0.16455   0.00000  Uiso   1.00
C306   C     0.16475   0.49968   0.33530   0.00000  Uiso   1.00
Cu307  Cu    0.16667   0.54689   0.25000   0.00000  Uiso   1.00
Cu308  Cu    0.16667   0.45311   0.25000   0.00000  Uiso   1.00
C309   C     0.19200   0.47307   0.40745   0.00000  Uiso   1.00
C310   C     0.13412   0.52065   0.09272   0.00000  Uiso   1.00
C311   C     0.16192   0.49819   0.38358   0.00000  Uiso   1.00
C312   C     0.16671   0.49920   0.11608   0.00000  Uiso   1.00
C313   C     0.12821   0.51818   0.40519   0.00000  Uiso   1.00
C314   C     0.19581   0.47196   0.09378   0.00000  Uiso   1.00
C315   C     0.12597   0.51413   0.45250   0.00000  Uiso   1.00
C316   C     0.19184   0.46618   0.04719   0.00000  Uiso   1.00
C317   C     0.15895   0.49170   0.47645   0.00000  Uiso   1.00
C318   C     0.16050   0.49151   0.02342   0.00000  Uiso   1.00
C319   C     0.19046   0.46908   0.45353   0.00000  Uiso   1.00
C320   C     0.13065   0.51669   0.04654   0.00000  Uiso   1.00
C321   C     0.09259   0.53195   0.47708   0.00000  Uiso   1.00
C322   C     0.21857   0.43692   0.02321   0.00000  Uiso   1.00
C323   C     0.09660   0.53562   0.02350   0.00000  Uiso   1.00
C324   C     0.21928   0.44116   0.47672   0.00000  Uiso   1.00
H325   H     0.21683   0.45659   0.38985   0.00000  Uiso   1.00
H326   H     0.11085   0.53937   0.11078   0.00000  Uiso   1.00
H327   H     0.07197   0.55136   0.04198   0.00000  Uiso   1.00
H328   H     0.24109   0.42067   0.45832   0.00000  Uiso   1.00
C329   C     0.02271   0.46382   0.27040   0.00000  Uiso   1.00
C330   C     0.31080   0.53885   0.23270   0.00000  Uiso   1.00
C331   C     0.31354   0.46261   0.26891   0.00000  Uiso   1.00
C332   C     0.02007   0.53953   0.23350   0.00000  Uiso   1.00
C333   C     0.29056   0.49987   0.24978   0.00000  Uiso   1.00
C334   C     0.04292   0.50171   0.25183   0.00000  Uiso   1.00
C335   C     0.15096   0.35906   0.21442   0.00000  Uiso   1.00
C336   C     0.18299   0.64085   0.28533   0.00000  Uiso   1.00
C337   C     0.18084   0.35656   0.28636   0.00000  Uiso   1.00
C338   C     0.15249   0.64339   0.21365   0.00000  Uiso   1.00
N339   N     0.16667   0.61736   0.25000   0.00000  Uiso   1.00
N340   N     0.16667   0.38264   0.25000   0.00000  Uiso   1.00
O341   O     0.09628   0.53717   0.37936   0.00000  Uiso   1.00
C342   C     0.09875   0.58573   0.37839   0.00000  Uiso   1.00
H343   H     0.12301   0.59643   0.35552   0.00000  Uiso   1.00
H344   H     0.10527   0.60000   0.41212   0.00000  Uiso   1.00
C345   C     0.05822   0.60630   0.36028   0.00000  Uiso   1.00
H346   H     0.05357   0.59601   0.32499   0.00000  Uiso   1.00
H347   H     0.03247   0.59281   0.37976   0.00000  Uiso   1.00
C348   C     0.05764   0.65872   0.36289   0.00000  Uiso   1.00
H349   H     0.06138   0.33630   0.39811   0.00000  Uiso   1.00
H350   H     0.02788   0.33930   0.34955   0.00000  Uiso   1.00
H351   H     0.08276   0.33967   0.34292   0.00000  Uiso   1.00
O352   O     0.22841   0.45174   0.11764   0.00000  Uiso   1.00
C353   C     0.25984   0.48404   0.12399   0.00000  Uiso   1.00
H354   H     0.26662   0.48530   0.16033   0.00000  Uiso   1.00
H355   H     0.25171   0.51993   0.11229   0.00000  Uiso   1.00
C356   C     0.29854   0.46790   0.10051   0.00000  Uiso   1.00
H357   H     0.30544   0.43117   0.10945   0.00000  Uiso   1.00
H358   H     0.29348   0.47109   0.06380   0.00000  Uiso   1.00
C359   C     0.00196   0.49666   0.11353   0.00000  Uiso   1.00
H360   H     0.32898   0.53365   0.10539   0.00000  Uiso   1.00
H361   H     0.02906   0.48498   0.09473   0.00000  Uiso   1.00
H362   H     0.00907   0.49235   0.14978   0.00000  Uiso   1.00
N363   N     0.05361   0.54341   0.45650   0.00000  Uiso   1.00
O364   O     0.03517   0.51289   0.43235   0.00000  Uiso   1.00
O365   O     0.03270   0.57902   0.47000   0.00000  Uiso   1.00
N366   N     0.24238   0.40026   0.04463   0.00000  Uiso   1.00
O367   O     0.22535   0.37324   0.07359   0.00000  Uiso   1.00
O368   O     0.27730   0.38747   0.02832   0.00000  Uiso   1.00
N369   N     0.04510   0.42624   0.29169   0.00000  Uiso   1.00
O370   O     0.06684   0.43303   0.32782   0.00000  Uiso   1.00
O371   O     0.04438   0.38543   0.27432   0.00000  Uiso   1.00
N372   N     0.28863   0.57841   0.21437   0.00000  Uiso   1.00
O373   O     0.26635   0.57493   0.17814   0.00000  Uiso   1.00
O374   O     0.29415   0.61895   0.23121   0.00000  Uiso   1.00
N375   N     0.29426   0.42489   0.29068   0.00000  Uiso   1.00
O376   O     0.28241   0.39016   0.26703   0.00000  Uiso   1.00
O377   O     0.29985   0.41926   0.33360   0.00000  Uiso   1.00
N378   N     0.03948   0.57760   0.21226   0.00000  Uiso   1.00
O379   O     0.05327   0.61085   0.23665   0.00000  Uiso   1.00
O380   O     0.03230   0.58538   0.16988   0.00000  Uiso   1.00
N381   N     0.13069   0.38333   0.17803   0.00000  Uiso   1.00
O382   O     0.09352   0.39894   0.18269   0.00000  Uiso   1.00
O383   O     0.14579   0.38184   0.13822   0.00000  Uiso   1.00
N384   N     0.20590   0.61663   0.32004   0.00000  Uiso   1.00
O385   O     0.24278   0.60198   0.31210   0.00000  Uiso   1.00
O386   O     0.19485   0.61961   0.36139   0.00000  Uiso   1.00
N387   N     0.19025   0.37762   0.32789   0.00000  Uiso   1.00
O388   O     0.16168   0.37998   0.35739   0.00000  Uiso   1.00
O389   O     0.22807   0.37875   0.34171   0.00000  Uiso   1.00
N390   N     0.14306   0.62229   0.17211   0.00000  Uiso   1.00
O391   O     0.10529   0.62170   0.15801   0.00000  Uiso   1.00
O392   O     0.17176   0.61934   0.14280   0.00000  Uiso   1.00
O393   O     0.43988   0.53958   0.25000   0.00000  Uiso   1.00
O394   O     0.56012   0.46042   0.25000   0.00000  Uiso   1.00
O395   O     0.56012   0.53958   0.25000   0.00000  Uiso   1.00
O396   O     0.43988   0.46042   0.25000   0.00000  Uiso   1.00
C397   C     0.42090   0.50054   0.25029   0.00000  Uiso   1.00
C398   C     0.57915   0.49974   0.25011   0.00000  Uiso   1.00
O399   O     0.49999   0.53960   0.18513   0.00000  Uiso   1.00
O400   O     0.50001   0.46040   0.31487   0.00000  Uiso   1.00
O401   O     0.50001   0.53960   0.31487   0.00000  Uiso   1.00
O402   O     0.49999   0.46040   0.18513   0.00000  Uiso   1.00
C403   C     0.50050   0.50009   0.16455   0.00000  Uiso   1.00
C404   C     0.49808   0.49968   0.33530   0.00000  Uiso   1.00
Cu405  Cu    0.50000   0.54689   0.25000   0.00000  Uiso   1.00
Cu406  Cu    0.50000   0.45311   0.25000   0.00000  Uiso   1.00
C407   C     0.52533   0.47307   0.40745   0.00000  Uiso   1.00
C408   C     0.46745   0.52065   0.09272   0.00000  Uiso   1.00
C409   C     0.49525   0.49819   0.38358   0.00000  Uiso   1.00
C410   C     0.50004   0.49920   0.11608   0.00000  Uiso   1.00
C411   C     0.46155   0.51818   0.40519   0.00000  Uiso   1.00
C412   C     0.52914   0.47196   0.09378   0.00000  Uiso   1.00
C413   C     0.45930   0.51413   0.45250   0.00000  Uiso   1.00
C414   C     0.52517   0.46618   0.04719   0.00000  Uiso   1.00
C415   C     0.49228   0.49170   0.47645   0.00000  Uiso   1.00
C416   C     0.49384   0.49151   0.02342   0.00000  Uiso   1.00
C417   C     0.52380   0.46908   0.45353   0.00000  Uiso   1.00
C418   C     0.46399   0.51669   0.04654   0.00000  Uiso   1.00
C419   C     0.42593   0.53195   0.47708   0.00000  Uiso   1.00
C420   C     0.55191   0.43692   0.02321   0.00000  Uiso   1.00
C421   C     0.42993   0.53562   0.02350   0.00000  Uiso   1.00
C422   C     0.55261   0.44116   0.47672   0.00000  Uiso   1.00
H423   H     0.55016   0.45659   0.38985   0.00000  Uiso   1.00
H424   H     0.44418   0.53937   0.11078   0.00000  Uiso   1.00
H425   H     0.40530   0.55136   0.04198   0.00000  Uiso   1.00
H426   H     0.57442   0.42067   0.45832   0.00000  Uiso   1.00
C427   C     0.35604   0.46382   0.27040   0.00000  Uiso   1.00
C428   C     0.64414   0.53885   0.23270   0.00000  Uiso   1.00
C429   C     0.64687   0.46261   0.26891   0.00000  Uiso   1.00
C430   C     0.35340   0.53953   0.23350   0.00000  Uiso   1.00
C431   C     0.62389   0.49987   0.24978   0.00000  Uiso   1.00
C432   C     0.37626   0.50171   0.25183   0.00000  Uiso   1.00
C433   C     0.48429   0.35906   0.21442   0.00000  Uiso   1.00
C434   C     0.51632   0.64085   0.28533   0.00000  Uiso   1.00
C435   C     0.51418   0.35656   0.28636   0.00000  Uiso   1.00
C436   C     0.48582   0.64339   0.21365   0.00000  Uiso   1.00
N437   N     0.50000   0.61736   0.25000   0.00000  Uiso   1.00
N438   N     0.50000   0.38264   0.25000   0.00000  Uiso   1.00
O439   O     0.42961   0.53717   0.37936   0.00000  Uiso   1.00
C440   C     0.43208   0.58573   0.37839   0.00000  Uiso   1.00
H441   H     0.45634   0.59643   0.35552   0.00000  Uiso   1.00
H442   H     0.43860   0.60000   0.41212   0.00000  Uiso   1.00
C443   C     0.39155   0.60630   0.36028   0.00000  Uiso   1.00
H444   H     0.38691   0.59601   0.32499   0.00000  Uiso   1.00
H445   H     0.36580   0.59281   0.37976   0.00000  Uiso   1.00
C446   C     0.39097   0.65872   0.36289   0.00000  Uiso   1.00
H447   H     0.39471   0.33630   0.39811   0.00000  Uiso   1.00
H448   H     0.36121   0.33930   0.34955   0.00000  Uiso   1.00
H449   H     0.41609   0.33967   0.34292   0.00000  Uiso   1.00
O450   O     0.56175   0.45174   0.11764   0.00000  Uiso   1.00
C451   C     0.59317   0.48404   0.12399   0.00000  Uiso   1.00
H452   H     0.59996   0.48530   0.16033   0.00000  Uiso   1.00
H453   H     0.58504   0.51993   0.11229   0.00000  Uiso   1.00
C454   C     0.63187   0.46790   0.10051   0.00000  Uiso   1.00
H455   H     0.63878   0.43117   0.10945   0.00000  Uiso   1.00
H456   H     0.62682   0.47109   0.06380   0.00000  Uiso   1.00
C457   C     0.33529   0.49666   0.11353   0.00000  Uiso   1.00
H458   H     0.66232   0.53365   0.10539   0.00000  Uiso   1.00
H459   H     0.36239   0.48498   0.09473   0.00000  Uiso   1.00
H460   H     0.34240   0.49235   0.14978   0.00000  Uiso   1.00
N461   N     0.38695   0.54341   0.45650   0.00000  Uiso   1.00
O462   O     0.36851   0.51289   0.43235   0.00000  Uiso   1.00
O463   O     0.36603   0.57902   0.47000   0.00000  Uiso   1.00
N464   N     0.57571   0.40026   0.04463   0.00000  Uiso   1.00
O465   O     0.55869   0.37324   0.07359   0.00000  Uiso   1.00
O466   O     0.61063   0.38747   0.02832   0.00000  Uiso   1.00
N467   N     0.37844   0.42624   0.29169   0.00000  Uiso   1.00
O468   O     0.40017   0.43303   0.32782   0.00000  Uiso   1.00
O469   O     0.37771   0.38543   0.27432   0.00000  Uiso   1.00
N470   N     0.62197   0.57841   0.21437   0.00000  Uiso   1.00
O471   O     0.59968   0.57493   0.17814   0.00000  Uiso   1.00
O472   O     0.62748   0.61895   0.23121   0.00000  Uiso   1.00
N473   N     0.62760   0.42489   0.29068   0.00000  Uiso   1.00
O474   O     0.61575   0.39016   0.26703   0.00000  Uiso   1.00
O475   O     0.63319   0.41926   0.33360   0.00000  Uiso   1.00
N476   N     0.37281   0.57760   0.21226   0.00000  Uiso   1.00
O477   O     0.38661   0.61085   0.23665   0.00000  Uiso   1.00
O478   O     0.36563   0.58538   0.16988   0.00000  Uiso   1.00
N479   N     0.46403   0.38333   0.17803   0.00000  Uiso   1.00
O480   O     0.42685   0.39894   0.18269   0.00000  Uiso   1.00
O481   O     0.47913   0.38184   0.13822   0.00000  Uiso   1.00
N482   N     0.53923   0.61663   0.32004   0.00000  Uiso   1.00
O483   O     0.57612   0.60198   0.31210   0.00000  Uiso   1.00
O484   O     0.52819   0.61961   0.36139   0.00000  Uiso   1.00
N485   N     0.52358   0.37762   0.32789   0.00000  Uiso   1.00
O486   O     0.49501   0.37998   0.35739   0.00000  Uiso   1.00
O487   O     0.56141   0.37875   0.34171   0.00000  Uiso   1.00
N488   N     0.47639   0.62229   0.17211   0.00000  Uiso   1.00
O489   O     0.43862   0.62170   0.15801   0.00000  Uiso   1.00
O490   O     0.50510   0.61934   0.14280   0.00000  Uiso   1.00
O491   O     0.77321   0.53958   0.25000   0.00000  Uiso   1.00
O492   O     0.89345   0.46042   0.25000   0.00000  Uiso   1.00
O493   O     0.89345   0.53958   0.25000   0.00000  Uiso   1.00
O494   O     0.77321   0.46042   0.25000   0.00000  Uiso   1.00
C495   C     0.75423   0.50054   0.25029   0.00000  Uiso   1.00
C496   C     0.91248   0.49974   0.25011   0.00000  Uiso   1.00
O497   O     0.83332   0.53960   0.18513   0.00000  Uiso   1.00
O498   O     0.83334   0.46040   0.31487   0.00000  Uiso   1.00
O499   O     0.83334   0.53960   0.31487   0.00000  Uiso   1.00
O500   O     0.83332   0.46040   0.18513   0.00000  Uiso   1.00
C501   C     0.83384   0.50009   0.16455   0.00000  Uiso   1.00
C502   C     0.83141   0.49968   0.33530   0.00000  Uiso   1.00
Cu503  Cu    0.83333   0.54689   0.25000   0.00000  Uiso   1.00
Cu504  Cu    0.83333   0.45311   0.25000   0.00000  Uiso   1.00
C505   C     0.85866   0.47307   0.40745   0.00000  Uiso   1.00
C506   C     0.80078   0.52065   0.09272   0.00000  Uiso   1.00
C507   C     0.82859   0.49819   0.38358   0.00000  Uiso   1.00
C508   C     0.83337   0.49920   0.11608   0.00000  Uiso   1.00
C509   C     0.79488   0.51818   0.40519   0.00000  Uiso   1.00
C510   C     0.86247   0.47196   0.09378   0.00000  Uiso   1.00
C511   C     0.79264   0.51413   0.45250   0.00000  Uiso   1.00
C512   C     0.85850   0.46618   0.04719   0.00000  Uiso   1.00
C513   C     0.82562   0.49170   0.47645   0.00000  Uiso   1.00
C514   C     0.82717   0.49151   0.02342   0.00000  Uiso   1.00
C515   C     0.85713   0.46908   0.45353   0.00000  Uiso   1.00
C516   C     0.79732   0.51669   0.04654   0.00000  Uiso   1.00
C517   C     0.75926   0.53195   0.47708   0.00000  Uiso   1.00
C518   C     0.88524   0.43692   0.02321   0.00000  Uiso   1.00
C519   C     0.76326   0.53562   0.02350   0.00000  Uiso   1.00
C520   C     0.88594   0.44116   0.47672   0.00000  Uiso   1.00
H521   H     0.88349   0.45659   0.38985   0.00000  Uiso   1.00
H522   H     0.77752   0.53937   0.11078   0.00000  Uiso   1.00
H523   H     0.73863   0.55136   0.04198   0.00000  Uiso   1.00
H524   H     0.90775   0.42067   0.45832   0.00000  Uiso   1.00
C525   C     0.68938   0.46382   0.27040   0.00000  Uiso   1.00
C526   C     0.97747   0.53885   0.23270   0.00000  Uiso   1.00
C527   C     0.98021   0.46261   0.26891   0.00000  Uiso   1.00
C528   C     0.68674   0.53953   0.23350   0.00000  Uiso   1.00
C529   C     0.95722   0.49987   0.24978   0.00000  Uiso   1.00
C530   C     0.70959   0.50171   0.25183   0.00000  Uiso   1.00
C531   C     0.81762   0.35906   0.21442   0.00000  Uiso   1.00
C532   C     0.84965   0.64085   0.28533   0.00000  Uiso   1.00
C533   C     0.84751   0.35656   0.28636   0.00000  Uiso   1.00
C534   C     0.81915   0.64339   0.21365   0.00000  Uiso   1.00
N535   N     0.83333   0.61736   0.25000   0.00000  Uiso   1.00
N536   N     0.83333   0.38264   0.25000   0.00000  Uiso   1.00
O537   O     0.76294   0.53717   0.37936   0.00000  Uiso   1.00
C538   C     0.76542   0.58573   0.37839   0.00000  Uiso   1.00
H539   H     0.78968   0.59643   0.35552   0.00000  Uiso   1.00
H540   H     0.77194   0.60000   0.41212   0.00000  Uiso   1.00
C541   C     0.72489   0.60630   0.36028   0.00000  Uiso   1.00
H542   H     0.72024   0.59601   0.32499   0.00000  Uiso   1.00
H543   H     0.69914   0.59281   0.37976   0.00000  Uiso   1.00
C544   C     0.72430   0.65872   0.36289   0.00000  Uiso   1.00
H545   H     0.72805   0.33630   0.39811   0.00000  Uiso   1.00
H546   H     0.69454   0.33930   0.34955   0.00000  Uiso   1.00
H547   H     0.74943   0.33967   0.34292   0.00000  Uiso   1.00
O548   O     0.89508   0.45174   0.11764   0.00000  Uiso   1.00
C549   C     0.92651   0.48404   0.12399   0.00000  Uiso   1.00
H550   H     0.93329   0.48530   0.16033   0.00000  Uiso   1.00
H551   H     0.91837   0.51993   0.11229   0.00000  Uiso   1.00
C552   C     0.96521   0.46790   0.10051   0.00000  Uiso   1.00
H553   H     0.97211   0.43117   0.10945   0.00000  Uiso   1.00
H554   H     0.96015   0.47109   0.06380   0.00000  Uiso   1.00
C555   C     0.66863   0.49666   0.11353   0.00000  Uiso   1.00
H556   H     0.99565   0.53365   0.10539   0.00000  Uiso   1.00
H557   H     0.69572   0.48498   0.09473   0.00000  Uiso   1.00
H558   H     0.67574   0.49235   0.14978   0.00000  Uiso   1.00
N559   N     0.72028   0.54341   0.45650   0.00000  Uiso   1.00
O560   O     0.70184   0.51289   0.43235   0.00000  Uiso   1.00
O561   O     0.69937   0.57902   0.47000   0.00000  Uiso   1.00
N562   N     0.90904   0.40026   0.04463   0.00000  Uiso   1.00
O563   O     0.89202   0.37324   0.07359   0.00000  Uiso   1.00
O564   O     0.94396   0.38747   0.02832   0.00000  Uiso   1.00
N565   N     0.71177   0.42624   0.29169   0.00000  Uiso   1.00
O566   O     0.73351   0.43303   0.32782   0.00000  Uiso   1.00
O567   O     0.71104   0.38543   0.27432   0.00000  Uiso   1.00
N568   N     0.95530   0.57841   0.21437   0.00000  Uiso   1.00
O569   O     0.93302   0.57493   0.17814   0.00000  Uiso   1.00
O570   O     0.96082   0.61895   0.23121   0.00000  Uiso   1.00
N571   N     0.96093   0.42489   0.29068   0.00000  Uiso   1.00
O572   O     0.94908   0.39016   0.26703   0.00000  Uiso   1.00
O573   O     0.96652   0.41926   0.33360   0.00000  Uiso   1.00
N574   N     0.70614   0.57760   0.21226   0.00000  Uiso   1.00
O575   O     0.71994   0.61085   0.23665   0.00000  Uiso   1.00
O576   O     0.69896   0.58538   0.16988   0.00000  Uiso   1.00
N577   N     0.79736   0.38333   0.17803   0.00000  Uiso   1.00
O578   O     0.76019   0.39894   0.18269   0.00000  Uiso   1.00
O579   O     0.81246   0.38184   0.13822   0.00000  Uiso   1.00
N580   N     0.87256   0.61663   0.32004   0.00000  Uiso   1.00
O581   O     0.90945   0.60198   0.31210   0.00000  Uiso   1.00
O582   O     0.86152   0.61961   0.36139   0.00000  Uiso   1.00
N583   N     0.85692   0.37762   0.32789   0.00000  Uiso   1.00
O584   O     0.82835   0.37998   0.35739   0.00000  Uiso   1.00
O585   O     0.89474   0.37875   0.34171   0.00000  Uiso   1.00
N586   N     0.80972   0.62229   0.17211   0.00000  Uiso   1.00
O587   O     0.77196   0.62170   0.15801   0.00000  Uiso   1.00
O588   O     0.83843   0.61934   0.14280   0.00000  Uiso   1.00
O589   O     0.10655   0.87291   0.25000   0.00000  Uiso   1.00
O590   O     0.22679   0.79375   0.25000   0.00000  Uiso   1.00
O591   O     0.22679   0.87291   0.25000   0.00000  Uiso   1.00
O592   O     0.10655   0.79375   0.25000   0.00000  Uiso   1.00
C593   C     0.08756   0.83387   0.25029   0.00000  Uiso   1.00
C594   C     0.24581   0.83307   0.25011   0.00000  Uiso   1.00
O595   O     0.16666   0.87293   0.18513   0.00000  Uiso   1.00
O596   O     0.16668   0.79373   0.31487   0.00000  Uiso   1.00
O597   O     0.16668   0.87293   0.31487   0.00000  Uiso   1.00
O598   O     0.16666   0.79373   0.18513   0.00000  Uiso   1.00
C599   C     0.16717   0.83343   0.16455   0.00000  Uiso   1.00
C600   C     0.16475   0.83301   0.33530   0.00000  Uiso   1.00
Cu601  Cu    0.16667   0.88022   0.25000   0.00000  Uiso   1.00
Cu602  Cu    0.16667   0.78645   0.25000   0.00000  Uiso   1.00
C603   C     0.19200   0.80641   0.40745   0.00000  Uiso   1.00
C604   C     0.13412   0.85399   0.09272   0.00000  Uiso   1.00
C605   C     0.16192   0.83152   0.38358   0.00000  Uiso   1.00
C606   C     0.16671   0.83254   0.11608   0.00000  Uiso   1.00
C607   C     0.12821   0.85152   0.40519   0.00000  Uiso   1.00
C608   C     0.19581   0.80529   0.09378   0.00000  Uiso   1.00
C609   C     0.12597   0.84746   0.45250   0.00000  Uiso   1.00
C610   C     0.19184   0.79951   0.04719   0.00000  Uiso   1.00
C611   C     0.15895   0.82503   0.47645   0.00000  Uiso   1.00
C612   C     0.16050   0.82484   0.02342   0.00000  Uiso   1.00
C613   C     0.19046   0.80242   0.45353   0.00000  Uiso   1.00
C614   C     0.13065   0.85003   0.04654   0.00000  Uiso   1.00
C615   C     0.09259   0.86528   0.47708   0.00000  Uiso   1.00
C616   C     0.21857   0.77025   0.02321   0.00000  Uiso   1.00
C617   C     0.09660   0.86896   0.02350   0.00000  Uiso   1.00
C618   C     0.21928   0.77449   0.47672   0.00000  Uiso   1.00
H619   H     0.21683   0.78992   0.38985   0.00000  Uiso   1.00
H620   H     0.11085   0.87270   0.11078   0.00000  Uiso   1.00
H621   H     0.07197   0.88469   0.04198   0.00000  Uiso   1.00
H622   H     0.24109   0.75401   0.45832   0.00000  Uiso   1.00
C623   C     0.02271   0.79716   0.27040   0.00000  Uiso   1.00
C624   C     0.31080   0.87218   0.23270   0.00000  Uiso   1.00
C625   C     0.31354   0.79594   0.26891   0.00000  Uiso   1.00
C626   C     0.02007   0.87287   0.23350   0.00000  Uiso   1.00
C627   C     0.29056   0.83320   0.24978   0.00000  Uiso   1.00
C628   C     0.04292   0.83504   0.25183   0.00000  Uiso   1.00
C629   C     0.15096   0.69240   0.21442   0.00000  Uiso   1.00
C630   C     0.18299   0.97419   0.28533   0.00000  Uiso   1.00
C631   C     0.18084   0.68989   0.28636   0.00000  Uiso   1.00
C632   C     0.15249   0.97672   0.21365   0.00000  Uiso   1.00
N633   N     0.16667   0.95069   0.25000   0.00000  Uiso   1.00
N634   N     0.16667   0.71598   0.25000   0.00000  Uiso   1.00
O635   O     0.09628   0.87050   0.37936   0.00000  Uiso   1.00
C636   C     0.09875   0.91907   0.37839   0.00000  Uiso   1.00
H637   H     0.12301   0.92977   0.35552   0.00000  Uiso   1.00
H638   H     0.10527   0.93334   0.41212   0.00000  Uiso   1.00
C639   C     0.05822   0.93964   0.36028   0.00000  Uiso   1.00
H640   H     0.05357   0.92934   0.32499   0.00000  Uiso   1.00
H641   H     0.03247   0.92614   0.37976   0.00000  Uiso   1.00
C642   C     0.05764   0.99205   0.36289   0.00000  Uiso   1.00
H643   H     0.06138   0.66963   0.39811   0.00000  Uiso   1.00
H644   H     0.02788   0.67264   0.34955   0.00000  Uiso   1.00
H645   H     0.08276   0.67300   0.34292   0.00000  Uiso   1.00
O646   O     0.22841   0.78508   0.11764   0.00000  Uiso   1.00
C647   C     0.25984   0.81737   0.12399   0.00000  Uiso   1.00
H648   H     0.26662   0.81864   0.16033   0.00000  Uiso   1.00
H649   H     0.25171   0.85327   0.11229   0.00000  Uiso   1.00
C650   C     0.29854   0.80124   0.10051   0.00000  Uiso   1.00
H651   H     0.30544   0.76450   0.10945   0.00000  Uiso   1.00
H652   H     0.29348   0.80443   0.06380   0.00000  Uiso   1.00
C653   C     0.00196   0.82999   0.11353   0.00000  Uiso   1.00
H654   H     0.32898   0.86699   0.10539   0.00000  Uiso   1.00
H655   H     0.02906   0.81832   0.09473   0.00000  Uiso   1.00
H656   H     0.00907   0.82568   0.14978   0.00000  Uiso   1.00
N657   N     0.05361   0.87674   0.45650   0.00000  Uiso   1.00
O658   O     0.03517   0.84622   0.43235   0.00000  Uiso   1.00
O659   O     0.03270   0.91236   0.47000   0.00000  Uiso   1.00
N660   N     0.24238   0.73360   0.04463   0.00000  Uiso   1.00
O661   O     0.22535   0.70658   0.07359   0.00000  Uiso   1.00
O662   O     0.27730   0.72081   0.02832   0.00000  Uiso   1.00
N663   N     0.04510   0.75958   0.29169   0.00000  Uiso   1.00
O664   O     0.06684   0.76637   0.32782   0.00000  Uiso   1.00
O665   O     0.04438   0.71876   0.27432   0.00000  Uiso   1.00
N666   N     0.28863   0.91174   0.21437   0.00000  Uiso   1.00
O667   O     0.26635   0.90827   0.17814   0.00000  Uiso   1.00
O668   O     0.29415   0.95229   0.23121   0.00000  Uiso   1.00
N669   N     0.29426   0.75822   0.29068   0.00000  Uiso   1.00
O670   O     0.28241   0.72349   0.26703   0.00000  Uiso   1.00
O671   O     0.29985   0.75259   0.33360   0.00000  Uiso   1.00
N672   N     0.03948   0.91093   0.21226   0.00000  Uiso   1.00
O673   O     0.05327   0.94418   0.23665   0.00000  Uiso   1.00
O674   O     0.03230   0.91872   0.16988   0.00000  Uiso   1.00
N675   N     0.13069   0.71666   0.17803   0.00000  Uiso   1.00
O676   O     0.09352   0.73227   0.18269   0.00000  Uiso   1.00
O677   O     0.14579   0.71518   0.13822   0.00000  Uiso   1.00
N678   N     0.20590   0.94997   0.32004   0.00000  Uiso   1.00
O679   O     0.24278   0.93531   0.31210   0.00000  Uiso   1.00
O680   O     0.19485   0.95294   0.36139   0.00000  Uiso   1.00
N681   N     0.19025   0.71095   0.32789   0.00000  Uiso   1.00
O682   O     0.16168   0.71331   0.35739   0.00000  Uiso   1.00
O683   O     0.22807   0.71209   0.34171   0.00000  Uiso   1.00
N684   N     0.14306   0.95562   0.17211   0.00000  Uiso   1.00
O685   O     0.10529   0.95503   0.15801   0.00000  Uiso   1.00
O686   O     0.17176   0.95267   0.14280   0.00000  Uiso   1.00
O687   O     0.43988   0.87291   0.25000   0.00000  Uiso   1.00
O688   O     0.56012   0.79375   0.25000   0.00000  Uiso   1.00
O689   O     0.56012   0.87291   0.25000   0.00000  Uiso   1.00
O690   O     0.43988   0.79375   0.25000   0.00000  Uiso   1.00
C691   C     0.42090   0.83387   0.25029   0.00000  Uiso   1.00
C692   C     0.57915   0.83307   0.25011   0.00000  Uiso   1.00
O693   O     0.49999   0.87293   0.18513   0.00000  Uiso   1.00
O694   O     0.50001   0.79373   0.31487   0.00000  Uiso   1.00
O695   O     0.50001   0.87293   0.31487   0.00000  Uiso   1.00
O696   O     0.49999   0.79373   0.18513   0.00000  Uiso   1.00
C697   C     0.50050   0.83343   0.16455   0.00000  Uiso   1.00
C698   C     0.49808   0.83301   0.33530   0.00000  Uiso   1.00
Cu699  Cu    0.50000   0.88022   0.25000   0.00000  Uiso   1.00
Cu700  Cu    0.50000   0.78645   0.25000   0.00000  Uiso   1.00
C701   C     0.52533   0.80641   0.40745   0.00000  Uiso   1.00
C702   C     0.46745   0.85399   0.09272   0.00000  Uiso   1.00
C703   C     0.49525   0.83152   0.38358   0.00000  Uiso   1.00
C704   C     0.50004   0.83254   0.11608   0.00000  Uiso   1.00
C705   C     0.46155   0.85152   0.40519   0.00000  Uiso   1.00
C706   C     0.52914   0.80529   0.09378   0.00000  Uiso   1.00
C707   C     0.45930   0.84746   0.45250   0.00000  Uiso   1.00
C708   C     0.52517   0.79951   0.04719   0.00000  Uiso   1.00
C709   C     0.49228   0.82503   0.47645   0.00000  Uiso   1.00
C710   C     0.49384   0.82484   0.02342   0.00000  Uiso   1.00
C711   C     0.52380   0.80242   0.45353   0.00000  Uiso   1.00
C712   C     0.46399   0.85003   0.04654   0.00000  Uiso   1.00
C713   C     0.42593   0.86528   0.47708   0.00000  Uiso   1.00
C714   C     0.55191   0.77025   0.02321   0.00000  Uiso   1.00
C715   C     0.42993   0.86896   0.02350   0.00000  Uiso   1.00
C716   C     0.55261   0.77449   0.47672   0.00000  Uiso   1.00
H717   H     0.55016   0.78992   0.38985   0.00000  Uiso   1.00
H718   H     0.44418   0.87270   0.11078   0.00000  Uiso   1.00
H719   H     0.40530   0.88469   0.04198   0.00000  Uiso   1.00
H720   H     0.57442   0.75401   0.45832   0.00000  Uiso   1.00
C721   C     0.35604   0.79716   0.27040   0.00000  Uiso   1.00
C722   C     0.64414   0.87218   0.23270   0.00000  Uiso   1.00
C723   C     0.64687   0.79594   0.26891   0.00000  Uiso   1.00
C724   C     0.35340   0.87287   0.23350   0.00000  Uiso   1.00
C725   C     0.62389   0.83320   0.24978   0.00000  Uiso   1.00
C726   C     0.37626   0.83504   0.25183   0.00000  Uiso   1.00
C727   C     0.48429   0.69240   0.21442   0.00000  Uiso   1.00
C728   C     0.51632   0.97419   0.28533   0.00000  Uiso   1.00
C729   C     0.51418   0.68989   0.28636   0.00000  Uiso   1.00
C730   C     0.48582   0.97672   0.21365   0.00000  Uiso   1.00
N731   N     0.50000   0.95069   0.25000   0.00000  Uiso   1.00
N732   N     0.50000   0.71598   0.25000   0.00000  Uiso   1.00
O733   O     0.42961   0.87050   0.37936   0.00000  Uiso   1.00
C734   C     0.43208   0.91907   0.37839   0.00000  Uiso   1.00
H735   H     0.45634   0.92977   0.35552   0.00000  Uiso   1.00
H736   H     0.43860   0.93334   0.41212   0.00000  Uiso   1.00
C737   C     0.39155   0.93964   0.36028   0.00000  Uiso   1.00
H738   H     0.38691   0.92934   0.32499   0.00000  Uiso   1.00
H739   H     0.36580   0.92614   0.37976   0.00000  Uiso   1.00
C740   C     0.39097   0.99205   0.36289   0.00000  Uiso   1.00
H741   H     0.39471   0.66963   0.39811   0.00000  Uiso   1.00
H742   H     0.36121   0.67264   0.34955   0.00000  Uiso   1.00
H743   H     0.41609   0.67300   0.34292   0.00000  Uiso   1.00
O744   O     0.56175   0.78508   0.11764   0.00000  Uiso   1.00
C745   C     0.59317   0.81737   0.12399   0.00000  Uiso   1.00
H746   H     0.59996   0.81864   0.16033   0.00000  Uiso   1.00
H747   H     0.58504   0.85327   0.11229   0.00000  Uiso   1.00
C748   C     0.63187   0.80124   0.10051   0.00000  Uiso   1.00
H749   H     0.63878   0.76450   0.10945   0.00000  Uiso   1.00
H750   H     0.62682   0.80443   0.06380   0.00000  Uiso   1.00
C751   C     0.33529   0.82999   0.11353   0.00000  Uiso   1.00
H752   H     0.66232   0.86699   0.10539   0.00000  Uiso   1.00
H753   H     0.36239   0.81832   0.09473   0.00000  Uiso   1.00
H754   H     0.34240   0.82568   0.14978   0.00000  Uiso   1.00
N755   N     0.38695   0.87674   0.45650   0.00000  Uiso   1.00
O756   O     0.36851   0.84622   0.43235   0.00000  Uiso   1.00
O757   O     0.36603   0.91236   0.47000   0.00000  Uiso   1.00
N758   N     0.57571   0.73360   0.04463   0.00000  Uiso   1.00
O759   O     0.55869   0.70658   0.07359   0.00000  Uiso   1.00
O760   O     0.61063   0.72081   0.02832   0.00000  Uiso   1.00
N761   N     0.37844   0.75958   0.29169   0.00000  Uiso   1.00
O762   O     0.40017   0.76637   0.32782   0.00000  Uiso   1.00
O763   O     0.37771   0.71876   0.27432   0.00000  Uiso   1.00
N764   N     0.62197   0.91174   0.21437   0.00000  Uiso   1.00
O765   O     0.59968   0.90827   0.17814   0.00000  Uiso   1.00
O766   O     0.62748   0.95229   0.23121   0.00000  Uiso   1.00
N767   N     0.62760   0.75822   0.29068   0.00000  Uiso   1.00
O768   O     0.61575   0.72349   0.26703   0.00000  Uiso   1.00
O769   O     0.63319   0.75259   0.33360   0.00000  Uiso   1.00
N770   N     0.37281   0.91093   0.21226   0.00000  Uiso   1.00
O771   O     0.38661   0.94418   0.23665   0.00000  Uiso   1.00
O772   O     0.36563   0.91872   0.16988   0.00000  Uiso   1.00
N773   N     0.46403   0.71666   0.17803   0.00000  Uiso   1.00
O774   O     0.42685   0.73227   0.18269   0.00000  Uiso   1.00
O775   O     0.47913   0.71518   0.13822   0.00000  Uiso   1.00
N776   N     0.53923   0.94997   0.32004   0.00000  Uiso   1.00
O777   O     0.57612   0.93531   0.31210   0.00000  Uiso   1.00
O778   O     0.52819   0.95294   0.36139   0.00000  Uiso   1.00
N779   N     0.52358   0.71095   0.32789   0.00000  Uiso   1.00
O780   O     0.49501   0.71331   0.35739   0.00000  Uiso   1.00
O781   O     0.56141   0.71209   0.34171   0.00000  Uiso   1.00
N782   N     0.47639   0.95562   0.17211   0.00000  Uiso   1.00
O783   O     0.43862   0.95503   0.15801   0.00000  Uiso   1.00
O784   O     0.50510   0.95267   0.14280   0.00000  Uiso   1.00
O785   O     0.77321   0.87291   0.25000   0.00000  Uiso   1.00
O786   O     0.89345   0.79375   0.25000   0.00000  Uiso   1.00
O787   O     0.89345   0.87291   0.25000   0.00000  Uiso   1.00
O788   O     0.77321   0.79375   0.25000   0.00000  Uiso   1.00
C789   C     0.75423   0.83387   0.25029   0.00000  Uiso   1.00
C790   C     0.91248   0.83307   0.25011   0.00000  Uiso   1.00
O791   O     0.83332   0.87293   0.18513   0.00000  Uiso   1.00
O792   O     0.83334   0.79373   0.31487   0.00000  Uiso   1.00
O793   O     0.83334   0.87293   0.31487   0.00000  Uiso   1.00
O794   O     0.83332   0.79373   0.18513   0.00000  Uiso   1.00
C795   C     0.83384   0.83343   0.16455   0.00000  Uiso   1.00
C796   C     0.83141   0.83301   0.33530   0.00000  Uiso   1.00
Cu797  Cu    0.83333   0.88022   0.25000   0.00000  Uiso   1.00
Cu798  Cu    0.83333   0.78645   0.25000   0.00000  Uiso   1.00
C799   C     0.85866   0.80641   0.40745   0.00000  Uiso   1.00
C800   C     0.80078   0.85399   0.09272   0.00000  Uiso   1.00
C801   C     0.82859   0.83152   0.38358   0.00000  Uiso   1.00
C802   C     0.83337   0.83254   0.11608   0.00000  Uiso   1.00
C803   C     0.79488   0.85152   0.40519   0.00000  Uiso   1.00
C804   C     0.86247   0.80529   0.09378   0.00000  Uiso   1.00
C805   C     0.79264   0.84746   0.45250   0.00000  Uiso   1.00
C806   C     0.85850   0.79951   0.04719   0.00000  Uiso   1.00
C807   C     0.82562   0.82503   0.47645   0.00000  Uiso   1.00
C808   C     0.82717   0.82484   0.02342   0.00000  Uiso   1.00
C809   C     0.85713   0.80242   0.45353   0.00000  Uiso   1.00
C810   C     0.79732   0.85003   0.04654   0.00000  Uiso   1.00
C811   C     0.75926   0.86528   0.47708   0.00000  Uiso   1.00
C812   C     0.88524   0.77025   0.02321   0.00000  Uiso   1.00
C813   C     0.76326   0.86896   0.02350   0.00000  Uiso   1.00
C814   C     0.88594   0.77449   0.47672   0.00000  Uiso   1.00
H815   H     0.88349   0.78992   0.38985   0.00000  Uiso   1.00
H816   H     0.77752   0.87270   0.11078   0.00000  Uiso   1.00
H817   H     0.73863   0.88469   0.04198   0.00000  Uiso   1.00
H818   H     0.90775   0.75401   0.45832   0.00000  Uiso   1.00
C819   C     0.68938   0.79716   0.27040   0.00000  Uiso   1.00
C820   C     0.97747   0.87218   0.23270   0.00000  Uiso   1.00
C821   C     0.98021   0.79594   0.26891   0.00000  Uiso   1.00
C822   C     0.68674   0.87287   0.23350   0.00000  Uiso   1.00
C823   C     0.95722   0.83320   0.24978   0.00000  Uiso   1.00
C824   C     0.70959   0.83504   0.25183   0.00000  Uiso   1.00
C825   C     0.81762   0.69240   0.21442   0.00000  Uiso   1.00
C826   C     0.84965   0.97419   0.28533   0.00000  Uiso   1.00
C827   C     0.84751   0.68989   0.28636   0.00000  Uiso   1.00
C828   C     0.81915   0.97672   0.21365   0.00000  Uiso   1.00
N829   N     0.83333   0.95069   0.25000   0.00000  Uiso   1.00
N830   N     0.83333   0.71598   0.25000   0.00000  Uiso   1.00
O831   O     0.76294   0.87050   0.37936   0.00000  Uiso   1.00
C832   C     0.76542   0.91907   0.37839   0.00000  Uiso   1.00
H833   H     0.78968   0.92977   0.35552   0.00000  Uiso   1.00
H834   H     0.77194   0.93334   0.41212   0.00000  Uiso   1.00
C835   C     0.72489   0.93964   0.36028   0.00000  Uiso   1.00
H836   H     0.72024   0.92934   0.32499   0.00000  Uiso   1.00
H837   H     0.69914   0.92614   0.37976   0.00000  Uiso   1.00
C838   C     0.72430   0.99205   0.36289   0.00000  Uiso   1.00
H839   H     0.72805   0.66963   0.39811   0.00000  Uiso   1.00
H840   H     0.69454   0.67264   0.34955   0.00000  Uiso   1.00
H841   H     0.74943   0.67300   0.34292   0.00000  Uiso   1.00
O842   O     0.89508   0.78508   0.11764   0.00000  Uiso   1.00
C843   C     0.92651   0.81737   0.12399   0.00000  Uiso   1.00
H844   H     0.93329   0.81864   0.16033   0.00000  Uiso   1.00
H845   H     0.91837   0.85327   0.11229   0.00000  Uiso   1.00
C846   C     0.96521   0.80124   0.10051   0.00000  Uiso   1.00
H847   H     0.97211   0.76450   0.10945   0.00000  Uiso   1.00
H848   H     0.96015   0.80443   0.06380   0.00000  Uiso   1.00
C849   C     0.66863   0.82999   0.11353   0.00000  Uiso   1.00
H850   H     0.99565   0.86699   0.10539   0.00000  Uiso   1.00
H851   H     0.69572   0.81832   0.09473   0.00000  Uiso   1.00
H852   H     0.67574   0.82568   0.14978   0.00000  Uiso   1.00
N853   N     0.72028   0.87674   0.45650   0.00000  Uiso   1.00
O854   O     0.70184   0.84622   0.43235   0.00000  Uiso   1.00
O855   O     0.69937   0.91236   0.47000   0.00000  Uiso   1.00
N856   N     0.90904   0.73360   0.04463   0.00000  Uiso   1.00
O857   O     0.89202   0.70658   0.07359   0.00000  Uiso   1.00
O858   O     0.94396   0.72081   0.02832   0.00000  Uiso   1.00
N859   N     0.71177   0.75958   0.29169   0.00000  Uiso   1.00
O860   O     0.73351   0.76637   0.32782   0.00000  Uiso   1.00
O861   O     0.71104   0.71876   0.27432   0.00000  Uiso   1.00
N862   N     0.95530   0.91174   0.21437   0.00000  Uiso   1.00
O863   O     0.93302   0.90827   0.17814   0.00000  Uiso   1.00
O864   O     0.96082   0.95229   0.23121   0.00000  Uiso   1.00
N865   N     0.96093   0.75822   0.29068   0.00000  Uiso   1.00
O866   O     0.94908   0.72349   0.26703   0.00000  Uiso   1.00
O867   O     0.96652   0.75259   0.33360   0.00000  Uiso   1.00
N868   N     0.70614   0.91093   0.21226   0.00000  Uiso   1.00
O869   O     0.71994   0.94418   0.23665   0.00000  Uiso   1.00
O870   O     0.69896   0.91872   0.16988   0.00000  Uiso   1.00
N871   N     0.79736   0.71666   0.17803   0.00000  Uiso   1.00
O872   O     0.76019   0.73227   0.18269   0.00000  Uiso   1.00
O873   O     0.81246   0.71518   0.13822   0.00000  Uiso   1.00
N874   N     0.87256   0.94997   0.32004   0.00000  Uiso   1.00
O875   O     0.90945   0.93531   0.31210   0.00000  Uiso   1.00
O876   O     0.86152   0.95294   0.36139   0.00000  Uiso   1.00
N877   N     0.85692   0.71095   0.32789   0.00000  Uiso   1.00
O878   O     0.82835   0.71331   0.35739   0.00000  Uiso   1.00
O879   O     0.89474   0.71209   0.34171   0.00000  Uiso   1.00
N880   N     0.80972   0.95562   0.17211   0.00000  Uiso   1.00
O881   O     0.77196   0.95503   0.15801   0.00000  Uiso   1.00
O882   O     0.83843   0.95267   0.14280   0.00000  Uiso   1.00
O883   O     0.10655   0.20625   0.75000   0.00000  Uiso   1.00
O884   O     0.22679   0.12709   0.75000   0.00000  Uiso   1.00
O885   O     0.22679   0.20625   0.75000   0.00000  Uiso   1.00
O886   O     0.10655   0.12709   0.75000   0.00000  Uiso   1.00
C887   C     0.08756   0.16721   0.75029   0.00000  Uiso   1.00
C888   C     0.24581   0.16641   0.75011   0.00000  Uiso   1.00
O889   O     0.16666   0.20627   0.68513   0.00000  Uiso   1.00
O890   O     0.16668   0.12707   0.81487   0.00000  Uiso   1.00
O891   O     0.16668   0.20627   0.81487   0.00000  Uiso   1.00
O892   O     0.16666   0.12707   0.68513   0.00000  Uiso   1.00
C893   C     0.16717   0.16676   0.66455   0.00000  Uiso   1.00
C894   C     0.16475   0.16635   0.83530   0.00000  Uiso   1.00
Cu895  Cu    0.16667   0.21355   0.75000   0.00000  Uiso   1.00
Cu896  Cu    0.16667   0.11978   0.75000   0.00000  Uiso   1.00
C897   C     0.19200   0.13974   0.90745   0.00000  Uiso   1.00
C898   C     0.13412   0.18732   0.59272   0.00000  Uiso   1.00
C899   C     0.16192   0.16485   0.88358   0.00000  Uiso   1.00
C900   C     0.16671   0.16587   0.61608   0.00000  Uiso   1.00
C901   C     0.12821   0.18485   0.90519   0.00000  Uiso   1.00
C902   C     0.19581   0.13862   0.59378   0.00000  Uiso   1.00
C903   C     0.12597   0.18080   0.95250   0.00000  Uiso   1.00
C904   C     0.19184   0.13285   0.54719   0.00000  Uiso   1.00
C905   C     0.15895   0.15837   0.97645   0.00000  Uiso   1.00
C906   C     0.16050   0.15817   0.52342   0.00000  Uiso   1.00
C907   C     0.19046   0.13575   0.95353   0.00000  Uiso   1.00
C908   C     0.13065   0.18336   0.54654   0.00000  Uiso   1.00
C909   C     0.09259   0.19862   0.97708   0.00000  Uiso   1.00
C910   C     0.21857   0.10358   0.52321   0.00000  Uiso   1.00
C911   C     0.09660   0.20229   0.52350   0.00000  Uiso   1.00
C912   C     0.21928   0.10782   0.97672   0.00000  Uiso   1.00
H913   H     0.21683   0.12325   0.88985   0.00000  Uiso   1.00
H914   H     0.11085   0.20604   0.61078   0.00000  Uiso   1.00
H915   H     0.07197   0.21802   0.54198   0.00000  Uiso   1.00
H916   H     0.24109   0.08734   0.95832   0.00000  Uiso   1.00
C917   C     0.02271   0.13049   0.77040   0.00000  Uiso   1.00
C918   C     0.31080   0.20552   0.73270   0.00000  Uiso   1.00
C919   C     0.31354   0.12928   0.76891   0.00000  Uiso   1.00
C920   C     0.02007   0.20620   0.73350   0.00000  Uiso   1.00
C921   C     0.29056   0.16654   0.74978   0.00000  Uiso   1.00
C922   C     0.04292   0.16837   0.75183   0.00000  Uiso   1.00
C923   C     0.15096   0.02573   0.71442   0.00000  Uiso   1.00
C924   C     0.18299   0.30752   0.78533   0.00000  Uiso   1.00
C925   C     0.18084   0.02322   0.78636   0.00000  Uiso   1.00
C926   C     0.15249   0.31005   0.71365   0.00000  Uiso   1.00
N927   N     0.16667   0.28402   0.75000   0.00000  Uiso   1.00
N928   N     0.16667   0.04931   0.75000   0.00000  Uiso   1.00
O929   O     0.09628   0.20384   0.87936   0.00000  Uiso   1.00
C930   C     0.09875   0.25240   0.87839   0.00000  Uiso   1.00
H931   H     0.12301   0.26310   0.85552   0.00000  Uiso   1.00
H932   H     0.10527   0.26667   0.91212   0.00000  Uiso   1.00
C933   C     0.05822   0.27297   0.86028   0.00000  Uiso   1.00
H934   H     0.05357   0.26268   0.82499   0.00000  Uiso   1.00
H935   H     0.03247   0.25948   0.87976   0.00000  Uiso   1.00
C936   C     0.05764   0.32539   0.86289   0.00000  Uiso   1.00
H937   H     0.06138   0.00296   0.89811   0.00000  Uiso   1.00
H938   H     0.02788   0.00597   0.84955   0.00000  Uiso   1.00
H939   H     0.08276   0.00633   0.84292   0.00000  Uiso   1.00
O940   O     0.22841   0.11841   0.61764   0.00000  Uiso   1.00
C941   C     0.25984   0.15071   0.62399   0.00000  Uiso   1.00
H942   H     0.26662   0.15197   0.66033   0.00000  Uiso   1.00
H943   H     0.25171   0.18660   0.61229   0.00000  Uiso   1.00
C944   C     0.29854   0.13457   0.60051   0.00000  Uiso   1.00
H945   H     0.30544   0.09784   0.60945   0.00000  Uiso   1.00
H946   H     0.29348   0.13776   0.56380   0.00000  Uiso   1.00
C947   C     0.00196   0.16332   0.61353   0.00000  Uiso   1.00
H948   H     0.32898   0.20032   0.60539   0.00000  Uiso   1.00
H949   H     0.02906   0.15165   0.59473   0.00000  Uiso   1.00
H950   H     0.00907   0.15902   0.64978   0.00000  Uiso   1.00
N951   N     0.05361   0.21008   0.95650   0.00000  Uiso   1.00
O952   O     0.03517   0.17955   0.93235   0.00000  Uiso   1.00
O953   O     0.03270   0.24569   0.97000   0.00000  Uiso   1.00
N954   N     0.24238   0.06693   0.54463   0.00000  Uiso   1.00
O955   O     0.22535   0.03991   0.57359   0.00000  Uiso   1.00
O956   O     0.27730   0.05414   0.52832   0.00000  Uiso   1.00
N957   N     0.04510   0.09291   0.79169   0.00000  Uiso   1.00
O958   O     0.06684   0.09970   0.82782   0.00000  Uiso   1.00
O959   O     0.04438   0.05210   0.77432   0.00000  Uiso   1.00
N960   N     0.28863   0.24508   0.71437   0.00000  Uiso   1.00
O961   O     0.26635   0.24160   0.67814   0.00000  Uiso   1.00
O962   O     0.29415   0.28562   0.73121   0.00000  Uiso   1.00
N963   N     0.29426   0.09155   0.79068   0.00000  Uiso   1.00
O964   O     0.28241   0.05682   0.76703   0.00000  Uiso   1.00
O965   O     0.29985   0.08593   0.83360   0.00000  Uiso   1.00
N966   N     0.03948   0.24426   0.71226   0.00000  Uiso   1.00
O967   O     0.05327   0.27752   0.73665   0.00000  Uiso   1.00
O968   O     0.03230   0.25205   0.66988   0.00000  Uiso   1.00
N969   N     0.13069   0.05000   0.67803   0.00000  Uiso   1.00
O970   O     0.09352   0.06560   0.68269   0.00000  Uiso   1.00
O971   O     0.14579   0.04851   0.63822   0.00000  Uiso   1.00
N972   N     0.20590   0.28330   0.82004   0.00000  Uiso   1.00
O973   O     0.24278   0.26865   0.81210   0.00000  Uiso   1.00
O974   O     0.19485   0.28628   0.86139   0.00000  Uiso   1.00
N975   N     0.19025   0.04428   0.82789   0.00000  Uiso   1.00
O976   O     0.16168   0.04664   0.85739   0.00000  Uiso   1.00
O977   O     0.22807   0.04542   0.84171   0.00000  Uiso   1.00
N978   N     0.14306   0.28896   0.67211   0.00000  Uiso   1.00
O979   O     0.10529   0.28836   0.65801   0.00000  Uiso   1.00
O980   O     0.17176   0.28601   0.64280   0.00000  Uiso   1.00
O981   O     0.43988   0.20625   0.75000   0.00000  Uiso   1.00
O982   O     0.56012   0.12709   0.75000   0.00000  Uiso   1.00
O983   O     0.56012   0.20625   0.75000   0.00000  Uiso   1.00
O984   O     0.43988   0.12709   0.75000   0.00000  Uiso   1.00
C985   C     0.42090   0.16721   0.75029   0.00000  Uiso   1.00
C986   C     0.57915   0.16641   0.75011   0.00000  Uiso   1.00
O987   O     0.49999   0.20627   0.68513   0.00000  Uiso   1.00
O988   O     0.50001   0.12707   0.81487   0.00000  Uiso   1.00
O989   O     0.50001   0.20627   0.81487   0.00000  Uiso   1.00
O990   O     0.49999   0.12707   0.68513   0.00000  Uiso   1.00
C991   C     0.50050   0.16676   0.66455   0.00000  Uiso   1.00
C992   C     0.49808   0.16635   0.83530   0.00000  Uiso   1.00
Cu993  Cu    0.50000   0.21355   0.75000   0.00000  Uiso   1.00
Cu994  Cu    0.50000   0.11978   0.75000   0.00000  Uiso   1.00
C995   C     0.52533   0.13974   0.90745   0.00000  Uiso   1.00
C996   C     0.46745   0.18732   0.59272   0.00000  Uiso   1.00
C997   C     0.49525   0.16485   0.88358   0.00000  Uiso   1.00
C998   C     0.50004   0.16587   0.61608   0.00000  Uiso   1.00
C999   C     0.46155   0.18485   0.90519   0.00000  Uiso   1.00
C1000  C     0.52914   0.13862   0.59378   0.00000  Uiso   1.00
C1001  C     0.45930   0.18080   0.95250   0.00000  Uiso   1.00
C1002  C     0.52517   0.13285   0.54719   0.00000  Uiso   1.00
C1003  C     0.49228   0.15837   0.97645   0.00000  Uiso   1.00
C1004  C     0.49384   0.15817   0.52342   0.00000  Uiso   1.00
C1005  C     0.52380   0.13575   0.95353   0.00000  Uiso   1.00
C1006  C     0.46399   0.18336   0.54654   0.00000  Uiso   1.00
C1007  C     0.42593   0.19862   0.97708   0.00000  Uiso   1.00
C1008  C     0.55191   0.10358   0.52321   0.00000  Uiso   1.00
C1009  C     0.42993   0.20229   0.52350   0.00000  Uiso   1.00
C1010  C     0.55261   0.10782   0.97672   0.00000  Uiso   1.00
H1011  H     0.55016   0.12325   0.88985   0.00000  Uiso   1.00
H1012  H     0.44418   0.20604   0.61078   0.00000  Uiso   1.00
H1013  H     0.40530   0.21802   0.54198   0.00000  Uiso   1.00
H1014  H     0.57442   0.08734   0.95832   0.00000  Uiso   1.00
C1015  C     0.35604   0.13049   0.77040   0.00000  Uiso   1.00
C1016  C     0.64414   0.20552   0.73270   0.00000  Uiso   1.00
C1017  C     0.64687   0.12928   0.76891   0.00000  Uiso   1.00
C1018  C     0.35340   0.20620   0.73350   0.00000  Uiso   1.00
C1019  C     0.62389   0.16654   0.74978   0.00000  Uiso   1.00
C1020  C     0.37626   0.16837   0.75183   0.00000  Uiso   1.00
C1021  C     0.48429   0.02573   0.71442   0.00000  Uiso   1.00
C1022  C     0.51632   0.30752   0.78533   0.00000  Uiso   1.00
C1023  C     0.51418   0.02322   0.78636   0.00000  Uiso   1.00
C1024  C     0.48582   0.31005   0.71365   0.00000  Uiso   1.00
N1025  N     0.50000   0.28402   0.75000   0.00000  Uiso   1.00
N1026  N     0.50000   0.04931   0.75000   0.00000  Uiso   1.00
O1027  O     0.42961   0.20384   0.87936   0.00000  Uiso   1.00
C1028  C     0.43208   0.25240   0.87839   0.00000  Uiso   1.00
H1029  H     0.45634   0.26310   0.85552   0.00000  Uiso   1.00
H1030  H     0.43860   0.26667   0.91212   0.00000  Uiso   1.00
C1031  C     0.39155   0.27297   0.86028   0.00000  Uiso   1.00
H1032  H     0.38691   0.26268   0.82499   0.00000  Uiso   1.00
H1033  H     0.36580   0.25948   0.87976   0.00000  Uiso   1.00
C1034  C     0.39097   0.32539   0.86289   0.00000  Uiso   1.00
H1035  H     0.39471   0.00296   0.89811   0.00000  Uiso   1.00
H1036  H     0.36121   0.00597   0.84955   0.00000  Uiso   1.00
H1037  H     0.41609   0.00633   0.84292   0.00000  Uiso   1.00
O1038  O     0.56175   0.11841   0.61764   0.00000  Uiso   1.00
C1039  C     0.59317   0.15071   0.62399   0.00000  Uiso   1.00
H1040  H     0.59996   0.15197   0.66033   0.00000  Uiso   1.00
H1041  H     0.58504   0.18660   0.61229   0.00000  Uiso   1.00
C1042  C     0.63187   0.13457   0.60051   0.00000  Uiso   1.00
H1043  H     0.63878   0.09784   0.60945   0.00000  Uiso   1.00
H1044  H     0.62682   0.13776   0.56380   0.00000  Uiso   1.00
C1045  C     0.33529   0.16332   0.61353   0.00000  Uiso   1.00
H1046  H     0.66232   0.20032   0.60539   0.00000  Uiso   1.00
H1047  H     0.36239   0.15165   0.59473   0.00000  Uiso   1.00
H1048  H     0.34240   0.15902   0.64978   0.00000  Uiso   1.00
N1049  N     0.38695   0.21008   0.95650   0.00000  Uiso   1.00
O1050  O     0.36851   0.17955   0.93235   0.00000  Uiso   1.00
O1051  O     0.36603   0.24569   0.97000   0.00000  Uiso   1.00
N1052  N     0.57571   0.06693   0.54463   0.00000  Uiso   1.00
O1053  O     0.55869   0.03991   0.57359   0.00000  Uiso   1.00
O1054  O     0.61063   0.05414   0.52832   0.00000  Uiso   1.00
N1055  N     0.37844   0.09291   0.79169   0.00000  Uiso   1.00
O1056  O     0.40017   0.09970   0.82782   0.00000  Uiso   1.00
O1057  O     0.37771   0.05210   0.77432   0.00000  Uiso   1.00
N1058  N     0.62197   0.24508   0.71437   0.00000  Uiso   1.00
O1059  O     0.59968   0.24160   0.67814   0.00000  Uiso   1.00
O1060  O     0.62748   0.28562   0.73121   0.00000  Uiso   1.00
N1061  N     0.62760   0.09155   0.79068   0.00000  Uiso   1.00
O1062  O     0.61575   0.05682   0.76703   0.00000  Uiso   1.00
O1063  O     0.63319   0.08593   0.83360   0.00000  Uiso   1.00
N1064  N     0.37281   0.24426   0.71226   0.00000  Uiso   1.00
O1065  O     0.38661   0.27752   0.73665   0.00000  Uiso   1.00
O1066  O     0.36563   0.25205   0.66988   0.00000  Uiso   1.00
N1067  N     0.46403   0.05000   0.67803   0.00000  Uiso   1.00
O1068  O     0.42685   0.06560   0.68269   0.00000  Uiso   1.00
O1069  O     0.47913   0.04851   0.63822   0.00000  Uiso   1.00
N1070  N     0.53923   0.28330   0.82004   0.00000  Uiso   1.00
O1071  O     0.57612   0.26865   0.81210   0.00000  Uiso   1.00
O1072  O     0.52819   0.28628   0.86139   0.00000  Uiso   1.00
N1073  N     0.52358   0.04428   0.82789   0.00000  Uiso   1.00
O1074  O     0.49501   0.04664   0.85739   0.00000  Uiso   1.00
O1075  O     0.56141   0.04542   0.84171   0.00000  Uiso   1.00
N1076  N     0.47639   0.28896   0.67211   0.00000  Uiso   1.00
O1077  O     0.43862   0.28836   0.65801   0.00000  Uiso   1.00
O1078  O     0.50510   0.28601   0.64280   0.00000  Uiso   1.00
O1079  O     0.77321   0.20625   0.75000   0.00000  Uiso   1.00
O1080  O     0.89345   0.12709   0.75000   0.00000  Uiso   1.00
O1081  O     0.89345   0.20625   0.75000   0.00000  Uiso   1.00
O1082  O     0.77321   0.12709   0.75000   0.00000  Uiso   1.00
C1083  C     0.75423   0.16721   0.75029   0.00000  Uiso   1.00
C1084  C     0.91248   0.16641   0.75011   0.00000  Uiso   1.00
O1085  O     0.83332   0.20627   0.68513   0.00000  Uiso   1.00
O1086  O     0.83334   0.12707   0.81487   0.00000  Uiso   1.00
O1087  O     0.83334   0.20627   0.81487   0.00000  Uiso   1.00
O1088  O     0.83332   0.12707   0.68513   0.00000  Uiso   1.00
C1089  C     0.83384   0.16676   0.66455   0.00000  Uiso   1.00
C1090  C     0.83141   0.16635   0.83530   0.00000  Uiso   1.00
Cu1091 Cu    0.83333   0.21355   0.75000   0.00000  Uiso   1.00
Cu1092 Cu    0.83333   0.11978   0.75000   0.00000  Uiso   1.00
C1093  C     0.85866   0.13974   0.90745   0.00000  Uiso   1.00
C1094  C     0.80078   0.18732   0.59272   0.00000  Uiso   1.00
C1095  C     0.82859   0.16485   0.88358   0.00000  Uiso   1.00
C1096  C     0.83337   0.16587   0.61608   0.00000  Uiso   1.00
C1097  C     0.79488   0.18485   0.90519   0.00000  Uiso   1.00
C1098  C     0.86247   0.13862   0.59378   0.00000  Uiso   1.00
C1099  C     0.79264   0.18080   0.95250   0.00000  Uiso   1.00
C1100  C     0.85850   0.13285   0.54719   0.00000  Uiso   1.00
C1101  C     0.82562   0.15837   0.97645   0.00000  Uiso   1.00
C1102  C     0.82717   0.15817   0.52342   0.00000  Uiso   1.00
C1103  C     0.85713   0.13575   0.95353   0.00000  Uiso   1.00
C1104  C     0.79732   0.18336   0.54654   0.00000  Uiso   1.00
C1105  C     0.75926   0.19862   0.97708   0.00000  Uiso   1.00
C1106  C     0.88524   0.10358   0.52321   0.00000  Uiso   1.00
C1107  C     0.76326   0.20229   0.52350   0.00000  Uiso   1.00
C1108  C     0.88594   0.10782   0.97672   0.00000  Uiso   1.00
H1109  H     0.88349   0.12325   0.88985   0.00000  Uiso   1.00
H1110  H     0.77752   0.20604   0.61078   0.00000  Uiso   1.00
H1111  H     0.73863   0.21802   0.54198   0.00000  Uiso   1.00
H1112  H     0.90775   0.08734   0.95832   0.00000  Uiso   1.00
C1113  C     0.68938   0.13049   0.77040   0.00000  Uiso   1.00
C1114  C     0.97747   0.20552   0.73270   0.00000  Uiso   1.00
C1115  C     0.98021   0.12928   0.76891   0.00000  Uiso   1.00
C1116  C     0.68674   0.20620   0.73350   0.00000  Uiso   1.00
C1117  C     0.95722   0.16654   0.74978   0.00000  Uiso   1.00
C1118  C     0.70959   0.16837   0.75183   0.00000  Uiso   1.00
C1119  C     0.81762   0.02573   0.71442   0.00000  Uiso   1.00
C1120  C     0.84965   0.30752   0.78533   0.00000  Uiso   1.00
C1121  C     0.84751   0.02322   0.78636   0.00000  Uiso   1.00
C1122  C     0.81915   0.31005   0.71365   0.00000  Uiso   1.00
N1123  N     0.83333   0.28402   0.75000   0.00000  Uiso   1.00
N1124  N     0.83333   0.04931   0.75000   0.00000  Uiso   1.00
O1125  O     0.76294   0.20384   0.87936   0.00000  Uiso   1.00
C1126  C     0.76542   0.25240   0.87839   0.00000  Uiso   1.00
H1127  H     0.78968   0.26310   0.85552   0.00000  Uiso   1.00
H1128  H     0.77194   0.26667   0.91212   0.00000  Uiso   1.00
C1129  C     0.72489   0.27297   0.86028   0.00000  Uiso   1.00
H1130  H     0.72024   0.26268   0.82499   0.00000  Uiso   1.00
H1131  H     0.69914   0.25948   0.87976   0.00000  Uiso   1.00
C1132  C     0.72430   0.32539   0.86289   0.00000  Uiso   1.00
H1133  H     0.72805   0.00296   0.89811   0.00000  Uiso   1.00
H1134  H     0.69454   0.00597   0.84955   0.00000  Uiso   1.00
H1135  H     0.74943   0.00633   0.84292   0.00000  Uiso   1.00
O1136  O     0.89508   0.11841   0.61764   0.00000  Uiso   1.00
C1137  C     0.92651   0.15071   0.62399   0.00000  Uiso   1.00
H1138  H     0.93329   0.15197   0.66033   0.00000  Uiso   1.00
H1139  H     0.91837   0.18660   0.61229   0.00000  Uiso   1.00
C1140  C     0.96521   0.13457   0.60051   0.00000  Uiso   1.00
H1141  H     0.97211   0.09784   0.60945   0.00000  Uiso   1.00
H1142  H     0.96015   0.13776   0.56380   0.00000  Uiso   1.00
C1143  C     0.66863   0.16332   0.61353   0.00000  Uiso   1.00
H1144  H     0.99565   0.20032   0.60539   0.00000  Uiso   1.00
H1145  H     0.69572   0.15165   0.59473   0.00000  Uiso   1.00
H1146  H     0.67574   0.15902   0.64978   0.00000  Uiso   1.00
N1147  N     0.72028   0.21008   0.95650   0.00000  Uiso   1.00
O1148  O     0.70184   0.17955   0.93235   0.00000  Uiso   1.00
O1149  O     0.69937   0.24569   0.97000   0.00000  Uiso   1.00
N1150  N     0.90904   0.06693   0.54463   0.00000  Uiso   1.00
O1151  O     0.89202   0.03991   0.57359   0.00000  Uiso   1.00
O1152  O     0.94396   0.05414   0.52832   0.00000  Uiso   1.00
N1153  N     0.71177   0.09291   0.79169   0.00000  Uiso   1.00
O1154  O     0.73351   0.09970   0.82782   0.00000  Uiso   1.00
O1155  O     0.71104   0.05210   0.77432   0.00000  Uiso   1.00
N1156  N     0.95530   0.24508   0.71437   0.00000  Uiso   1.00
O1157  O     0.93302   0.24160   0.67814   0.00000  Uiso   1.00
O1158  O     0.96082   0.28562   0.73121   0.00000  Uiso   1.00
N1159  N     0.96093   0.09155   0.79068   0.00000  Uiso   1.00
O1160  O     0.94908   0.05682   0.76703   0.00000  Uiso   1.00
O1161  O     0.96652   0.08593   0.83360   0.00000  Uiso   1.00
N1162  N     0.70614   0.24426   0.71226   0.00000  Uiso   1.00
O1163  O     0.71994   0.27752   0.73665   0.00000  Uiso   1.00
O1164  O     0.69896   0.25205   0.66988   0.00000  Uiso   1.00
N1165  N     0.79736   0.05000   0.67803   0.00000  Uiso   1.00
O1166  O     0.76019   0.06560   0.68269   0.00000  Uiso   1.00
O1167  O     0.81246   0.04851   0.63822   0.00000  Uiso   1.00
N1168  N     0.87256   0.28330   0.82004   0.00000  Uiso   1.00
O1169  O     0.90945   0.26865   0.81210   0.00000  Uiso   1.00
O1170  O     0.86152   0.28628   0.86139   0.00000  Uiso   1.00
N1171  N     0.85692   0.04428   0.82789   0.00000  Uiso   1.00
O1172  O     0.82835   0.04664   0.85739   0.00000  Uiso   1.00
O1173  O     0.89474   0.04542   0.84171   0.00000  Uiso   1.00
N1174  N     0.80972   0.28896   0.67211   0.00000  Uiso   1.00
O1175  O     0.77196   0.28836   0.65801   0.00000  Uiso   1.00
O1176  O     0.83843   0.28601   0.64280   0.00000  Uiso   1.00
O1177  O     0.10655   0.53958   0.75000   0.00000  Uiso   1.00
O1178  O     0.22679   0.46042   0.75000   0.00000  Uiso   1.00
O1179  O     0.22679   0.53958   0.75000   0.00000  Uiso   1.00
O1180  O     0.10655   0.46042   0.75000   0.00000  Uiso   1.00
C1181  C     0.08756   0.50054   0.75029   0.00000  Uiso   1.00
C1182  C     0.24581   0.49974   0.75011   0.00000  Uiso   1.00
O1183  O     0.16666   0.53960   0.68513   0.00000  Uiso   1.00
O1184  O     0.16668   0.46040   0.81487   0.00000  Uiso   1.00
O1185  O     0.16668   0.53960   0.81487   0.00000  Uiso   1.00
O1186  O     0.16666   0.46040   0.68513   0.00000  Uiso   1.00
C1187  C     0.16717   0.50009   0.66455   0.00000  Uiso   1.00
C1188  C     0.16475   0.49968   0.83530   0.00000  Uiso   1.00
Cu1189 Cu    0.16667   0.54689   0.75000   0.00000  Uiso   1.00
Cu1190 Cu    0.16667   0.45311   0.75000   0.00000  Uiso   1.00
C1191  C     0.19200   0.47307   0.90745   0.00000  Uiso   1.00
C1192  C     0.13412   0.52065   0.59272   0.00000  Uiso   1.00
C1193  C     0.16192   0.49819   0.88358   0.00000  Uiso   1.00
C1194  C     0.16671   0.49920   0.61608   0.00000  Uiso   1.00
C1195  C     0.12821   0.51818   0.90519   0.00000  Uiso   1.00
C1196  C     0.19581   0.47196   0.59378   0.00000  Uiso   1.00
C1197  C     0.12597   0.51413   0.95250   0.00000  Uiso   1.00
C1198  C     0.19184   0.46618   0.54719   0.00000  Uiso   1.00
C1199  C     0.15895   0.49170   0.97645   0.00000  Uiso   1.00
C1200  C     0.16050   0.49151   0.52342   0.00000  Uiso   1.00
C1201  C     0.19046   0.46908   0.95353   0.00000  Uiso   1.00
C1202  C     0.13065   0.51669   0.54654   0.00000  Uiso   1.00
C1203  C     0.09259   0.53195   0.97708   0.00000  Uiso   1.00
C1204  C     0.21857   0.43692   0.52321   0.00000  Uiso   1.00
C1205  C     0.09660   0.53562   0.52350   0.00000  Uiso   1.00
C1206  C     0.21928   0.44116   0.97672   0.00000  Uiso   1.00
H1207  H     0.21683   0.45659   0.88985   0.00000  Uiso   1.00
H1208  H     0.11085   0.53937   0.61078   0.00000  Uiso   1.00
H1209  H     0.07197   0.55136   0.54198   0.00000  Uiso   1.00
H1210  H     0.24109   0.42067   0.95832   0.00000  Uiso   1.00
C1211  C     0.02271   0.46382   0.77040   0.00000  Uiso   1.00
C1212  C     0.31080   0.53885   0.73270   0.00000  Uiso   1.00
C1213  C     0.31354   0.46261   0.76891   0.00000  Uiso   1.00
C1214  C     0.02007   0.53953   0.73350   0.00000  Uiso   1.00
C1215  C     0.29056   0.49987   0.74978   0.00000  Uiso   1.00
C1216  C     0.04292   0.50171   0.75183   0.00000  Uiso   1.00
C1217  C     0.15096   0.35906   0.71442   0.00000  Uiso   1.00
C1218  C     0.18299   0.64085   0.78533   0.00000  Uiso   1.00
C1219  C     0.18084   0.35656   0.78636   0.00000  Uiso   1.00
C1220  C     0.15249   0.64339   0.71365   0.00000  Uiso   1.00
N1221  N     0.16667   0.61736   0.75000   0.00000  Uiso   1.00
N1222  N     0.16667   0.38264   0.75000   0.00000  Uiso   1.00
O1223  O     0.09628   0.53717   0.87936   0.00000  Uiso   1.00
C1224  C     0.09875   0.58573   0.87839   0.00000  Uiso   1.00
H1225  H     0.12301   0.59643   0.85552   0.00000  Uiso   1.00
H1226  H     0.10527   0.60000   0.91212   0.00000  Uiso   1.00
C1227  C     0.05822   0.60630   0.86028   0.00000  Uiso   1.00
H1228  H     0.05357   0.59601   0.82499   0.00000  Uiso   1.00
H1229  H     0.03247   0.59281   0.87976   0.00000  Uiso   1.00
C1230  C     0.05764   0.65872   0.86289   0.00000  Uiso   1.00
H1231  H     0.06138   0.33630   0.89811   0.00000  Uiso   1.00
H1232  H     0.02788   0.33930   0.84955   0.00000  Uiso   1.00
H1233  H     0.08276   0.33967   0.84292   0.00000  Uiso   1.00
O1234  O     0.22841   0.45174   0.61764   0.00000  Uiso   1.00
C1235  C     0.25984   0.48404   0.62399   0.00000  Uiso   1.00
H1236  H     0.26662   0.48530   0.66033   0.00000  Uiso   1.00
H1237  H     0.25171   0.51993   0.61229   0.00000  Uiso   1.00
C1238  C     0.29854   0.46790   0.60051   0.00000  Uiso   1.00
H1239  H     0.30544   0.43117   0.60945   0.00000  Uiso   1.00
H1240  H     0.29348   0.47109   0.56380   0.00000  Uiso   1.00
C1241  C     0.00196   0.49666   0.61353   0.00000  Uiso   1.00
H1242  H     0.32898   0.53365   0.60539   0.00000  Uiso   1.00
H1243  H     0.02906   0.48498   0.59473   0.00000  Uiso   1.00
H1244  H     0.00907   0.49235   0.64978   0.00000  Uiso   1.00
N1245  N     0.05361   0.54341   0.95650   0.00000  Uiso   1.00
O1246  O     0.03517   0.51289   0.93235   0.00000  Uiso   1.00
O1247  O     0.03270   0.57902   0.97000   0.00000  Uiso   1.00
N1248  N     0.24238   0.40026   0.54463   0.00000  Uiso   1.00
O1249  O     0.22535   0.37324   0.57359   0.00000  Uiso   1.00
O1250  O     0.27730   0.38747   0.52832   0.00000  Uiso   1.00
N1251  N     0.04510   0.42624   0.79169   0.00000  Uiso   1.00
O1252  O     0.06684   0.43303   0.82782   0.00000  Uiso   1.00
O1253  O     0.04438   0.38543   0.77432   0.00000  Uiso   1.00
N1254  N     0.28863   0.57841   0.71437   0.00000  Uiso   1.00
O1255  O     0.26635   0.57493   0.67814   0.00000  Uiso   1.00
O1256  O     0.29415   0.61895   0.73121   0.00000  Uiso   1.00
N1257  N     0.29426   0.42489   0.79068   0.00000  Uiso   1.00
O1258  O     0.28241   0.39016   0.76703   0.00000  Uiso   1.00
O1259  O     0.29985   0.41926   0.83360   0.00000  Uiso   1.00
N1260  N     0.03948   0.57760   0.71226   0.00000  Uiso   1.00
O1261  O     0.05327   0.61085   0.73665   0.00000  Uiso   1.00
O1262  O     0.03230   0.58538   0.66988   0.00000  Uiso   1.00
N1263  N     0.13069   0.38333   0.67803   0.00000  Uiso   1.00
O1264  O     0.09352   0.39894   0.68269   0.00000  Uiso   1.00
O1265  O     0.14579   0.38184   0.63822   0.00000  Uiso   1.00
N1266  N     0.20590   0.61663   0.82004   0.00000  Uiso   1.00
O1267  O     0.24278   0.60198   0.81210   0.00000  Uiso   1.00
O1268  O     0.19485   0.61961   0.86139   0.00000  Uiso   1.00
N1269  N     0.19025   0.37762   0.82789   0.00000  Uiso   1.00
O1270  O     0.16168   0.37998   0.85739   0.00000  Uiso   1.00
O1271  O     0.22807   0.37875   0.84171   0.00000  Uiso   1.00
N1272  N     0.14306   0.62229   0.67211   0.00000  Uiso   1.00
O1273  O     0.10529   0.62170   0.65801   0.00000  Uiso   1.00
O1274  O     0.17176   0.61934   0.64280   0.00000  Uiso   1.00
O1275  O     0.43988   0.53958   0.75000   0.00000  Uiso   1.00
O1276  O     0.56012   0.46042   0.75000   0.00000  Uiso   1.00
O1277  O     0.56012   0.53958   0.75000   0.00000  Uiso   1.00
O1278  O     0.43988   0.46042   0.75000   0.00000  Uiso   1.00
C1279  C     0.42090   0.50054   0.75029   0.00000  Uiso   1.00
C1280  C     0.57915   0.49974   0.75011   0.00000  Uiso   1.00
O1281  O     0.49999   0.53960   0.68513   0.00000  Uiso   1.00
O1282  O     0.50001   0.46040   0.81487   0.00000  Uiso   1.00
O1283  O     0.50001   0.53960   0.81487   0.00000  Uiso   1.00
O1284  O     0.49999   0.46040   0.68513   0.00000  Uiso   1.00
C1285  C     0.50050   0.50009   0.66455   0.00000  Uiso   1.00
C1286  C     0.49808   0.49968   0.83530   0.00000  Uiso   1.00
Cu1287 Cu    0.50000   0.54689   0.75000   0.00000  Uiso   1.00
Cu1288 Cu    0.50000   0.45311   0.75000   0.00000  Uiso   1.00
C1289  C     0.52533   0.47307   0.90745   0.00000  Uiso   1.00
C1290  C     0.46745   0.52065   0.59272   0.00000  Uiso   1.00
C1291  C     0.49525   0.49819   0.88358   0.00000  Uiso   1.00
C1292  C     0.50004   0.49920   0.61608   0.00000  Uiso   1.00
C1293  C     0.46155   0.51818   0.90519   0.00000  Uiso   1.00
C1294  C     0.52914   0.47196   0.59378   0.00000  Uiso   1.00
C1295  C     0.45930   0.51413   0.95250   0.00000  Uiso   1.00
C1296  C     0.52517   0.46618   0.54719   0.00000  Uiso   1.00
C1297  C     0.49228   0.49170   0.97645   0.00000  Uiso   1.00
C1298  C     0.49384   0.49151   0.52342   0.00000  Uiso   1.00
C1299  C     0.52380   0.46908   0.95353   0.00000  Uiso   1.00
C1300  C     0.46399   0.51669   0.54654   0.00000  Uiso   1.00
C1301  C     0.42593   0.53195   0.97708   0.00000  Uiso   1.00
C1302  C     0.55191   0.43692   0.52321   0.00000  Uiso   1.00
C1303  C     0.42993   0.53562   0.52350   0.00000  Uiso   1.00
C1304  C     0.55261   0.44116   0.97672   0.00000  Uiso   1.00
H1305  H     0.55016   0.45659   0.88985   0.00000  Uiso   1.00
H1306  H     0.44418   0.53937   0.61078   0.00000  Uiso   1.00
H1307  H     0.40530   0.55136   0.54198   0.00000  Uiso   1.00
H1308  H     0.57442   0.42067   0.95832   0.00000  Uiso   1.00
C1309  C     0.35604   0.46382   0.77040   0.00000  Uiso   1.00
C1310  C     0.64414   0.53885   0.73270   0.00000  Uiso   1.00
C1311  C     0.64687   0.46261   0.76891   0.00000  Uiso   1.00
C1312  C     0.35340   0.53953   0.73350   0.00000  Uiso   1.00
C1313  C     0.62389   0.49987   0.74978   0.00000  Uiso   1.00
C1314  C     0.37626   0.50171   0.75183   0.00000  Uiso   1.00
C1315  C     0.48429   0.35906   0.71442   0.00000  Uiso   1.00
C1316  C     0.51632   0.64085   0.78533   0.00000  Uiso   1.00
C1317  C     0.51418   0.35656   0.78636   0.00000  Uiso   1.00
C1318  C     0.48582   0.64339   0.71365   0.00000  Uiso   1.00
N1319  N     0.50000   0.61736   0.75000   0.00000  Uiso   1.00
N1320  N     0.50000   0.38264   0.75000   0.00000  Uiso   1.00
O1321  O     0.42961   0.53717   0.87936   0.00000  Uiso   1.00
C1322  C     0.43208   0.58573   0.87839   0.00000  Uiso   1.00
H1323  H     0.45634   0.59643   0.85552   0.00000  Uiso   1.00
H1324  H     0.43860   0.60000   0.91212   0.00000  Uiso   1.00
C1325  C     0.39155   0.60630   0.86028   0.00000  Uiso   1.00
H1326  H     0.38691   0.59601   0.82499   0.00000  Uiso   1.00
H1327  H     0.36580   0.59281   0.87976   0.00000  Uiso   1.00
C1328  C     0.39097   0.65872   0.86289   0.00000  Uiso   1.00
H1329  H     0.39471   0.33630   0.89811   0.00000  Uiso   1.00
H1330  H     0.36121   0.33930   0.84955   0.00000  Uiso   1.00
H1331  H     0.41609   0.33967   0.84292   0.00000  Uiso   1.00
O1332  O     0.56175   0.45174   0.61764   0.00000  Uiso   1.00
C1333  C     0.59317   0.48404   0.62399   0.00000  Uiso   1.00
H1334  H     0.59996   0.48530   0.66033   0.00000  Uiso   1.00
H1335  H     0.58504   0.51993   0.61229   0.00000  Uiso   1.00
C1336  C     0.63187   0.46790   0.60051   0.00000  Uiso   1.00
H1337  H     0.63878   0.43117   0.60945   0.00000  Uiso   1.00
H1338  H     0.62682   0.47109   0.56380   0.00000  Uiso   1.00
C1339  C     0.33529   0.49666   0.61353   0.00000  Uiso   1.00
H1340  H     0.66232   0.53365   0.60539   0.00000  Uiso   1.00
H1341  H     0.36239   0.48498   0.59473   0.00000  Uiso   1.00
H1342  H     0.34240   0.49235   0.64978   0.00000  Uiso   1.00
N1343  N     0.38695   0.54341   0.95650   0.00000  Uiso   1.00
O1344  O     0.36851   0.51289   0.93235   0.00000  Uiso   1.00
O1345  O     0.36603   0.57902   0.97000   0.00000  Uiso   1.00
N1346  N     0.57571   0.40026   0.54463   0.00000  Uiso   1.00
O1347  O     0.55869   0.37324   0.57359   0.00000  Uiso   1.00
O1348  O     0.61063   0.38747   0.52832   0.00000  Uiso   1.00
N1349  N     0.37844   0.42624   0.79169   0.00000  Uiso   1.00
O1350  O     0.40017   0.43303   0.82782   0.00000  Uiso   1.00
O1351  O     0.37771   0.38543   0.77432   0.00000  Uiso   1.00
N1352  N     0.62197   0.57841   0.71437   0.00000  Uiso   1.00
O1353  O     0.59968   0.57493   0.67814   0.00000  Uiso   1.00
O1354  O     0.62748   0.61895   0.73121   0.00000  Uiso   1.00
N1355  N     0.62760   0.42489   0.79068   0.00000  Uiso   1.00
O1356  O     0.61575   0.39016   0.76703   0.00000  Uiso   1.00
O1357  O     0.63319   0.41926   0.83360   0.00000  Uiso   1.00
N1358  N     0.37281   0.57760   0.71226   0.00000  Uiso   1.00
O1359  O     0.38661   0.61085   0.73665   0.00000  Uiso   1.00
O1360  O     0.36563   0.58538   0.66988   0.00000  Uiso   1.00
N1361  N     0.46403   0.38333   0.67803   0.00000  Uiso   1.00
O1362  O     0.42685   0.39894   0.68269   0.00000  Uiso   1.00
O1363  O     0.47913   0.38184   0.63822   0.00000  Uiso   1.00
N1364  N     0.53923   0.61663   0.82004   0.00000  Uiso   1.00
O1365  O     0.57612   0.60198   0.81210   0.00000  Uiso   1.00
O1366  O     0.52819   0.61961   0.86139   0.00000  Uiso   1.00
N1367  N     0.52358   0.37762   0.82789   0.00000  Uiso   1.00
O1368  O     0.49501   0.37998   0.85739   0.00000  Uiso   1.00
O1369  O     0.56141   0.37875   0.84171   0.00000  Uiso   1.00
N1370  N     0.47639   0.62229   0.67211   0.00000  Uiso   1.00
O1371  O     0.43862   0.62170   0.65801   0.00000  Uiso   1.00
O1372  O     0.50510   0.61934   0.64280   0.00000  Uiso   1.00
O1373  O     0.77321   0.53958   0.75000   0.00000  Uiso   1.00
O1374  O     0.89345   0.46042   0.75000   0.00000  Uiso   1.00
O1375  O     0.89345   0.53958   0.75000   0.00000  Uiso   1.00
O1376  O     0.77321   0.46042   0.75000   0.00000  Uiso   1.00
C1377  C     0.75423   0.50054   0.75029   0.00000  Uiso   1.00
C1378  C     0.91248   0.49974   0.75011   0.00000  Uiso   1.00
O1379  O     0.83332   0.53960   0.68513   0.00000  Uiso   1.00
O1380  O     0.83334   0.46040   0.81487   0.00000  Uiso   1.00
O1381  O     0.83334   0.53960   0.81487   0.00000  Uiso   1.00
O1382  O     0.83332   0.46040   0.68513   0.00000  Uiso   1.00
C1383  C     0.83384   0.50009   0.66455   0.00000  Uiso   1.00
C1384  C     0.83141   0.49968   0.83530   0.00000  Uiso   1.00
Cu1385 Cu    0.83333   0.54689   0.75000   0.00000  Uiso   1.00
Cu1386 Cu    0.83333   0.45311   0.75000   0.00000  Uiso   1.00
C1387  C     0.85866   0.47307   0.90745   0.00000  Uiso   1.00
C1388  C     0.80078   0.52065   0.59272   0.00000  Uiso   1.00
C1389  C     0.82859   0.49819   0.88358   0.00000  Uiso   1.00
C1390  C     0.83337   0.49920   0.61608   0.00000  Uiso   1.00
C1391  C     0.79488   0.51818   0.90519   0.00000  Uiso   1.00
C1392  C     0.86247   0.47196   0.59378   0.00000  Uiso   1.00
C1393  C     0.79264   0.51413   0.95250   0.00000  Uiso   1.00
C1394  C     0.85850   0.46618   0.54719   0.00000  Uiso   1.00
C1395  C     0.82562   0.49170   0.97645   0.00000  Uiso   1.00
C1396  C     0.82717   0.49151   0.52342   0.00000  Uiso   1.00
C1397  C     0.85713   0.46908   0.95353   0.00000  Uiso   1.00
C1398  C     0.79732   0.51669   0.54654   0.00000  Uiso   1.00
C1399  C     0.75926   0.53195   0.97708   0.00000  Uiso   1.00
C1400  C     0.88524   0.43692   0.52321   0.00000  Uiso   1.00
C1401  C     0.76326   0.53562   0.52350   0.00000  Uiso   1.00
C1402  C     0.88594   0.44116   0.97672   0.00000  Uiso   1.00
H1403  H     0.88349   0.45659   0.88985   0.00000  Uiso   1.00
H1404  H     0.77752   0.53937   0.61078   0.00000  Uiso   1.00
H1405  H     0.73863   0.55136   0.54198   0.00000  Uiso   1.00
H1406  H     0.90775   0.42067   0.95832   0.00000  Uiso   1.00
C1407  C     0.68938   0.46382   0.77040   0.00000  Uiso   1.00
C1408  C     0.97747   0.53885   0.73270   0.00000  Uiso   1.00
C1409  C     0.98021   0.46261   0.76891   0.00000  Uiso   1.00
C1410  C     0.68674   0.53953   0.73350   0.00000  Uiso   1.00
C1411  C     0.95722   0.49987   0.74978   0.00000  Uiso   1.00
C1412  C     0.70959   0.50171   0.75183   0.00000  Uiso   1.00
C1413  C     0.81762   0.35906   0.71442   0.00000  Uiso   1.00
C1414  C     0.84965   0.64085   0.78533   0.00000  Uiso   1.00
C1415  C     0.84751   0.35656   0.78636   0.00000  Uiso   1.00
C1416  C     0.81915   0.64339   0.71365   0.00000  Uiso   1.00
N1417  N     0.83333   0.61736   0.75000   0.00000  Uiso   1.00
N1418  N     0.83333   0.38264   0.75000   0.00000  Uiso   1.00
O1419  O     0.76294   0.53717   0.87936   0.00000  Uiso   1.00
C1420  C     0.76542   0.58573   0.87839   0.00000  Uiso   1.00
H1421  H     0.78968   0.59643   0.85552   0.00000  Uiso   1.00
H1422  H     0.77194   0.60000   0.91212   0.00000  Uiso   1.00
C1423  C     0.72489   0.60630   0.86028   0.00000  Uiso   1.00
H1424  H     0.72024   0.59601   0.82499   0.00000  Uiso   1.00
H1425  H     0.69914   0.59281   0.87976   0.00000  Uiso   1.00
C1426  C     0.72430   0.65872   0.86289   0.00000  Uiso   1.00
H1427  H     0.72805   0.33630   0.89811   0.00000  Uiso   1.00
H1428  H     0.69454   0.33930   0.84955   0.00000  Uiso   1.00
H1429  H     0.74943   0.33967   0.84292   0.00000  Uiso   1.00
O1430  O     0.89508   0.45174   0.61764   0.00000  Uiso   1.00
C1431  C     0.92651   0.48404   0.62399   0.00000  Uiso   1.00
H1432  H     0.93329   0.48530   0.66033   0.00000  Uiso   1.00
H1433  H     0.91837   0.51993   0.61229   0.00000  Uiso   1.00
C1434  C     0.96521   0.46790   0.60051   0.00000  Uiso   1.00
H1435  H     0.97211   0.43117   0.60945   0.00000  Uiso   1.00
H1436  H     0.96015   0.47109   0.56380   0.00000  Uiso   1.00
C1437  C     0.66863   0.49666   0.61353   0.00000  Uiso   1.00
H1438  H     0.99565   0.53365   0.60539   0.00000  Uiso   1.00
H1439  H     0.69572   0.48498   0.59473   0.00000  Uiso   1.00
H1440  H     0.67574   0.49235   0.64978   0.00000  Uiso   1.00
N1441  N     0.72028   0.54341   0.95650   0.00000  Uiso   1.00
O1442  O     0.70184   0.51289   0.93235   0.00000  Uiso   1.00
O1443  O     0.69937   0.57902   0.97000   0.00000  Uiso   1.00
N1444  N     0.90904   0.40026   0.54463   0.00000  Uiso   1.00
O1445  O     0.89202   0.37324   0.57359   0.00000  Uiso   1.00
O1446  O     0.94396   0.38747   0.52832   0.00000  Uiso   1.00
N1447  N     0.71177   0.42624   0.79169   0.00000  Uiso   1.00
O1448  O     0.73351   0.43303   0.82782   0.00000  Uiso   1.00
O1449  O     0.71104   0.38543   0.77432   0.00000  Uiso   1.00
N1450  N     0.95530   0.57841   0.71437   0.00000  Uiso   1.00
O1451  O     0.93302   0.57493   0.67814   0.00000  Uiso   1.00
O1452  O     0.96082   0.61895   0.73121   0.00000  Uiso   1.00
N1453  N     0.96093   0.42489   0.79068   0.00000  Uiso   1.00
O1454  O     0.94908   0.39016   0.76703   0.00000  Uiso   1.00
O1455  O     0.96652   0.41926   0.83360   0.00000  Uiso   1.00
N1456  N     0.70614   0.57760   0.71226   0.00000  Uiso   1.00
O1457  O     0.71994   0.61085   0.73665   0.00000  Uiso   1.00
O1458  O     0.69896   0.58538   0.66988   0.00000  Uiso   1.00
N1459  N     0.79736   0.38333   0.67803   0.00000  Uiso   1.00
O1460  O     0.76019   0.39894   0.68269   0.00000  Uiso   1.00
O1461  O     0.81246   0.38184   0.63822   0.00000  Uiso   1.00
N1462  N     0.87256   0.61663   0.82004   0.00000  Uiso   1.00
O1463  O     0.90945   0.60198   0.81210   0.00000  Uiso   1.00
O1464  O     0.86152   0.61961   0.86139   0.00000  Uiso   1.00
N1465  N     0.85692   0.37762   0.82789   0.00000  Uiso   1.00
O1466  O     0.82835   0.37998   0.85739   0.00000  Uiso   1.00
O1467  O     0.89474   0.37875   0.84171   0.00000  Uiso   1.00
N1468  N     0.80972   0.62229   0.67211   0.00000  Uiso   1.00
O1469  O     0.77196   0.62170   0.65801   0.00000  Uiso   1.00
O1470  O     0.83843   0.61934   0.64280   0.00000  Uiso   1.00
O1471  O     0.10655   0.87291   0.75000   0.00000  Uiso   1.00
O1472  O     0.22679   0.79375   0.75000   0.00000  Uiso   1.00
O1473  O     0.22679   0.87291   0.75000   0.00000  Uiso   1.00
O1474  O     0.10655   0.79375   0.75000   0.00000  Uiso   1.00
C1475  C     0.08756   0.83387   0.75029   0.00000  Uiso   1.00
C1476  C     0.24581   0.83307   0.75011   0.00000  Uiso   1.00
O1477  O     0.16666   0.87293   0.68513   0.00000  Uiso   1.00
O1478  O     0.16668   0.79373   0.81487   0.00000  Uiso   1.00
O1479  O     0.16668   0.87293   0.81487   0.00000  Uiso   1.00
O1480  O     0.16666   0.79373   0.68513   0.00000  Uiso   1.00
C1481  C     0.16717   0.83343   0.66455   0.00000  Uiso   1.00
C1482  C     0.16475   0.83301   0.83530   0.00000  Uiso   1.00
Cu1483 Cu    0.16667   0.88022   0.75000   0.00000  Uiso   1.00
Cu1484 Cu    0.16667   0.78645   0.75000   0.00000  Uiso   1.00
C1485  C     0.19200   0.80641   0.90745   0.00000  Uiso   1.00
C1486  C     0.13412   0.85399   0.59272   0.00000  Uiso   1.00
C1487  C     0.16192   0.83152   0.88358   0.00000  Uiso   1.00
C1488  C     0.16671   0.83254   0.61608   0.00000  Uiso   1.00
C1489  C     0.12821   0.85152   0.90519   0.00000  Uiso   1.00
C1490  C     0.19581   0.80529   0.59378   0.00000  Uiso   1.00
C1491  C     0.12597   0.84746   0.95250   0.00000  Uiso   1.00
C1492  C     0.19184   0.79951   0.54719   0.00000  Uiso   1.00
C1493  C     0.15895   0.82503   0.97645   0.00000  Uiso   1.00
C1494  C     0.16050   0.82484   0.52342   0.00000  Uiso   1.00
C1495  C     0.19046   0.80242   0.95353   0.00000  Uiso   1.00
C1496  C     0.13065   0.85003   0.54654   0.00000  Uiso   1.00
C1497  C     0.09259   0.86528   0.97708   0.00000  Uiso   1.00
C1498  C     0.21857   0.77025   0.52321   0.00000  Uiso   1.00
C1499  C     0.09660   0.86896   0.52350   0.00000  Uiso   1.00
C1500  C     0.21928   0.77449   0.97672   0.00000  Uiso   1.00
H1501  H     0.21683   0.78992   0.88985   0.00000  Uiso   1.00
H1502  H     0.11085   0.87270   0.61078   0.00000  Uiso   1.00
H1503  H     0.07197   0.88469   0.54198   0.00000  Uiso   1.00
H1504  H     0.24109   0.75401   0.95832   0.00000  Uiso   1.00
C1505  C     0.02271   0.79716   0.77040   0.00000  Uiso   1.00
C1506  C     0.31080   0.87218   0.73270   0.00000  Uiso   1.00
C1507  C     0.31354   0.79594   0.76891   0.00000  Uiso   1.00
C1508  C     0.02007   0.87287   0.73350   0.00000  Uiso   1.00
C1509  C     0.29056   0.83320   0.74978   0.00000  Uiso   1.00
C1510  C     0.04292   0.83504   0.75183   0.00000  Uiso   1.00
C1511  C     0.15096   0.69240   0.71442   0.00000  Uiso   1.00
C1512  C     0.18299   0.97419   0.78533   0.00000  Uiso   1.00
C1513  C     0.18084   0.68989   0.78636   0.00000  Uiso   1.00
C1514  C     0.15249   0.97672   0.71365   0.00000  Uiso   1.00
N1515  N     0.16667   0.95069   0.75000   0.00000  Uiso   1.00
N1516  N     0.16667   0.71598   0.75000   0.00000  Uiso   1.00
O1517  O     0.09628   0.87050   0.87936   0.00000  Uiso   1.00
C1518  C     0.09875   0.91907   0.87839   0.00000  Uiso   1.00
H1519  H     0.12301   0.92977   0.85552   0.00000  Uiso   1.00
H1520  H     0.10527   0.93334   0.91212   0.00000  Uiso   1.00
C1521  C     0.05822   0.93964   0.86028   0.00000  Uiso   1.00
H1522  H     0.05357   0.92934   0.82499   0.00000  Uiso   1.00
H1523  H     0.03247   0.92614   0.87976   0.00000  Uiso   1.00
C1524  C     0.05764   0.99205   0.86289   0.00000  Uiso   1.00
H1525  H     0.06138   0.66963   0.89811   0.00000  Uiso   1.00
H1526  H     0.02788   0.67264   0.84955   0.00000  Uiso   1.00
H1527  H     0.08276   0.67300   0.84292   0.00000  Uiso   1.00
O1528  O     0.22841   0.78508   0.61764   0.00000  Uiso   1.00
C1529  C     0.25984   0.81737   0.62399   0.00000  Uiso   1.00
H1530  H     0.26662   0.81864   0.66033   0.00000  Uiso   1.00
H1531  H     0.25171   0.85327   0.61229   0.00000  Uiso   1.00
C1532  C     0.29854   0.80124   0.60051   0.00000  Uiso   1.00
H1533  H     0.30544   0.76450   0.60945   0.00000  Uiso   1.00
H1534  H     0.29348   0.80443   0.56380   0.00000  Uiso   1.00
C1535  C     0.00196   0.82999   0.61353   0.00000  Uiso   1.00
H1536  H     0.32898   0.86699   0.60539   0.00000  Uiso   1.00
H1537  H     0.02906   0.81832   0.59473   0.00000  Uiso   1.00
H1538  H     0.00907   0.82568   0.64978   0.00000  Uiso   1.00
N1539  N     0.05361   0.87674   0.95650   0.00000  Uiso   1.00
O1540  O     0.03517   0.84622   0.93235   0.00000  Uiso   1.00
O1541  O     0.03270   0.91236   0.97000   0.00000  Uiso   1.00
N1542  N     0.24238   0.73360   0.54463   0.00000  Uiso   1.00
O1543  O     0.22535   0.70658   0.57359   0.00000  Uiso   1.00
O1544  O     0.27730   0.72081   0.52832   0.00000  Uiso   1.00
N1545  N     0.04510   0.75958   0.79169   0.00000  Uiso   1.00
O1546  O     0.06684   0.76637   0.82782   0.00000  Uiso   1.00
O1547  O     0.04438   0.71876   0.77432   0.00000  Uiso   1.00
N1548  N     0.28863   0.91174   0.71437   0.00000  Uiso   1.00
O1549  O     0.26635   0.90827   0.67814   0.00000  Uiso   1.00
O1550  O     0.29415   0.95229   0.73121   0.00000  Uiso   1.00
N1551  N     0.29426   0.75822   0.79068   0.00000  Uiso   1.00
O1552  O     0.28241   0.72349   0.76703   0.00000  Uiso   1.00
O1553  O     0.29985   0.75259   0.83360   0.00000  Uiso   1.00
N1554  N     0.03948   0.91093   0.71226   0.00000  Uiso   1.00
O1555  O     0.05327   0.94418   0.73665   0.00000  Uiso   1.00
O1556  O     0.03230   0.91872   0.66988   0.00000  Uiso   1.00
N1557  N     0.13069   0.71666   0.67803   0.00000  Uiso   1.00
O1558  O     0.09352   0.73227   0.68269   0.00000  Uiso   1.00
O1559  O     0.14579   0.71518   0.63822   0.00000  Uiso   1.00
N1560  N     0.20590   0.94997   0.82004   0.00000  Uiso   1.00
O1561  O     0.24278   0.93531   0.81210   0.00000  Uiso   1.00
O1562  O     0.19485   0.95294   0.86139   0.00000  Uiso   1.00
N1563  N     0.19025   0.71095   0.82789   0.00000  Uiso   1.00
O1564  O     0.16168   0.71331   0.85739   0.00000  Uiso   1.00
O1565  O     0.22807   0.71209   0.84171   0.00000  Uiso   1.00
N1566  N     0.14306   0.95562   0.67211   0.00000  Uiso   1.00
O1567  O     0.10529   0.95503   0.65801   0.00000  Uiso   1.00
O1568  O     0.17176   0.95267   0.64280   0.00000  Uiso   1.00
O1569  O     0.43988   0.87291   0.75000   0.00000  Uiso   1.00
O1570  O     0.56012   0.79375   0.75000   0.00000  Uiso   1.00
O1571  O     0.56012   0.87291   0.75000   0.00000  Uiso   1.00
O1572  O     0.43988   0.79375   0.75000   0.00000  Uiso   1.00
C1573  C     0.42090   0.83387   0.75029   0.00000  Uiso   1.00
C1574  C     0.57915   0.83307   0.75011   0.00000  Uiso   1.00
O1575  O     0.49999   0.87293   0.68513   0.00000  Uiso   1.00
O1576  O     0.50001   0.79373   0.81487   0.00000  Uiso   1.00
O1577  O     0.50001   0.87293   0.81487   0.00000  Uiso   1.00
O1578  O     0.49999   0.79373   0.68513   0.00000  Uiso   1.00
C1579  C     0.50050   0.83343   0.66455   0.00000  Uiso   1.00
C1580  C     0.49808   0.83301   0.83530   0.00000  Uiso   1.00
Cu1581 Cu    0.50000   0.88022   0.75000   0.00000  Uiso   1.00
Cu1582 Cu    0.50000   0.78645   0.75000   0.00000  Uiso   1.00
C1583  C     0.52533   0.80641   0.90745   0.00000  Uiso   1.00
C1584  C     0.46745   0.85399   0.59272   0.00000  Uiso   1.00
C1585  C     0.49525   0.83152   0.88358   0.00000  Uiso   1.00
C1586  C     0.50004   0.83254   0.61608   0.00000  Uiso   1.00
C1587  C     0.46155   0.85152   0.90519   0.00000  Uiso   1.00
C1588  C     0.52914   0.80529   0.59378   0.00000  Uiso   1.00
C1589  C     0.45930   0.84746   0.95250   0.00000  Uiso   1.00
C1590  C     0.52517   0.79951   0.54719   0.00000  Uiso   1.00
C1591  C     0.49228   0.82503   0.97645   0.00000  Uiso   1.00
C1592  C     0.49384   0.82484   0.52342   0.00000  Uiso   1.00
C1593  C     0.52380   0.80242   0.95353   0.00000  Uiso   1.00
C1594  C     0.46399   0.85003   0.54654   0.00000  Uiso   1.00
C1595  C     0.42593   0.86528   0.97708   0.00000  Uiso   1.00
C1596  C     0.55191   0.77025   0.52321   0.00000  Uiso   1.00
C1597  C     0.42993   0.86896   0.52350   0.00000  Uiso   1.00
C1598  C     0.55261   0.77449   0.97672   0.00000  Uiso   1.00
H1599  H     0.55016   0.78992   0.88985   0.00000  Uiso   1.00
H1600  H     0.44418   0.87270   0.61078   0.00000  Uiso   1.00
H1601  H     0.40530   0.88469   0.54198   0.00000  Uiso   1.00
H1602  H     0.57442   0.75401   0.95832   0.00000  Uiso   1.00
C1603  C     0.35604   0.79716   0.77040   0.00000  Uiso   1.00
C1604  C     0.64414   0.87218   0.73270   0.00000  Uiso   1.00
C1605  C     0.64687   0.79594   0.76891   0.00000  Uiso   1.00
C1606  C     0.35340   0.87287   0.73350   0.00000  Uiso   1.00
C1607  C     0.62389   0.83320   0.74978   0.00000  Uiso   1.00
C1608  C     0.37626   0.83504   0.75183   0.00000  Uiso   1.00
C1609  C     0.48429   0.69240   0.71442   0.00000  Uiso   1.00
C1610  C     0.51632   0.97419   0.78533   0.00000  Uiso   1.00
C1611  C     0.51418   0.68989   0.78636   0.00000  Uiso   1.00
C1612  C     0.48582   0.97672   0.71365   0.00000  Uiso   1.00
N1613  N     0.50000   0.95069   0.75000   0.00000  Uiso   1.00
N1614  N     0.50000   0.71598   0.75000   0.00000  Uiso   1.00
O1615  O     0.42961   0.87050   0.87936   0.00000  Uiso   1.00
C1616  C     0.43208   0.91907   0.87839   0.00000  Uiso   1.00
H1617  H     0.45634   0.92977   0.85552   0.00000  Uiso   1.00
H1618  H     0.43860   0.93334   0.91212   0.00000  Uiso   1.00
C1619  C     0.39155   0.93964   0.86028   0.00000  Uiso   1.00
H1620  H     0.38691   0.92934   0.82499   0.00000  Uiso   1.00
H1621  H     0.36580   0.92614   0.87976   0.00000  Uiso   1.00
C1622  C     0.39097   0.99205   0.86289   0.00000  Uiso   1.00
H1623  H     0.39471   0.66963   0.89811   0.00000  Uiso   1.00
H1624  H     0.36121   0.67264   0.84955   0.00000  Uiso   1.00
H1625  H     0.41609   0.67300   0.84292   0.00000  Uiso   1.00
O1626  O     0.56175   0.78508   0.61764   0.00000  Uiso   1.00
C1627  C     0.59317   0.81737   0.62399   0.00000  Uiso   1.00
H1628  H     0.59996   0.81864   0.66033   0.00000  Uiso   1.00
H1629  H     0.58504   0.85327   0.61229   0.00000  Uiso   1.00
C1630  C     0.63187   0.80124   0.60051   0.00000  Uiso   1.00
H1631  H     0.63878   0.76450   0.60945   0.00000  Uiso   1.00
H1632  H     0.62682   0.80443   0.56380   0.00000  Uiso   1.00
C1633  C     0.33529   0.82999   0.61353   0.00000  Uiso   1.00
H1634  H     0.66232   0.86699   0.60539   0.00000  Uiso   1.00
H1635  H     0.36239   0.81832   0.59473   0.00000  Uiso   1.00
H1636  H     0.34240   0.82568   0.64978   0.00000  Uiso   1.00
N1637  N     0.38695   0.87674   0.95650   0.00000  Uiso   1.00
O1638  O     0.36851   0.84622   0.93235   0.00000  Uiso   1.00
O1639  O     0.36603   0.91236   0.97000   0.00000  Uiso   1.00
N1640  N     0.57571   0.73360   0.54463   0.00000  Uiso   1.00
O1641  O     0.55869   0.70658   0.57359   0.00000  Uiso   1.00
O1642  O     0.61063   0.72081   0.52832   0.00000  Uiso   1.00
N1643  N     0.37844   0.75958   0.79169   0.00000  Uiso   1.00
O1644  O     0.40017   0.76637   0.82782   0.00000  Uiso   1.00
O1645  O     0.37771   0.71876   0.77432   0.00000  Uiso   1.00
N1646  N     0.62197   0.91174   0.71437   0.00000  Uiso   1.00
O1647  O     0.59968   0.90827   0.67814   0.00000  Uiso   1.00
O1648  O     0.62748   0.95229   0.73121   0.00000  Uiso   1.00
N1649  N     0.62760   0.75822   0.79068   0.00000  Uiso   1.00
O1650  O     0.61575   0.72349   0.76703   0.00000  Uiso   1.00
O1651  O     0.63319   0.75259   0.83360   0.00000  Uiso   1.00
N1652  N     0.37281   0.91093   0.71226   0.00000  Uiso   1.00
O1653  O     0.38661   0.94418   0.73665   0.00000  Uiso   1.00
O1654  O     0.36563   0.91872   0.66988   0.00000  Uiso   1.00
N1655  N     0.46403   0.71666   0.67803   0.00000  Uiso   1.00
O1656  O     0.42685   0.73227   0.68269   0.00000  Uiso   1.00
O1657  O     0.47913   0.71518   0.63822   0.00000  Uiso   1.00
N1658  N     0.53923   0.94997   0.82004   0.00000  Uiso   1.00
O1659  O     0.57612   0.93531   0.81210   0.00000  Uiso   1.00
O1660  O     0.52819   0.95294   0.86139   0.00000  Uiso   1.00
N1661  N     0.52358   0.71095   0.82789   0.00000  Uiso   1.00
O1662  O     0.49501   0.71331   0.85739   0.00000  Uiso   1.00
O1663  O     0.56141   0.71209   0.84171   0.00000  Uiso   1.00
N1664  N     0.47639   0.95562   0.67211   0.00000  Uiso   1.00
O1665  O     0.43862   0.95503   0.65801   0.00000  Uiso   1.00
O1666  O     0.50510   0.95267   0.64280   0.00000  Uiso   1.00
O1667  O     0.77321   0.87291   0.75000   0.00000  Uiso   1.00
O1668  O     0.89345   0.79375   0.75000   0.00000  Uiso   1.00
O1669  O     0.89345   0.87291   0.75000   0.00000  Uiso   1.00
O1670  O     0.77321   0.79375   0.75000   0.00000  Uiso   1.00
C1671  C     0.75423   0.83387   0.75029   0.00000  Uiso   1.00
C1672  C     0.91248   0.83307   0.75011   0.00000  Uiso   1.00
O1673  O     0.83332   0.87293   0.68513   0.00000  Uiso   1.00
O1674  O     0.83334   0.79373   0.81487   0.00000  Uiso   1.00
O1675  O     0.83334   0.87293   0.81487   0.00000  Uiso   1.00
O1676  O     0.83332   0.79373   0.68513   0.00000  Uiso   1.00
C1677  C     0.83384   0.83343   0.66455   0.00000  Uiso   1.00
C1678  C     0.83141   0.83301   0.83530   0.00000  Uiso   1.00
Cu1679 Cu    0.83333   0.88022   0.75000   0.00000  Uiso   1.00
Cu1680 Cu    0.83333   0.78645   0.75000   0.00000  Uiso   1.00
C1681  C     0.85866   0.80641   0.90745   0.00000  Uiso   1.00
C1682  C     0.80078   0.85399   0.59272   0.00000  Uiso   1.00
C1683  C     0.82859   0.83152   0.88358   0.00000  Uiso   1.00
C1684  C     0.83337   0.83254   0.61608   0.00000  Uiso   1.00
C1685  C     0.79488   0.85152   0.90519   0.00000  Uiso   1.00
C1686  C     0.86247   0.80529   0.59378   0.00000  Uiso   1.00
C1687  C     0.79264   0.84746   0.95250   0.00000  Uiso   1.00
C1688  C     0.85850   0.79951   0.54719   0.00000  Uiso   1.00
C1689  C     0.82562   0.82503   0.97645   0.00000  Uiso   1.00
C1690  C     0.82717   0.82484   0.52342   0.00000  Uiso   1.00
C1691  C     0.85713   0.80242   0.95353   0.00000  Uiso   1.00
C1692  C     0.79732   0.85003   0.54654   0.00000  Uiso   1.00
C1693  C     0.75926   0.86528   0.97708   0.00000  Uiso   1.00
C1694  C     0.88524   0.77025   0.52321   0.00000  Uiso   1.00
C1695  C     0.76326   0.86896   0.52350   0.00000  Uiso   1.00
C1696  C     0.88594   0.77449   0.97672   0.00000  Uiso   1.00
H1697  H     0.88349   0.78992   0.88985   0.00000  Uiso   1.00
H1698  H     0.77752   0.87270   0.61078   0.00000  Uiso   1.00
H1699  H     0.73863   0.88469   0.54198   0.00000  Uiso   1.00
H1700  H     0.90775   0.75401   0.95832   0.00000  Uiso   1.00
C1701  C     0.68938   0.79716   0.77040   0.00000  Uiso   1.00
C1702  C     0.97747   0.87218   0.73270   0.00000  Uiso   1.00
C1703  C     0.98021   0.79594   0.76891   0.00000  Uiso   1.00
C1704  C     0.68674   0.87287   0.73350   0.00000  Uiso   1.00
C1705  C     0.95722   0.83320   0.74978   0.00000  Uiso   1.00
C1706  C     0.70959   0.83504   0.75183   0.00000  Uiso   1.00
C1707  C     0.81762   0.69240   0.71442   0.00000  Uiso   1.00
C1708  C     0.84965   0.97419   0.78533   0.00000  Uiso   1.00
C1709  C     0.84751   0.68989   0.78636   0.00000  Uiso   1.00
C1710  C     0.81915   0.97672   0.71365   0.00000  Uiso   1.00
N1711  N     0.83333   0.95069   0.75000   0.00000  Uiso   1.00
N1712  N     0.83333   0.71598   0.75000   0.00000  Uiso   1.00
O1713  O     0.76294   0.87050   0.87936   0.00000  Uiso   1.00
C1714  C     0.76542   0.91907   0.87839   0.00000  Uiso   1.00
H1715  H     0.78968   0.92977   0.85552   0.00000  Uiso   1.00
H1716  H     0.77194   0.93334   0.91212   0.00000  Uiso   1.00
C1717  C     0.72489   0.93964   0.86028   0.00000  Uiso   1.00
H1718  H     0.72024   0.92934   0.82499   0.00000  Uiso   1.00
H1719  H     0.69914   0.92614   0.87976   0.00000  Uiso   1.00
C1720  C     0.72430   0.99205   0.86289   0.00000  Uiso   1.00
H1721  H     0.72805   0.66963   0.89811   0.00000  Uiso   1.00
H1722  H     0.69454   0.67264   0.84955   0.00000  Uiso   1.00
H1723  H     0.74943   0.67300   0.84292   0.00000  Uiso   1.00
O1724  O     0.89508   0.78508   0.61764   0.00000  Uiso   1.00
C1725  C     0.92651   0.81737   0.62399   0.00000  Uiso   1.00
H1726  H     0.93329   0.81864   0.66033   0.00000  Uiso   1.00
H1727  H     0.91837   0.85327   0.61229   0.00000  Uiso   1.00
C1728  C     0.96521   0.80124   0.60051   0.00000  Uiso   1.00
H1729  H     0.97211   0.76450   0.60945   0.00000  Uiso   1.00
H1730  H     0.96015   0.80443   0.56380   0.00000  Uiso   1.00
C1731  C     0.66863   0.82999   0.61353   0.00000  Uiso   1.00
H1732  H     0.99565   0.86699   0.60539   0.00000  Uiso   1.00
H1733  H     0.69572   0.81832   0.59473   0.00000  Uiso   1.00
H1734  H     0.67574   0.82568   0.64978   0.00000  Uiso   1.00
N1735  N     0.72028   0.87674   0.95650   0.00000  Uiso   1.00
O1736  O     0.70184   0.84622   0.93235   0.00000  Uiso   1.00
O1737  O     0.69937   0.91236   0.97000   0.00000  Uiso   1.00
N1738  N     0.90904   0.73360   0.54463   0.00000  Uiso   1.00
O1739  O     0.89202   0.70658   0.57359   0.00000  Uiso   1.00
O1740  O     0.94396   0.72081   0.52832   0.00000  Uiso   1.00
N1741  N     0.71177   0.75958   0.79169   0.00000  Uiso   1.00
O1742  O     0.73351   0.76637   0.82782   0.00000  Uiso   1.00
O1743  O     0.71104   0.71876   0.77432   0.00000  Uiso   1.00
N1744  N     0.95530   0.91174   0.71437   0.00000  Uiso   1.00
O1745  O     0.93302   0.90827   0.67814   0.00000  Uiso   1.00
O1746  O     0.96082   0.95229   0.73121   0.00000  Uiso   1.00
N1747  N     0.96093   0.75822   0.79068   0.00000  Uiso   1.00
O1748  O     0.94908   0.72349   0.76703   0.00000  Uiso   1.00
O1749  O     0.96652   0.75259   0.83360   0.00000  Uiso   1.00
N1750  N     0.70614   0.91093   0.71226   0.00000  Uiso   1.00
O1751  O     0.71994   0.94418   0.73665   0.00000  Uiso   1.00
O1752  O     0.69896   0.91872   0.66988   0.00000  Uiso   1.00
N1753  N     0.79736   0.71666   0.67803   0.00000  Uiso   1.00
O1754  O     0.76019   0.73227   0.68269   0.00000  Uiso   1.00
O1755  O     0.81246   0.71518   0.63822   0.00000  Uiso   1.00
N1756  N     0.87256   0.94997   0.82004   0.00000  Uiso   1.00
O1757  O     0.90945   0.93531   0.81210   0.00000  Uiso   1.00
O1758  O     0.86152   0.95294   0.86139   0.00000  Uiso   1.00
N1759  N     0.85692   0.71095   0.82789   0.00000  Uiso   1.00
O1760  O     0.82835   0.71331   0.85739   0.00000  Uiso   1.00
O1761  O     0.89474   0.71209   0.84171   0.00000  Uiso   1.00
N1762  N     0.80972   0.95562   0.67211   0.00000  Uiso   1.00
O1763  O     0.77196   0.95503   0.65801   0.00000  Uiso   1.00
O1764  O     0.83843   0.95267   0.64280   0.00000  Uiso   1.00
loop_
_geom_bond_atom_site_label_1
_geom_bond_atom_site_label_2
_geom_bond_distance
_geom_bond_site_symmetry_2
_ccdc_geom_bond_type
O1     C5      1.303   .     A
O1     Cu13    1.983   .     S
O2     C6      1.311   .     A
O2     Cu14    1.983   .     S
O3     C6      1.301   .     A
O3     Cu13    1.974   .     S
O4     C5      1.308   .     A
O4     Cu14    1.974   .     S
C5     C40     1.462   .     S
C6     C39     1.465   .     S
O7     C11     1.309   .     A
O7     Cu13    1.957   .     S
O8     C12     1.303   .     A
O8     Cu14    1.957   .     S
O9     Cu13    1.950   .     S
O9     C12     1.304   .     A
O10    Cu14    1.950   .     S
O10    C11     1.298   .     A
C11    C18     1.452   .     S
C12    C17     1.451   .     S
Cu13   Cu14    2.719   .     S
Cu13   N45     2.044   .     S
Cu14   N46     2.044   .     S
C15    C25     1.385   .     A
C15    C17     1.390   .     A
C15    H31     1.085   .     S
C16    C26     1.391   .     A
C16    H32     1.085   .     S
C16    C18     1.392   .     A
C17    C19     1.410   .     A
C18    C20     1.411   .     A
C19    O47     1.386   .     S
C19    C21     1.423   .     A
C20    C22     1.411   .     A
C20    O58     1.385   .     S
C21    C27     1.423   .     A
C21    C23     1.423   .     A
C22    C28     1.420   .     A
C22    C24     1.420   .     A
C23    C25     1.408   .     A
C23    C906    1.406   .     S
C24    C26     1.408   .     A
C24    C905    1.406   1_554 S
C25    C30     1.396   .     A
C26    C29     1.396   .     A
C27    N69     1.435   .     S
C27    C911    1.399   .     S
C28    N72     1.439   .     S
C28    C912    1.396   1_554 S
C29    H33     1.085   .     S
C29    C909    1.399   1_554 S
C30    H34     1.084   .     S
C30    C910    1.396   .     S
C35    N75     1.434   .     S
C35    C40     1.407   .     A
C35    C233    1.392   1_455 S
C36    C39     1.416   .     A
C36    N78     1.439   .     S
C36    C136    1.394   .     S
C37    N81     1.430   .     S
C37    C39     1.410   .     A
C37    C133    1.392   .     S
C38    C40     1.412   .     A
C38    N84     1.432   .     S
C38    C232    1.394   1_455 S
C41    N46     1.371   .     A
C41    N87     1.430   .     S
C41    C632    1.422   1_545 S
C42    N45     1.372   .     A
C42    N90     1.434   .     S
C42    C337    1.423   .     S
C43    N93     1.424   .     S
C43    N46     1.382   .     A
C43    C630    1.423   1_545 S
C44    N96     1.425   .     S
C44    N45     1.381   .     A
C44    C335    1.422   .     S
O47    C48     1.412   .     S
C48    C51     1.528   .     S
C48    H50     1.115   .     S
C48    H49     1.106   .     S
C51    H52     1.111   .     S
C51    H53     1.110   .     S
C51    C54     1.523   .     S
C54    H349    1.111   .     S
C54    H350    1.110   .     S
C54    H351    1.110   .     S
H55    C642    1.111   1_545 S
H56    C642    1.110   1_545 S
H57    C642    1.110   1_545 S
O58    C59     1.417   .     S
C59    H60     1.107   .     S
C59    H61     1.118   .     S
C59    C62     1.530   .     S
C62    H64     1.110   .     S
C62    H63     1.112   .     S
C62    C163    1.525   .     S
C65    H67     1.111   .     S
C65    H68     1.110   .     S
C65    C258    1.525   1_455 S
C65    H262    1.111   1_455 S
H66    C163    1.111   .     S
N69    O71     1.302   .     A
N69    O70     1.302   .     A
N72    O74     1.302   .     A
N72    O73     1.302   .     A
N75    O76     1.301   .     A
N75    O77     1.301   .     A
N78    O80     1.301   .     A
N78    O79     1.300   .     A
N81    O82     1.301   .     A
N81    O83     1.301   .     A
N84    O86     1.301   .     A
N84    O85     1.301   .     A
N87    O88     1.300   .     A
N87    O89     1.301   .     A
N90    O92     1.301   .     A
N90    O91     1.300   .     A
N93    O94     1.302   .     A
N93    O95     1.298   .     A
N96    O98     1.302   .     A
N96    O97     1.298   .     A
O99    C103    1.303   .     A
O99    Cu111   1.983   .     S
O100   C104    1.311   .     A
O100   Cu112   1.983   .     S
O101   C104    1.301   .     A
O101   Cu111   1.974   .     S
O102   C103    1.308   .     A
O102   Cu112   1.974   .     S
C103   C138    1.462   .     S
C104   C137    1.465   .     S
O105   C109    1.309   .     A
O105   Cu111   1.957   .     S
O106   C110    1.303   .     A
O106   Cu112   1.957   .     S
O107   Cu111   1.950   .     S
O107   C110    1.304   .     A
O108   Cu112   1.950   .     S
O108   C109    1.298   .     A
C109   C116    1.452   .     S
C110   C115    1.451   .     S
Cu111  Cu112   2.719   .     S
Cu111  N143    2.044   .     S
Cu112  N144    2.044   .     S
C113   C123    1.385   .     A
C113   C115    1.390   .     A
C113   H129    1.085   .     S
C114   C124    1.391   .     A
C114   H130    1.085   .     S
C114   C116    1.392   .     A
C115   C117    1.410   .     A
C116   C118    1.411   .     A
C117   O145    1.386   .     S
C117   C119    1.423   .     A
C118   C120    1.411   .     A
C118   O156    1.385   .     S
C119   C125    1.423   .     A
C119   C121    1.423   .     A
C120   C126    1.420   .     A
C120   C122    1.420   .     A
C121   C123    1.408   .     A
C121   C1004   1.406   .     S
C122   C124    1.408   .     A
C122   C1003   1.406   1_554 S
C123   C128    1.396   .     A
C124   C127    1.396   .     A
C125   N167    1.435   .     S
C125   C1009   1.399   .     S
C126   N170    1.439   .     S
C126   C1010   1.396   1_554 S
C127   H131    1.085   .     S
C127   C1007   1.399   1_554 S
C128   H132    1.084   .     S
C128   C1008   1.396   .     S
C133   N173    1.434   .     S
C133   C138    1.407   .     A
C134   C137    1.416   .     A
C134   N176    1.439   .     S
C134   C234    1.394   .     S
C135   N179    1.430   .     S
C135   C137    1.410   .     A
C135   C231    1.392   .     S
C136   C138    1.412   .     A
C136   N182    1.432   .     S
C139   N144    1.371   .     A
C139   N185    1.430   .     S
C139   C730    1.422   1_545 S
C140   N143    1.372   .     A
C140   N188    1.434   .     S
C140   C435    1.423   .     S
C141   N191    1.424   .     S
C141   N144    1.382   .     A
C141   C728    1.423   1_545 S
C142   N194    1.425   .     S
C142   N143    1.381   .     A
C142   C433    1.422   .     S
O145   C146    1.412   .     S
C146   C149    1.528   .     S
C146   H148    1.115   .     S
C146   H147    1.106   .     S
C149   H150    1.111   .     S
C149   H151    1.110   .     S
C149   C152    1.523   .     S
C152   H447    1.111   .     S
C152   H448    1.110   .     S
C152   H449    1.110   .     S
H153   C740    1.111   1_545 S
H154   C740    1.110   1_545 S
H155   C740    1.110   1_545 S
O156   C157    1.417   .     S
C157   H158    1.107   .     S
C157   H159    1.118   .     S
C157   C160    1.530   .     S
C160   H162    1.110   .     S
C160   H161    1.112   .     S
C160   C261    1.525   .     S
C163   H165    1.111   .     S
C163   H166    1.110   .     S
H164   C261    1.111   .     S
N167   O169    1.302   .     A
N167   O168    1.302   .     A
N170   O172    1.302   .     A
N170   O171    1.302   .     A
N173   O174    1.301   .     A
N173   O175    1.301   .     A
N176   O178    1.301   .     A
N176   O177    1.300   .     A
N179   O180    1.301   .     A
N179   O181    1.301   .     A
N182   O184    1.301   .     A
N182   O183    1.301   .     A
N185   O186    1.300   .     A
N185   O187    1.301   .     A
N188   O190    1.301   .     A
N188   O189    1.300   .     A
N191   O192    1.302   .     A
N191   O193    1.298   .     A
N194   O196    1.302   .     A
N194   O195    1.298   .     A
O197   C201    1.303   .     A
O197   Cu209   1.983   .     S
O198   C202    1.311   .     A
O198   Cu210   1.983   .     S
O199   C202    1.301   .     A
O199   Cu209   1.974   .     S
O200   C201    1.308   .     A
O200   Cu210   1.974   .     S
C201   C236    1.462   .     S
C202   C235    1.465   .     S
O203   C207    1.309   .     A
O203   Cu209   1.957   .     S
O204   C208    1.303   .     A
O204   Cu210   1.957   .     S
O205   Cu209   1.950   .     S
O205   C208    1.304   .     A
O206   Cu210   1.950   .     S
O206   C207    1.298   .     A
C207   C214    1.452   .     S
C208   C213    1.451   .     S
Cu209  Cu210   2.719   .     S
Cu209  N241    2.044   .     S
Cu210  N242    2.044   .     S
C211   C221    1.385   .     A
C211   C213    1.390   .     A
C211   H227    1.085   .     S
C212   C222    1.391   .     A
C212   H228    1.085   .     S
C212   C214    1.392   .     A
C213   C215    1.410   .     A
C214   C216    1.411   .     A
C215   O243    1.386   .     S
C215   C217    1.423   .     A
C216   C218    1.411   .     A
C216   O254    1.385   .     S
C217   C223    1.423   .     A
C217   C219    1.423   .     A
C218   C224    1.420   .     A
C218   C220    1.420   .     A
C219   C221    1.408   .     A
C219   C1102   1.406   .     S
C220   C222    1.408   .     A
C220   C1101   1.406   1_554 S
C221   C226    1.396   .     A
C222   C225    1.396   .     A
C223   N265    1.435   .     S
C223   C1107   1.399   .     S
C224   N268    1.439   .     S
C224   C1108   1.396   1_554 S
C225   H229    1.085   .     S
C225   C1105   1.399   1_554 S
C226   H230    1.084   .     S
C226   C1106   1.396   .     S
C231   N271    1.434   .     S
C231   C236    1.407   .     A
C232   C235    1.416   .     A
C232   N274    1.439   .     S
C232   C38     1.394   1_655 S
C233   N277    1.430   .     S
C233   C235    1.410   .     A
C233   C35     1.392   1_655 S
C234   C236    1.412   .     A
C234   N280    1.432   .     S
C237   N242    1.371   .     A
C237   N283    1.430   .     S
C237   C828    1.422   1_545 S
C238   N241    1.372   .     A
C238   N286    1.434   .     S
C238   C533    1.423   .     S
C239   N289    1.424   .     S
C239   N242    1.382   .     A
C239   C826    1.423   1_545 S
C240   N292    1.425   .     S
C240   N241    1.381   .     A
C240   C531    1.422   .     S
O243   C244    1.412   .     S
C244   C247    1.528   .     S
C244   H246    1.115   .     S
C244   H245    1.106   .     S
C247   H248    1.111   .     S
C247   H249    1.110   .     S
C247   C250    1.523   .     S
C250   H545    1.111   .     S
C250   H546    1.110   .     S
C250   H547    1.110   .     S
H251   C838    1.111   1_545 S
H252   C838    1.110   1_545 S
H253   C838    1.110   1_545 S
O254   C255    1.417   .     S
C255   H256    1.107   .     S
C255   H257    1.118   .     S
C255   C258    1.530   .     S
C258   H260    1.110   .     S
C258   H259    1.112   .     S
C258   C65     1.525   1_655 S
C261   H263    1.111   .     S
C261   H264    1.110   .     S
H262   C65     1.111   1_655 S
N265   O267    1.302   .     A
N265   O266    1.302   .     A
N268   O270    1.302   .     A
N268   O269    1.302   .     A
N271   O272    1.301   .     A
N271   O273    1.301   .     A
N274   O276    1.301   .     A
N274   O275    1.300   .     A
N277   O278    1.301   .     A
N277   O279    1.301   .     A
N280   O282    1.301   .     A
N280   O281    1.301   .     A
N283   O284    1.300   .     A
N283   O285    1.301   .     A
N286   O288    1.301   .     A
N286   O287    1.300   .     A
N289   O290    1.302   .     A
N289   O291    1.298   .     A
N292   O294    1.302   .     A
N292   O293    1.298   .     A
O295   C299    1.303   .     A
O295   Cu307   1.983   .     S
O296   C300    1.311   .     A
O296   Cu308   1.983   .     S
O297   C300    1.301   .     A
O297   Cu307   1.974   .     S
O298   C299    1.308   .     A
O298   Cu308   1.974   .     S
C299   C334    1.462   .     S
C300   C333    1.465   .     S
O301   C305    1.309   .     A
O301   Cu307   1.957   .     S
O302   C306    1.303   .     A
O302   Cu308   1.957   .     S
O303   Cu307   1.950   .     S
O303   C306    1.304   .     A
O304   Cu308   1.950   .     S
O304   C305    1.298   .     A
C305   C312    1.452   .     S
C306   C311    1.451   .     S
Cu307  Cu308   2.719   .     S
Cu307  N339    2.044   .     S
Cu308  N340    2.044   .     S
C309   C319    1.385   .     A
C309   C311    1.390   .     A
C309   H325    1.085   .     S
C310   C320    1.391   .     A
C310   H326    1.085   .     S
C310   C312    1.392   .     A
C311   C313    1.410   .     A
C312   C314    1.411   .     A
C313   O341    1.386   .     S
C313   C315    1.423   .     A
C314   C316    1.411   .     A
C314   O352    1.385   .     S
C315   C321    1.423   .     A
C315   C317    1.423   .     A
C316   C322    1.420   .     A
C316   C318    1.420   .     A
C317   C319    1.408   .     A
C317   C1200   1.406   .     S
C318   C320    1.408   .     A
C318   C1199   1.406   1_554 S
C319   C324    1.396   .     A
C320   C323    1.396   .     A
C321   N363    1.435   .     S
C321   C1205   1.399   .     S
C322   N366    1.439   .     S
C322   C1206   1.396   1_554 S
C323   H327    1.085   .     S
C323   C1203   1.399   1_554 S
C324   H328    1.084   .     S
C324   C1204   1.396   .     S
C329   N369    1.434   .     S
C329   C334    1.407   .     A
C329   C527    1.392   1_455 S
C330   C333    1.416   .     A
C330   N372    1.439   .     S
C330   C430    1.394   .     S
C331   N375    1.430   .     S
C331   C333    1.410   .     A
C331   C427    1.392   .     S
C332   C334    1.412   .     A
C332   N378    1.432   .     S
C332   C526    1.394   1_455 S
C335   N340    1.371   .     A
C335   N381    1.430   .     S
C336   N339    1.372   .     A
C336   N384    1.434   .     S
C336   C631    1.423   .     S
C337   N387    1.424   .     S
C337   N340    1.382   .     A
C338   N390    1.425   .     S
C338   N339    1.381   .     A
C338   C629    1.422   .     S
O341   C342    1.412   .     S
C342   C345    1.528   .     S
C342   H344    1.115   .     S
C342   H343    1.106   .     S
C345   H346    1.111   .     S
C345   H347    1.110   .     S
C345   C348    1.523   .     S
C348   H643    1.111   .     S
C348   H644    1.110   .     S
C348   H645    1.110   .     S
O352   C353    1.417   .     S
C353   H354    1.107   .     S
C353   H355    1.118   .     S
C353   C356    1.530   .     S
C356   H358    1.110   .     S
C356   H357    1.112   .     S
C356   C457    1.525   .     S
C359   H361    1.111   .     S
C359   H362    1.110   .     S
C359   C552    1.525   1_455 S
C359   H556    1.111   1_455 S
H360   C457    1.111   .     S
N363   O365    1.302   .     A
N363   O364    1.302   .     A
N366   O368    1.302   .     A
N366   O367    1.302   .     A
N369   O370    1.301   .     A
N369   O371    1.301   .     A
N372   O374    1.301   .     A
N372   O373    1.300   .     A
N375   O376    1.301   .     A
N375   O377    1.301   .     A
N378   O380    1.301   .     A
N378   O379    1.301   .     A
N381   O382    1.300   .     A
N381   O383    1.301   .     A
N384   O386    1.301   .     A
N384   O385    1.300   .     A
N387   O388    1.302   .     A
N387   O389    1.298   .     A
N390   O392    1.302   .     A
N390   O391    1.298   .     A
O393   C397    1.303   .     A
O393   Cu405   1.983   .     S
O394   C398    1.311   .     A
O394   Cu406   1.983   .     S
O395   C398    1.301   .     A
O395   Cu405   1.974   .     S
O396   C397    1.308   .     A
O396   Cu406   1.974   .     S
C397   C432    1.462   .     S
C398   C431    1.465   .     S
O399   C403    1.309   .     A
O399   Cu405   1.957   .     S
O400   C404    1.303   .     A
O400   Cu406   1.957   .     S
O401   Cu405   1.950   .     S
O401   C404    1.304   .     A
O402   Cu406   1.950   .     S
O402   C403    1.298   .     A
C403   C410    1.452   .     S
C404   C409    1.451   .     S
Cu405  Cu406   2.719   .     S
Cu405  N437    2.044   .     S
Cu406  N438    2.044   .     S
C407   C417    1.385   .     A
C407   C409    1.390   .     A
C407   H423    1.085   .     S
C408   C418    1.391   .     A
C408   H424    1.085   .     S
C408   C410    1.392   .     A
C409   C411    1.410   .     A
C410   C412    1.411   .     A
C411   O439    1.386   .     S
C411   C413    1.423   .     A
C412   C414    1.411   .     A
C412   O450    1.385   .     S
C413   C419    1.423   .     A
C413   C415    1.423   .     A
C414   C420    1.420   .     A
C414   C416    1.420   .     A
C415   C417    1.408   .     A
C415   C1298   1.406   .     S
C416   C418    1.408   .     A
C416   C1297   1.406   1_554 S
C417   C422    1.396   .     A
C418   C421    1.396   .     A
C419   N461    1.435   .     S
C419   C1303   1.399   .     S
C420   N464    1.439   .     S
C420   C1304   1.396   1_554 S
C421   H425    1.085   .     S
C421   C1301   1.399   1_554 S
C422   H426    1.084   .     S
C422   C1302   1.396   .     S
C427   N467    1.434   .     S
C427   C432    1.407   .     A
C428   C431    1.416   .     A
C428   N470    1.439   .     S
C428   C528    1.394   .     S
C429   N473    1.430   .     S
C429   C431    1.410   .     A
C429   C525    1.392   .     S
C430   C432    1.412   .     A
C430   N476    1.432   .     S
C433   N438    1.371   .     A
C433   N479    1.430   .     S
C434   N437    1.372   .     A
C434   N482    1.434   .     S
C434   C729    1.423   .     S
C435   N485    1.424   .     S
C435   N438    1.382   .     A
C436   N488    1.425   .     S
C436   N437    1.381   .     A
C436   C727    1.422   .     S
O439   C440    1.412   .     S
C440   C443    1.528   .     S
C440   H442    1.115   .     S
C440   H441    1.106   .     S
C443   H444    1.111   .     S
C443   H445    1.110   .     S
C443   C446    1.523   .     S
C446   H741    1.111   .     S
C446   H742    1.110   .     S
C446   H743    1.110   .     S
O450   C451    1.417   .     S
C451   H452    1.107   .     S
C451   H453    1.118   .     S
C451   C454    1.530   .     S
C454   H456    1.110   .     S
C454   H455    1.112   .     S
C454   C555    1.525   .     S
C457   H459    1.111   .     S
C457   H460    1.110   .     S
H458   C555    1.111   .     S
N461   O463    1.302   .     A
N461   O462    1.302   .     A
N464   O466    1.302   .     A
N464   O465    1.302   .     A
N467   O468    1.301   .     A
N467   O469    1.301   .     A
N470   O472    1.301   .     A
N470   O471    1.300   .     A
N473   O474    1.301   .     A
N473   O475    1.301   .     A
N476   O478    1.301   .     A
N476   O477    1.301   .     A
N479   O480    1.300   .     A
N479   O481    1.301   .     A
N482   O484    1.301   .     A
N482   O483    1.300   .     A
N485   O486    1.302   .     A
N485   O487    1.298   .     A
N488   O490    1.302   .     A
N488   O489    1.298   .     A
O491   C495    1.303   .     A
O491   Cu503   1.983   .     S
O492   C496    1.311   .     A
O492   Cu504   1.983   .     S
O493   C496    1.301   .     A
O493   Cu503   1.974   .     S
O494   C495    1.308   .     A
O494   Cu504   1.974   .     S
C495   C530    1.462   .     S
C496   C529    1.465   .     S
O497   C501    1.309   .     A
O497   Cu503   1.957   .     S
O498   C502    1.303   .     A
O498   Cu504   1.957   .     S
O499   Cu503   1.950   .     S
O499   C502    1.304   .     A
O500   Cu504   1.950   .     S
O500   C501    1.298   .     A
C501   C508    1.452   .     S
C502   C507    1.451   .     S
Cu503  Cu504   2.719   .     S
Cu503  N535    2.044   .     S
Cu504  N536    2.044   .     S
C505   C515    1.385   .     A
C505   C507    1.390   .     A
C505   H521    1.085   .     S
C506   C516    1.391   .     A
C506   H522    1.085   .     S
C506   C508    1.392   .     A
C507   C509    1.410   .     A
C508   C510    1.411   .     A
C509   O537    1.386   .     S
C509   C511    1.423   .     A
C510   C512    1.411   .     A
C510   O548    1.385   .     S
C511   C517    1.423   .     A
C511   C513    1.423   .     A
C512   C518    1.420   .     A
C512   C514    1.420   .     A
C513   C515    1.408   .     A
C513   C1396   1.406   .     S
C514   C516    1.408   .     A
C514   C1395   1.406   1_554 S
C515   C520    1.396   .     A
C516   C519    1.396   .     A
C517   N559    1.435   .     S
C517   C1401   1.399   .     S
C518   N562    1.439   .     S
C518   C1402   1.396   1_554 S
C519   H523    1.085   .     S
C519   C1399   1.399   1_554 S
C520   H524    1.084   .     S
C520   C1400   1.396   .     S
C525   N565    1.434   .     S
C525   C530    1.407   .     A
C526   C529    1.416   .     A
C526   N568    1.439   .     S
C526   C332    1.394   1_655 S
C527   N571    1.430   .     S
C527   C529    1.410   .     A
C527   C329    1.392   1_655 S
C528   C530    1.412   .     A
C528   N574    1.432   .     S
C531   N536    1.371   .     A
C531   N577    1.430   .     S
C532   N535    1.372   .     A
C532   N580    1.434   .     S
C532   C827    1.423   .     S
C533   N583    1.424   .     S
C533   N536    1.382   .     A
C534   N586    1.425   .     S
C534   N535    1.381   .     A
C534   C825    1.422   .     S
O537   C538    1.412   .     S
C538   C541    1.528   .     S
C538   H540    1.115   .     S
C538   H539    1.106   .     S
C541   H542    1.111   .     S
C541   H543    1.110   .     S
C541   C544    1.523   .     S
C544   H839    1.111   .     S
C544   H840    1.110   .     S
C544   H841    1.110   .     S
O548   C549    1.417   .     S
C549   H550    1.107   .     S
C549   H551    1.118   .     S
C549   C552    1.530   .     S
C552   H554    1.110   .     S
C552   H553    1.112   .     S
C552   C359    1.525   1_655 S
C555   H557    1.111   .     S
C555   H558    1.110   .     S
H556   C359    1.111   1_655 S
N559   O561    1.302   .     A
N559   O560    1.302   .     A
N562   O564    1.302   .     A
N562   O563    1.302   .     A
N565   O566    1.301   .     A
N565   O567    1.301   .     A
N568   O570    1.301   .     A
N568   O569    1.300   .     A
N571   O572    1.301   .     A
N571   O573    1.301   .     A
N574   O576    1.301   .     A
N574   O575    1.301   .     A
N577   O578    1.300   .     A
N577   O579    1.301   .     A
N580   O582    1.301   .     A
N580   O581    1.300   .     A
N583   O584    1.302   .     A
N583   O585    1.298   .     A
N586   O588    1.302   .     A
N586   O587    1.298   .     A
O589   C593    1.303   .     A
O589   Cu601   1.983   .     S
O590   C594    1.311   .     A
O590   Cu602   1.983   .     S
O591   C594    1.301   .     A
O591   Cu601   1.974   .     S
O592   C593    1.308   .     A
O592   Cu602   1.974   .     S
C593   C628    1.462   .     S
C594   C627    1.465   .     S
O595   C599    1.309   .     A
O595   Cu601   1.957   .     S
O596   C600    1.303   .     A
O596   Cu602   1.957   .     S
O597   Cu601   1.950   .     S
O597   C600    1.304   .     A
O598   Cu602   1.950   .     S
O598   C599    1.298   .     A
C599   C606    1.452   .     S
C600   C605    1.451   .     S
Cu601  Cu602   2.719   .     S
Cu601  N633    2.044   .     S
Cu602  N634    2.044   .     S
C603   C613    1.385   .     A
C603   C605    1.390   .     A
C603   H619    1.085   .     S
C604   C614    1.391   .     A
C604   H620    1.085   .     S
C604   C606    1.392   .     A
C605   C607    1.410   .     A
C606   C608    1.411   .     A
C607   O635    1.386   .     S
C607   C609    1.423   .     A
C608   C610    1.411   .     A
C608   O646    1.385   .     S
C609   C615    1.423   .     A
C609   C611    1.423   .     A
C610   C616    1.420   .     A
C610   C612    1.420   .     A
C611   C613    1.408   .     A
C611   C1494   1.406   .     S
C612   C614    1.408   .     A
C612   C1493   1.406   1_554 S
C613   C618    1.396   .     A
C614   C617    1.396   .     A
C615   N657    1.435   .     S
C615   C1499   1.399   .     S
C616   N660    1.439   .     S
C616   C1500   1.396   1_554 S
C617   H621    1.085   .     S
C617   C1497   1.399   1_554 S
C618   H622    1.084   .     S
C618   C1498   1.396   .     S
C623   N663    1.434   .     S
C623   C628    1.407   .     A
C623   C821    1.392   1_455 S
C624   C627    1.416   .     A
C624   N666    1.439   .     S
C624   C724    1.394   .     S
C625   N669    1.430   .     S
C625   C627    1.410   .     A
C625   C721    1.392   .     S
C626   C628    1.412   .     A
C626   N672    1.432   .     S
C626   C820    1.394   1_455 S
C629   N634    1.371   .     A
C629   N675    1.430   .     S
C630   N633    1.372   .     A
C630   N678    1.434   .     S
C630   C43     1.423   1_565 S
C631   N681    1.424   .     S
C631   N634    1.382   .     A
C632   N684    1.425   .     S
C632   N633    1.381   .     A
C632   C41     1.422   1_565 S
O635   C636    1.412   .     S
C636   C639    1.528   .     S
C636   H638    1.115   .     S
C636   H637    1.106   .     S
C639   H640    1.111   .     S
C639   H641    1.110   .     S
C639   C642    1.523   .     S
C642   H55     1.111   1_565 S
C642   H56     1.110   1_565 S
C642   H57     1.110   1_565 S
O646   C647    1.417   .     S
C647   H648    1.107   .     S
C647   H649    1.118   .     S
C647   C650    1.530   .     S
C650   H652    1.110   .     S
C650   H651    1.112   .     S
C650   C751    1.525   .     S
C653   H655    1.111   .     S
C653   H656    1.110   .     S
C653   C846    1.525   1_455 S
C653   H850    1.111   1_455 S
H654   C751    1.111   .     S
N657   O659    1.302   .     A
N657   O658    1.302   .     A
N660   O662    1.302   .     A
N660   O661    1.302   .     A
N663   O664    1.301   .     A
N663   O665    1.301   .     A
N666   O668    1.301   .     A
N666   O667    1.300   .     A
N669   O670    1.301   .     A
N669   O671    1.301   .     A
N672   O674    1.301   .     A
N672   O673    1.301   .     A
N675   O676    1.300   .     A
N675   O677    1.301   .     A
N678   O680    1.301   .     A
N678   O679    1.300   .     A
N681   O682    1.302   .     A
N681   O683    1.298   .     A
N684   O686    1.302   .     A
N684   O685    1.298   .     A
O687   C691    1.303   .     A
O687   Cu699   1.983   .     S
O688   C692    1.311   .     A
O688   Cu700   1.983   .     S
O689   C692    1.301   .     A
O689   Cu699   1.974   .     S
O690   C691    1.308   .     A
O690   Cu700   1.974   .     S
C691   C726    1.462   .     S
C692   C725    1.465   .     S
O693   C697    1.309   .     A
O693   Cu699   1.957   .     S
O694   C698    1.303   .     A
O694   Cu700   1.957   .     S
O695   Cu699   1.950   .     S
O695   C698    1.304   .     A
O696   Cu700   1.950   .     S
O696   C697    1.298   .     A
C697   C704    1.452   .     S
C698   C703    1.451   .     S
Cu699  Cu700   2.719   .     S
Cu699  N731    2.044   .     S
Cu700  N732    2.044   .     S
C701   C711    1.385   .     A
C701   C703    1.390   .     A
C701   H717    1.085   .     S
C702   C712    1.391   .     A
C702   H718    1.085   .     S
C702   C704    1.392   .     A
C703   C705    1.410   .     A
C704   C706    1.411   .     A
C705   O733    1.386   .     S
C705   C707    1.423   .     A
C706   C708    1.411   .     A
C706   O744    1.385   .     S
C707   C713    1.423   .     A
C707   C709    1.423   .     A
C708   C714    1.420   .     A
C708   C710    1.420   .     A
C709   C711    1.408   .     A
C709   C1592   1.406   .     S
C710   C712    1.408   .     A
C710   C1591   1.406   1_554 S
C711   C716    1.396   .     A
C712   C715    1.396   .     A
C713   N755    1.435   .     S
C713   C1597   1.399   .     S
C714   N758    1.439   .     S
C714   C1598   1.396   1_554 S
C715   H719    1.085   .     S
C715   C1595   1.399   1_554 S
C716   H720    1.084   .     S
C716   C1596   1.396   .     S
C721   N761    1.434   .     S
C721   C726    1.407   .     A
C722   C725    1.416   .     A
C722   N764    1.439   .     S
C722   C822    1.394   .     S
C723   N767    1.430   .     S
C723   C725    1.410   .     A
C723   C819    1.392   .     S
C724   C726    1.412   .     A
C724   N770    1.432   .     S
C727   N732    1.371   .     A
C727   N773    1.430   .     S
C728   N731    1.372   .     A
C728   N776    1.434   .     S
C728   C141    1.423   1_565 S
C729   N779    1.424   .     S
C729   N732    1.382   .     A
C730   N782    1.425   .     S
C730   N731    1.381   .     A
C730   C139    1.422   1_565 S
O733   C734    1.412   .     S
C734   C737    1.528   .     S
C734   H736    1.115   .     S
C734   H735    1.106   .     S
C737   H738    1.111   .     S
C737   H739    1.110   .     S
C737   C740    1.523   .     S
C740   H153    1.111   1_565 S
C740   H154    1.110   1_565 S
C740   H155    1.110   1_565 S
O744   C745    1.417   .     S
C745   H746    1.107   .     S
C745   H747    1.118   .     S
C745   C748    1.530   .     S
C748   H750    1.110   .     S
C748   H749    1.112   .     S
C748   C849    1.525   .     S
C751   H753    1.111   .     S
C751   H754    1.110   .     S
H752   C849    1.111   .     S
N755   O757    1.302   .     A
N755   O756    1.302   .     A
N758   O760    1.302   .     A
N758   O759    1.302   .     A
N761   O762    1.301   .     A
N761   O763    1.301   .     A
N764   O766    1.301   .     A
N764   O765    1.300   .     A
N767   O768    1.301   .     A
N767   O769    1.301   .     A
N770   O772    1.301   .     A
N770   O771    1.301   .     A
N773   O774    1.300   .     A
N773   O775    1.301   .     A
N776   O778    1.301   .     A
N776   O777    1.300   .     A
N779   O780    1.302   .     A
N779   O781    1.298   .     A
N782   O784    1.302   .     A
N782   O783    1.298   .     A
O785   C789    1.303   .     A
O785   Cu797   1.983   .     S
O786   C790    1.311   .     A
O786   Cu798   1.983   .     S
O787   C790    1.301   .     A
O787   Cu797   1.974   .     S
O788   C789    1.308   .     A
O788   Cu798   1.974   .     S
C789   C824    1.462   .     S
C790   C823    1.465   .     S
O791   C795    1.309   .     A
O791   Cu797   1.957   .     S
O792   C796    1.303   .     A
O792   Cu798   1.957   .     S
O793   Cu797   1.950   .     S
O793   C796    1.304   .     A
O794   Cu798   1.950   .     S
O794   C795    1.298   .     A
C795   C802    1.452   .     S
C796   C801    1.451   .     S
Cu797  Cu798   2.719   .     S
Cu797  N829    2.044   .     S
Cu798  N830    2.044   .     S
C799   C809    1.385   .     A
C799   C801    1.390   .     A
C799   H815    1.085   .     S
C800   C810    1.391   .     A
C800   H816    1.085   .     S
C800   C802    1.392   .     A
C801   C803    1.410   .     A
C802   C804    1.411   .     A
C803   O831    1.386   .     S
C803   C805    1.423   .     A
C804   C806    1.411   .     A
C804   O842    1.385   .     S
C805   C811    1.423   .     A
C805   C807    1.423   .     A
C806   C812    1.420   .     A
C806   C808    1.420   .     A
C807   C809    1.408   .     A
C807   C1690   1.406   .     S
C808   C810    1.408   .     A
C808   C1689   1.406   1_554 S
C809   C814    1.396   .     A
C810   C813    1.396   .     A
C811   N853    1.435   .     S
C811   C1695   1.399   .     S
C812   N856    1.439   .     S
C812   C1696   1.396   1_554 S
C813   H817    1.085   .     S
C813   C1693   1.399   1_554 S
C814   H818    1.084   .     S
C814   C1694   1.396   .     S
C819   N859    1.434   .     S
C819   C824    1.407   .     A
C820   C823    1.416   .     A
C820   N862    1.439   .     S
C820   C626    1.394   1_655 S
C821   N865    1.430   .     S
C821   C823    1.410   .     A
C821   C623    1.392   1_655 S
C822   C824    1.412   .     A
C822   N868    1.432   .     S
C825   N830    1.371   .     A
C825   N871    1.430   .     S
C826   N829    1.372   .     A
C826   N874    1.434   .     S
C826   C239    1.423   1_565 S
C827   N877    1.424   .     S
C827   N830    1.382   .     A
C828   N880    1.425   .     S
C828   N829    1.381   .     A
C828   C237    1.422   1_565 S
O831   C832    1.412   .     S
C832   C835    1.528   .     S
C832   H834    1.115   .     S
C832   H833    1.106   .     S
C835   H836    1.111   .     S
C835   H837    1.110   .     S
C835   C838    1.523   .     S
C838   H251    1.111   1_565 S
C838   H252    1.110   1_565 S
C838   H253    1.110   1_565 S
O842   C843    1.417   .     S
C843   H844    1.107   .     S
C843   H845    1.118   .     S
C843   C846    1.530   .     S
C846   H848    1.110   .     S
C846   H847    1.112   .     S
C846   C653    1.525   1_655 S
C849   H851    1.111   .     S
C849   H852    1.110   .     S
H850   C653    1.111   1_655 S
N853   O855    1.302   .     A
N853   O854    1.302   .     A
N856   O858    1.302   .     A
N856   O857    1.302   .     A
N859   O860    1.301   .     A
N859   O861    1.301   .     A
N862   O864    1.301   .     A
N862   O863    1.300   .     A
N865   O866    1.301   .     A
N865   O867    1.301   .     A
N868   O870    1.301   .     A
N868   O869    1.301   .     A
N871   O872    1.300   .     A
N871   O873    1.301   .     A
N874   O876    1.301   .     A
N874   O875    1.300   .     A
N877   O878    1.302   .     A
N877   O879    1.298   .     A
N880   O882    1.302   .     A
N880   O881    1.298   .     A
O883   C887    1.303   .     A
O883   Cu895   1.983   .     S
O884   C888    1.311   .     A
O884   Cu896   1.983   .     S
O885   C888    1.301   .     A
O885   Cu895   1.974   .     S
O886   C887    1.308   .     A
O886   Cu896   1.974   .     S
C887   C922    1.462   .     S
C888   C921    1.465   .     S
O889   C893    1.309   .     A
O889   Cu895   1.957   .     S
O890   C894    1.303   .     A
O890   Cu896   1.957   .     S
O891   Cu895   1.950   .     S
O891   C894    1.304   .     A
O892   Cu896   1.950   .     S
O892   C893    1.298   .     A
C893   C900    1.452   .     S
C894   C899    1.451   .     S
Cu895  Cu896   2.719   .     S
Cu895  N927    2.044   .     S
Cu896  N928    2.044   .     S
C897   C907    1.385   .     A
C897   C899    1.390   .     A
C897   H913    1.085   .     S
C898   C908    1.391   .     A
C898   H914    1.085   .     S
C898   C900    1.392   .     A
C899   C901    1.410   .     A
C900   C902    1.411   .     A
C901   O929    1.386   .     S
C901   C903    1.423   .     A
C902   C904    1.411   .     A
C902   O940    1.385   .     S
C903   C909    1.423   .     A
C903   C905    1.423   .     A
C904   C910    1.420   .     A
C904   C906    1.420   .     A
C905   C907    1.408   .     A
C905   C24     1.406   1_556 S
C906   C908    1.408   .     A
C907   C912    1.396   .     A
C908   C911    1.396   .     A
C909   N951    1.435   .     S
C909   C29     1.399   1_556 S
C910   N954    1.439   .     S
C911   H915    1.085   .     S
C912   H916    1.084   .     S
C912   C28     1.396   1_556 S
C917   N957    1.434   .     S
C917   C922    1.407   .     A
C917   C1115   1.392   1_455 S
C918   C921    1.416   .     A
C918   N960    1.439   .     S
C918   C1018   1.394   .     S
C919   N963    1.430   .     S
C919   C921    1.410   .     A
C919   C1015   1.392   .     S
C920   C922    1.412   .     A
C920   N966    1.432   .     S
C920   C1114   1.394   1_455 S
C923   N928    1.371   .     A
C923   N969    1.430   .     S
C923   C1514   1.422   1_545 S
C924   N927    1.372   .     A
C924   N972    1.434   .     S
C924   C1219   1.423   .     S
C925   N975    1.424   .     S
C925   N928    1.382   .     A
C925   C1512   1.423   1_545 S
C926   N978    1.425   .     S
C926   N927    1.381   .     A
C926   C1217   1.422   .     S
O929   C930    1.412   .     S
C930   C933    1.528   .     S
C930   H932    1.115   .     S
C930   H931    1.106   .     S
C933   H934    1.111   .     S
C933   H935    1.110   .     S
C933   C936    1.523   .     S
C936   H1231   1.111   .     S
C936   H1232   1.110   .     S
C936   H1233   1.110   .     S
H937   C1524   1.111   1_545 S
H938   C1524   1.110   1_545 S
H939   C1524   1.110   1_545 S
O940   C941    1.417   .     S
C941   H942    1.107   .     S
C941   H943    1.118   .     S
C941   C944    1.530   .     S
C944   H946    1.110   .     S
C944   H945    1.112   .     S
C944   C1045   1.525   .     S
C947   H949    1.111   .     S
C947   H950    1.110   .     S
C947   C1140   1.525   1_455 S
C947   H1144   1.111   1_455 S
H948   C1045   1.111   .     S
N951   O953    1.302   .     A
N951   O952    1.302   .     A
N954   O956    1.302   .     A
N954   O955    1.302   .     A
N957   O958    1.301   .     A
N957   O959    1.301   .     A
N960   O962    1.301   .     A
N960   O961    1.300   .     A
N963   O964    1.301   .     A
N963   O965    1.301   .     A
N966   O968    1.301   .     A
N966   O967    1.301   .     A
N969   O970    1.300   .     A
N969   O971    1.301   .     A
N972   O974    1.301   .     A
N972   O973    1.300   .     A
N975   O976    1.302   .     A
N975   O977    1.298   .     A
N978   O980    1.302   .     A
N978   O979    1.298   .     A
O981   C985    1.303   .     A
O981   Cu993   1.983   .     S
O982   C986    1.311   .     A
O982   Cu994   1.983   .     S
O983   C986    1.301   .     A
O983   Cu993   1.974   .     S
O984   C985    1.308   .     A
O984   Cu994   1.974   .     S
C985   C1020   1.462   .     S
C986   C1019   1.465   .     S
O987   C991    1.309   .     A
O987   Cu993   1.957   .     S
O988   C992    1.303   .     A
O988   Cu994   1.957   .     S
O989   Cu993   1.950   .     S
O989   C992    1.304   .     A
O990   Cu994   1.950   .     S
O990   C991    1.298   .     A
C991   C998    1.452   .     S
C992   C997    1.451   .     S
Cu993  Cu994   2.719   .     S
Cu993  N1025   2.044   .     S
Cu994  N1026   2.044   .     S
C995   C1005   1.385   .     A
C995   C997    1.390   .     A
C995   H1011   1.085   .     S
C996   C1006   1.391   .     A
C996   H1012   1.085   .     S
C996   C998    1.392   .     A
C997   C999    1.410   .     A
C998   C1000   1.411   .     A
C999   O1027   1.386   .     S
C999   C1001   1.423   .     A
C1000  C1002   1.411   .     A
C1000  O1038   1.385   .     S
C1001  C1007   1.423   .     A
C1001  C1003   1.423   .     A
C1002  C1008   1.420   .     A
C1002  C1004   1.420   .     A
C1003  C1005   1.408   .     A
C1003  C122    1.406   1_556 S
C1004  C1006   1.408   .     A
C1005  C1010   1.396   .     A
C1006  C1009   1.396   .     A
C1007  N1049   1.435   .     S
C1007  C127    1.399   1_556 S
C1008  N1052   1.439   .     S
C1009  H1013   1.085   .     S
C1010  H1014   1.084   .     S
C1010  C126    1.396   1_556 S
C1015  N1055   1.434   .     S
C1015  C1020   1.407   .     A
C1016  C1019   1.416   .     A
C1016  N1058   1.439   .     S
C1016  C1116   1.394   .     S
C1017  N1061   1.430   .     S
C1017  C1019   1.410   .     A
C1017  C1113   1.392   .     S
C1018  C1020   1.412   .     A
C1018  N1064   1.432   .     S
C1021  N1026   1.371   .     A
C1021  N1067   1.430   .     S
C1021  C1612   1.422   1_545 S
C1022  N1025   1.372   .     A
C1022  N1070   1.434   .     S
C1022  C1317   1.423   .     S
C1023  N1073   1.424   .     S
C1023  N1026   1.382   .     A
C1023  C1610   1.423   1_545 S
C1024  N1076   1.425   .     S
C1024  N1025   1.381   .     A
C1024  C1315   1.422   .     S
O1027  C1028   1.412   .     S
C1028  C1031   1.528   .     S
C1028  H1030   1.115   .     S
C1028  H1029   1.106   .     S
C1031  H1032   1.111   .     S
C1031  H1033   1.110   .     S
C1031  C1034   1.523   .     S
C1034  H1329   1.111   .     S
C1034  H1330   1.110   .     S
C1034  H1331   1.110   .     S
H1035  C1622   1.111   1_545 S
H1036  C1622   1.110   1_545 S
H1037  C1622   1.110   1_545 S
O1038  C1039   1.417   .     S
C1039  H1040   1.107   .     S
C1039  H1041   1.118   .     S
C1039  C1042   1.530   .     S
C1042  H1044   1.110   .     S
C1042  H1043   1.112   .     S
C1042  C1143   1.525   .     S
C1045  H1047   1.111   .     S
C1045  H1048   1.110   .     S
H1046  C1143   1.111   .     S
N1049  O1051   1.302   .     A
N1049  O1050   1.302   .     A
N1052  O1054   1.302   .     A
N1052  O1053   1.302   .     A
N1055  O1056   1.301   .     A
N1055  O1057   1.301   .     A
N1058  O1060   1.301   .     A
N1058  O1059   1.300   .     A
N1061  O1062   1.301   .     A
N1061  O1063   1.301   .     A
N1064  O1066   1.301   .     A
N1064  O1065   1.301   .     A
N1067  O1068   1.300   .     A
N1067  O1069   1.301   .     A
N1070  O1072   1.301   .     A
N1070  O1071   1.300   .     A
N1073  O1074   1.302   .     A
N1073  O1075   1.298   .     A
N1076  O1078   1.302   .     A
N1076  O1077   1.298   .     A
O1079  C1083   1.303   .     A
O1079  Cu1091  1.983   .     S
O1080  C1084   1.311   .     A
O1080  Cu1092  1.983   .     S
O1081  C1084   1.301   .     A
O1081  Cu1091  1.974   .     S
O1082  C1083   1.308   .     A
O1082  Cu1092  1.974   .     S
C1083  C1118   1.462   .     S
C1084  C1117   1.465   .     S
O1085  C1089   1.309   .     A
O1085  Cu1091  1.957   .     S
O1086  C1090   1.303   .     A
O1086  Cu1092  1.957   .     S
O1087  Cu1091  1.950   .     S
O1087  C1090   1.304   .     A
O1088  Cu1092  1.950   .     S
O1088  C1089   1.298   .     A
C1089  C1096   1.452   .     S
C1090  C1095   1.451   .     S
Cu1091 Cu1092  2.719   .     S
Cu1091 N1123   2.044   .     S
Cu1092 N1124   2.044   .     S
C1093  C1103   1.385   .     A
C1093  C1095   1.390   .     A
C1093  H1109   1.085   .     S
C1094  C1104   1.391   .     A
C1094  H1110   1.085   .     S
C1094  C1096   1.392   .     A
C1095  C1097   1.410   .     A
C1096  C1098   1.411   .     A
C1097  O1125   1.386   .     S
C1097  C1099   1.423   .     A
C1098  C1100   1.411   .     A
C1098  O1136   1.385   .     S
C1099  C1105   1.423   .     A
C1099  C1101   1.423   .     A
C1100  C1106   1.420   .     A
C1100  C1102   1.420   .     A
C1101  C1103   1.408   .     A
C1101  C220    1.406   1_556 S
C1102  C1104   1.408   .     A
C1103  C1108   1.396   .     A
C1104  C1107   1.396   .     A
C1105  N1147   1.435   .     S
C1105  C225    1.399   1_556 S
C1106  N1150   1.439   .     S
C1107  H1111   1.085   .     S
C1108  H1112   1.084   .     S
C1108  C224    1.396   1_556 S
C1113  N1153   1.434   .     S
C1113  C1118   1.407   .     A
C1114  C1117   1.416   .     A
C1114  N1156   1.439   .     S
C1114  C920    1.394   1_655 S
C1115  N1159   1.430   .     S
C1115  C1117   1.410   .     A
C1115  C917    1.392   1_655 S
C1116  C1118   1.412   .     A
C1116  N1162   1.432   .     S
C1119  N1124   1.371   .     A
C1119  N1165   1.430   .     S
C1119  C1710   1.422   1_545 S
C1120  N1123   1.372   .     A
C1120  N1168   1.434   .     S
C1120  C1415   1.423   .     S
C1121  N1171   1.424   .     S
C1121  N1124   1.382   .     A
C1121  C1708   1.423   1_545 S
C1122  N1174   1.425   .     S
C1122  N1123   1.381   .     A
C1122  C1413   1.422   .     S
O1125  C1126   1.412   .     S
C1126  C1129   1.528   .     S
C1126  H1128   1.115   .     S
C1126  H1127   1.106   .     S
C1129  H1130   1.111   .     S
C1129  H1131   1.110   .     S
C1129  C1132   1.523   .     S
C1132  H1427   1.111   .     S
C1132  H1428   1.110   .     S
C1132  H1429   1.110   .     S
H1133  C1720   1.111   1_545 S
H1134  C1720   1.110   1_545 S
H1135  C1720   1.110   1_545 S
O1136  C1137   1.417   .     S
C1137  H1138   1.107   .     S
C1137  H1139   1.118   .     S
C1137  C1140   1.530   .     S
C1140  H1142   1.110   .     S
C1140  H1141   1.112   .     S
C1140  C947    1.525   1_655 S
C1143  H1145   1.111   .     S
C1143  H1146   1.110   .     S
H1144  C947    1.111   1_655 S
N1147  O1149   1.302   .     A
N1147  O1148   1.302   .     A
N1150  O1152   1.302   .     A
N1150  O1151   1.302   .     A
N1153  O1154   1.301   .     A
N1153  O1155   1.301   .     A
N1156  O1158   1.301   .     A
N1156  O1157   1.300   .     A
N1159  O1160   1.301   .     A
N1159  O1161   1.301   .     A
N1162  O1164   1.301   .     A
N1162  O1163   1.301   .     A
N1165  O1166   1.300   .     A
N1165  O1167   1.301   .     A
N1168  O1170   1.301   .     A
N1168  O1169   1.300   .     A
N1171  O1172   1.302   .     A
N1171  O1173   1.298   .     A
N1174  O1176   1.302   .     A
N1174  O1175   1.298   .     A
O1177  C1181   1.303   .     A
O1177  Cu1189  1.983   .     S
O1178  C1182   1.311   .     A
O1178  Cu1190  1.983   .     S
O1179  C1182   1.301   .     A
O1179  Cu1189  1.974   .     S
O1180  C1181   1.308   .     A
O1180  Cu1190  1.974   .     S
C1181  C1216   1.462   .     S
C1182  C1215   1.465   .     S
O1183  C1187   1.309   .     A
O1183  Cu1189  1.957   .     S
O1184  C1188   1.303   .     A
O1184  Cu1190  1.957   .     S
O1185  Cu1189  1.950   .     S
O1185  C1188   1.304   .     A
O1186  Cu1190  1.950   .     S
O1186  C1187   1.298   .     A
C1187  C1194   1.452   .     S
C1188  C1193   1.451   .     S
Cu1189 Cu1190  2.719   .     S
Cu1189 N1221   2.044   .     S
Cu1190 N1222   2.044   .     S
C1191  C1201   1.385   .     A
C1191  C1193   1.390   .     A
C1191  H1207   1.085   .     S
C1192  C1202   1.391   .     A
C1192  H1208   1.085   .     S
C1192  C1194   1.392   .     A
C1193  C1195   1.410   .     A
C1194  C1196   1.411   .     A
C1195  O1223   1.386   .     S
C1195  C1197   1.423   .     A
C1196  C1198   1.411   .     A
C1196  O1234   1.385   .     S
C1197  C1203   1.423   .     A
C1197  C1199   1.423   .     A
C1198  C1204   1.420   .     A
C1198  C1200   1.420   .     A
C1199  C1201   1.408   .     A
C1199  C318    1.406   1_556 S
C1200  C1202   1.408   .     A
C1201  C1206   1.396   .     A
C1202  C1205   1.396   .     A
C1203  N1245   1.435   .     S
C1203  C323    1.399   1_556 S
C1204  N1248   1.439   .     S
C1205  H1209   1.085   .     S
C1206  H1210   1.084   .     S
C1206  C322    1.396   1_556 S
C1211  N1251   1.434   .     S
C1211  C1216   1.407   .     A
C1211  C1409   1.392   1_455 S
C1212  C1215   1.416   .     A
C1212  N1254   1.439   .     S
C1212  C1312   1.394   .     S
C1213  N1257   1.430   .     S
C1213  C1215   1.410   .     A
C1213  C1309   1.392   .     S
C1214  C1216   1.412   .     A
C1214  N1260   1.432   .     S
C1214  C1408   1.394   1_455 S
C1217  N1222   1.371   .     A
C1217  N1263   1.430   .     S
C1218  N1221   1.372   .     A
C1218  N1266   1.434   .     S
C1218  C1513   1.423   .     S
C1219  N1269   1.424   .     S
C1219  N1222   1.382   .     A
C1220  N1272   1.425   .     S
C1220  N1221   1.381   .     A
C1220  C1511   1.422   .     S
O1223  C1224   1.412   .     S
C1224  C1227   1.528   .     S
C1224  H1226   1.115   .     S
C1224  H1225   1.106   .     S
C1227  H1228   1.111   .     S
C1227  H1229   1.110   .     S
C1227  C1230   1.523   .     S
C1230  H1525   1.111   .     S
C1230  H1526   1.110   .     S
C1230  H1527   1.110   .     S
O1234  C1235   1.417   .     S
C1235  H1236   1.107   .     S
C1235  H1237   1.118   .     S
C1235  C1238   1.530   .     S
C1238  H1240   1.110   .     S
C1238  H1239   1.112   .     S
C1238  C1339   1.525   .     S
C1241  H1243   1.111   .     S
C1241  H1244   1.110   .     S
C1241  C1434   1.525   1_455 S
C1241  H1438   1.111   1_455 S
H1242  C1339   1.111   .     S
N1245  O1247   1.302   .     A
N1245  O1246   1.302   .     A
N1248  O1250   1.302   .     A
N1248  O1249   1.302   .     A
N1251  O1252   1.301   .     A
N1251  O1253   1.301   .     A
N1254  O1256   1.301   .     A
N1254  O1255   1.300   .     A
N1257  O1258   1.301   .     A
N1257  O1259   1.301   .     A
N1260  O1262   1.301   .     A
N1260  O1261   1.301   .     A
N1263  O1264   1.300   .     A
N1263  O1265   1.301   .     A
N1266  O1268   1.301   .     A
N1266  O1267   1.300   .     A
N1269  O1270   1.302   .     A
N1269  O1271   1.298   .     A
N1272  O1274   1.302   .     A
N1272  O1273   1.298   .     A
O1275  C1279   1.303   .     A
O1275  Cu1287  1.983   .     S
O1276  C1280   1.311   .     A
O1276  Cu1288  1.983   .     S
O1277  C1280   1.301   .     A
O1277  Cu1287  1.974   .     S
O1278  C1279   1.308   .     A
O1278  Cu1288  1.974   .     S
C1279  C1314   1.462   .     S
C1280  C1313   1.465   .     S
O1281  C1285   1.309   .     A
O1281  Cu1287  1.957   .     S
O1282  C1286   1.303   .     A
O1282  Cu1288  1.957   .     S
O1283  Cu1287  1.950   .     S
O1283  C1286   1.304   .     A
O1284  Cu1288  1.950   .     S
O1284  C1285   1.298   .     A
C1285  C1292   1.452   .     S
C1286  C1291   1.451   .     S
Cu1287 Cu1288  2.719   .     S
Cu1287 N1319   2.044   .     S
Cu1288 N1320   2.044   .     S
C1289  C1299   1.385   .     A
C1289  C1291   1.390   .     A
C1289  H1305   1.085   .     S
C1290  C1300   1.391   .     A
C1290  H1306   1.085   .     S
C1290  C1292   1.392   .     A
C1291  C1293   1.410   .     A
C1292  C1294   1.411   .     A
C1293  O1321   1.386   .     S
C1293  C1295   1.423   .     A
C1294  C1296   1.411   .     A
C1294  O1332   1.385   .     S
C1295  C1301   1.423   .     A
C1295  C1297   1.423   .     A
C1296  C1302   1.420   .     A
C1296  C1298   1.420   .     A
C1297  C1299   1.408   .     A
C1297  C416    1.406   1_556 S
C1298  C1300   1.408   .     A
C1299  C1304   1.396   .     A
C1300  C1303   1.396   .     A
C1301  N1343   1.435   .     S
C1301  C421    1.399   1_556 S
C1302  N1346   1.439   .     S
C1303  H1307   1.085   .     S
C1304  H1308   1.084   .     S
C1304  C420    1.396   1_556 S
C1309  N1349   1.434   .     S
C1309  C1314   1.407   .     A
C1310  C1313   1.416   .     A
C1310  N1352   1.439   .     S
C1310  C1410   1.394   .     S
C1311  N1355   1.430   .     S
C1311  C1313   1.410   .     A
C1311  C1407   1.392   .     S
C1312  C1314   1.412   .     A
C1312  N1358   1.432   .     S
C1315  N1320   1.371   .     A
C1315  N1361   1.430   .     S
C1316  N1319   1.372   .     A
C1316  N1364   1.434   .     S
C1316  C1611   1.423   .     S
C1317  N1367   1.424   .     S
C1317  N1320   1.382   .     A
C1318  N1370   1.425   .     S
C1318  N1319   1.381   .     A
C1318  C1609   1.422   .     S
O1321  C1322   1.412   .     S
C1322  C1325   1.528   .     S
C1322  H1324   1.115   .     S
C1322  H1323   1.106   .     S
C1325  H1326   1.111   .     S
C1325  H1327   1.110   .     S
C1325  C1328   1.523   .     S
C1328  H1623   1.111   .     S
C1328  H1624   1.110   .     S
C1328  H1625   1.110   .     S
O1332  C1333   1.417   .     S
C1333  H1334   1.107   .     S
C1333  H1335   1.118   .     S
C1333  C1336   1.530   .     S
C1336  H1338   1.110   .     S
C1336  H1337   1.112   .     S
C1336  C1437   1.525   .     S
C1339  H1341   1.111   .     S
C1339  H1342   1.110   .     S
H1340  C1437   1.111   .     S
N1343  O1345   1.302   .     A
N1343  O1344   1.302   .     A
N1346  O1348   1.302   .     A
N1346  O1347   1.302   .     A
N1349  O1350   1.301   .     A
N1349  O1351   1.301   .     A
N1352  O1354   1.301   .     A
N1352  O1353   1.300   .     A
N1355  O1356   1.301   .     A
N1355  O1357   1.301   .     A
N1358  O1360   1.301   .     A
N1358  O1359   1.301   .     A
N1361  O1362   1.300   .     A
N1361  O1363   1.301   .     A
N1364  O1366   1.301   .     A
N1364  O1365   1.300   .     A
N1367  O1368   1.302   .     A
N1367  O1369   1.298   .     A
N1370  O1372   1.302   .     A
N1370  O1371   1.298   .     A
O1373  C1377   1.303   .     A
O1373  Cu1385  1.983   .     S
O1374  C1378   1.311   .     A
O1374  Cu1386  1.983   .     S
O1375  C1378   1.301   .     A
O1375  Cu1385  1.974   .     S
O1376  C1377   1.308   .     A
O1376  Cu1386  1.974   .     S
C1377  C1412   1.462   .     S
C1378  C1411   1.465   .     S
O1379  C1383   1.309   .     A
O1379  Cu1385  1.957   .     S
O1380  C1384   1.303   .     A
O1380  Cu1386  1.957   .     S
O1381  Cu1385  1.950   .     S
O1381  C1384   1.304   .     A
O1382  Cu1386  1.950   .     S
O1382  C1383   1.298   .     A
C1383  C1390   1.452   .     S
C1384  C1389   1.451   .     S
Cu1385 Cu1386  2.719   .     S
Cu1385 N1417   2.044   .     S
Cu1386 N1418   2.044   .     S
C1387  C1397   1.385   .     A
C1387  C1389   1.390   .     A
C1387  H1403   1.085   .     S
C1388  C1398   1.391   .     A
C1388  H1404   1.085   .     S
C1388  C1390   1.392   .     A
C1389  C1391   1.410   .     A
C1390  C1392   1.411   .     A
C1391  O1419   1.386   .     S
C1391  C1393   1.423   .     A
C1392  C1394   1.411   .     A
C1392  O1430   1.385   .     S
C1393  C1399   1.423   .     A
C1393  C1395   1.423   .     A
C1394  C1400   1.420   .     A
C1394  C1396   1.420   .     A
C1395  C1397   1.408   .     A
C1395  C514    1.406   1_556 S
C1396  C1398   1.408   .     A
C1397  C1402   1.396   .     A
C1398  C1401   1.396   .     A
C1399  N1441   1.435   .     S
C1399  C519    1.399   1_556 S
C1400  N1444   1.439   .     S
C1401  H1405   1.085   .     S
C1402  H1406   1.084   .     S
C1402  C518    1.396   1_556 S
C1407  N1447   1.434   .     S
C1407  C1412   1.407   .     A
C1408  C1411   1.416   .     A
C1408  N1450   1.439   .     S
C1408  C1214   1.394   1_655 S
C1409  N1453   1.430   .     S
C1409  C1411   1.410   .     A
C1409  C1211   1.392   1_655 S
C1410  C1412   1.412   .     A
C1410  N1456   1.432   .     S
C1413  N1418   1.371   .     A
C1413  N1459   1.430   .     S
C1414  N1417   1.372   .     A
C1414  N1462   1.434   .     S
C1414  C1709   1.423   .     S
C1415  N1465   1.424   .     S
C1415  N1418   1.382   .     A
C1416  N1468   1.425   .     S
C1416  N1417   1.381   .     A
C1416  C1707   1.422   .     S
O1419  C1420   1.412   .     S
C1420  C1423   1.528   .     S
C1420  H1422   1.115   .     S
C1420  H1421   1.106   .     S
C1423  H1424   1.111   .     S
C1423  H1425   1.110   .     S
C1423  C1426   1.523   .     S
C1426  H1721   1.111   .     S
C1426  H1722   1.110   .     S
C1426  H1723   1.110   .     S
O1430  C1431   1.417   .     S
C1431  H1432   1.107   .     S
C1431  H1433   1.118   .     S
C1431  C1434   1.530   .     S
C1434  H1436   1.110   .     S
C1434  H1435   1.112   .     S
C1434  C1241   1.525   1_655 S
C1437  H1439   1.111   .     S
C1437  H1440   1.110   .     S
H1438  C1241   1.111   1_655 S
N1441  O1443   1.302   .     A
N1441  O1442   1.302   .     A
N1444  O1446   1.302   .     A
N1444  O1445   1.302   .     A
N1447  O1448   1.301   .     A
N1447  O1449   1.301   .     A
N1450  O1452   1.301   .     A
N1450  O1451   1.300   .     A
N1453  O1454   1.301   .     A
N1453  O1455   1.301   .     A
N1456  O1458   1.301   .     A
N1456  O1457   1.301   .     A
N1459  O1460   1.300   .     A
N1459  O1461   1.301   .     A
N1462  O1464   1.301   .     A
N1462  O1463   1.300   .     A
N1465  O1466   1.302   .     A
N1465  O1467   1.298   .     A
N1468  O1470   1.302   .     A
N1468  O1469   1.298   .     A
O1471  C1475   1.303   .     A
O1471  Cu1483  1.983   .     S
O1472  C1476   1.311   .     A
O1472  Cu1484  1.983   .     S
O1473  C1476   1.301   .     A
O1473  Cu1483  1.974   .     S
O1474  C1475   1.308   .     A
O1474  Cu1484  1.974   .     S
C1475  C1510   1.462   .     S
C1476  C1509   1.465   .     S
O1477  C1481   1.309   .     A
O1477  Cu1483  1.957   .     S
O1478  C1482   1.303   .     A
O1478  Cu1484  1.957   .     S
O1479  Cu1483  1.950   .     S
O1479  C1482   1.304   .     A
O1480  Cu1484  1.950   .     S
O1480  C1481   1.298   .     A
C1481  C1488   1.452   .     S
C1482  C1487   1.451   .     S
Cu1483 Cu1484  2.719   .     S
Cu1483 N1515   2.044   .     S
Cu1484 N1516   2.044   .     S
C1485  C1495   1.385   .     A
C1485  C1487   1.390   .     A
C1485  H1501   1.085   .     S
C1486  C1496   1.391   .     A
C1486  H1502   1.085   .     S
C1486  C1488   1.392   .     A
C1487  C1489   1.410   .     A
C1488  C1490   1.411   .     A
C1489  O1517   1.386   .     S
C1489  C1491   1.423   .     A
C1490  C1492   1.411   .     A
C1490  O1528   1.385   .     S
C1491  C1497   1.423   .     A
C1491  C1493   1.423   .     A
C1492  C1498   1.420   .     A
C1492  C1494   1.420   .     A
C1493  C1495   1.408   .     A
C1493  C612    1.406   1_556 S
C1494  C1496   1.408   .     A
C1495  C1500   1.396   .     A
C1496  C1499   1.396   .     A
C1497  N1539   1.435   .     S
C1497  C617    1.399   1_556 S
C1498  N1542   1.439   .     S
C1499  H1503   1.085   .     S
C1500  H1504   1.084   .     S
C1500  C616    1.396   1_556 S
C1505  N1545   1.434   .     S
C1505  C1510   1.407   .     A
C1505  C1703   1.392   1_455 S
C1506  C1509   1.416   .     A
C1506  N1548   1.439   .     S
C1506  C1606   1.394   .     S
C1507  N1551   1.430   .     S
C1507  C1509   1.410   .     A
C1507  C1603   1.392   .     S
C1508  C1510   1.412   .     A
C1508  N1554   1.432   .     S
C1508  C1702   1.394   1_455 S
C1511  N1516   1.371   .     A
C1511  N1557   1.430   .     S
C1512  N1515   1.372   .     A
C1512  N1560   1.434   .     S
C1512  C925    1.423   1_565 S
C1513  N1563   1.424   .     S
C1513  N1516   1.382   .     A
C1514  N1566   1.425   .     S
C1514  N1515   1.381   .     A
C1514  C923    1.422   1_565 S
O1517  C1518   1.412   .     S
C1518  C1521   1.528   .     S
C1518  H1520   1.115   .     S
C1518  H1519   1.106   .     S
C1521  H1522   1.111   .     S
C1521  H1523   1.110   .     S
C1521  C1524   1.523   .     S
C1524  H937    1.111   1_565 S
C1524  H938    1.110   1_565 S
C1524  H939    1.110   1_565 S
O1528  C1529   1.417   .     S
C1529  H1530   1.107   .     S
C1529  H1531   1.118   .     S
C1529  C1532   1.530   .     S
C1532  H1534   1.110   .     S
C1532  H1533   1.112   .     S
C1532  C1633   1.525   .     S
C1535  H1537   1.111   .     S
C1535  H1538   1.110   .     S
C1535  C1728   1.525   1_455 S
C1535  H1732   1.111   1_455 S
H1536  C1633   1.111   .     S
N1539  O1541   1.302   .     A
N1539  O1540   1.302   .     A
N1542  O1544   1.302   .     A
N1542  O1543   1.302   .     A
N1545  O1546   1.301   .     A
N1545  O1547   1.301   .     A
N1548  O1550   1.301   .     A
N1548  O1549   1.300   .     A
N1551  O1552   1.301   .     A
N1551  O1553   1.301   .     A
N1554  O1556   1.301   .     A
N1554  O1555   1.301   .     A
N1557  O1558   1.300   .     A
N1557  O1559   1.301   .     A
N1560  O1562   1.301   .     A
N1560  O1561   1.300   .     A
N1563  O1564   1.302   .     A
N1563  O1565   1.298   .     A
N1566  O1568   1.302   .     A
N1566  O1567   1.298   .     A
O1569  C1573   1.303   .     A
O1569  Cu1581  1.983   .     S
O1570  C1574   1.311   .     A
O1570  Cu1582  1.983   .     S
O1571  C1574   1.301   .     A
O1571  Cu1581  1.974   .     S
O1572  C1573   1.308   .     A
O1572  Cu1582  1.974   .     S
C1573  C1608   1.462   .     S
C1574  C1607   1.465   .     S
O1575  C1579   1.309   .     A
O1575  Cu1581  1.957   .     S
O1576  C1580   1.303   .     A
O1576  Cu1582  1.957   .     S
O1577  Cu1581  1.950   .     S
O1577  C1580   1.304   .     A
O1578  Cu1582  1.950   .     S
O1578  C1579   1.298   .     A
C1579  C1586   1.452   .     S
C1580  C1585   1.451   .     S
Cu1581 Cu1582  2.719   .     S
Cu1581 N1613   2.044   .     S
Cu1582 N1614   2.044   .     S
C1583  C1593   1.385   .     A
C1583  C1585   1.390   .     A
C1583  H1599   1.085   .     S
C1584  C1594   1.391   .     A
C1584  H1600   1.085   .     S
C1584  C1586   1.392   .     A
C1585  C1587   1.410   .     A
C1586  C1588   1.411   .     A
C1587  O1615   1.386   .     S
C1587  C1589   1.423   .     A
C1588  C1590   1.411   .     A
C1588  O1626   1.385   .     S
C1589  C1595   1.423   .     A
C1589  C1591   1.423   .     A
C1590  C1596   1.420   .     A
C1590  C1592   1.420   .     A
C1591  C1593   1.408   .     A
C1591  C710    1.406   1_556 S
C1592  C1594   1.408   .     A
C1593  C1598   1.396   .     A
C1594  C1597   1.396   .     A
C1595  N1637   1.435   .     S
C1595  C715    1.399   1_556 S
C1596  N1640   1.439   .     S
C1597  H1601   1.085   .     S
C1598  H1602   1.084   .     S
C1598  C714    1.396   1_556 S
C1603  N1643   1.434   .     S
C1603  C1608   1.407   .     A
C1604  C1607   1.416   .     A
C1604  N1646   1.439   .     S
C1604  C1704   1.394   .     S
C1605  N1649   1.430   .     S
C1605  C1607   1.410   .     A
C1605  C1701   1.392   .     S
C1606  C1608   1.412   .     A
C1606  N1652   1.432   .     S
C1609  N1614   1.371   .     A
C1609  N1655   1.430   .     S
C1610  N1613   1.372   .     A
C1610  N1658   1.434   .     S
C1610  C1023   1.423   1_565 S
C1611  N1661   1.424   .     S
C1611  N1614   1.382   .     A
C1612  N1664   1.425   .     S
C1612  N1613   1.381   .     A
C1612  C1021   1.422   1_565 S
O1615  C1616   1.412   .     S
C1616  C1619   1.528   .     S
C1616  H1618   1.115   .     S
C1616  H1617   1.106   .     S
C1619  H1620   1.111   .     S
C1619  H1621   1.110   .     S
C1619  C1622   1.523   .     S
C1622  H1035   1.111   1_565 S
C1622  H1036   1.110   1_565 S
C1622  H1037   1.110   1_565 S
O1626  C1627   1.417   .     S
C1627  H1628   1.107   .     S
C1627  H1629   1.118   .     S
C1627  C1630   1.530   .     S
C1630  H1632   1.110   .     S
C1630  H1631   1.112   .     S
C1630  C1731   1.525   .     S
C1633  H1635   1.111   .     S
C1633  H1636   1.110   .     S
H1634  C1731   1.111   .     S
N1637  O1639   1.302   .     A
N1637  O1638   1.302   .     A
N1640  O1642   1.302   .     A
N1640  O1641   1.302   .     A
N1643  O1644   1.301   .     A
N1643  O1645   1.301   .     A
N1646  O1648   1.301   .     A
N1646  O1647   1.300   .     A
N1649  O1650   1.301   .     A
N1649  O1651   1.301   .     A
N1652  O1654   1.301   .     A
N1652  O1653   1.301   .     A
N1655  O1656   1.300   .     A
N1655  O1657   1.301   .     A
N1658  O1660   1.301   .     A
N1658  O1659   1.300   .     A
N1661  O1662   1.302   .     A
N1661  O1663   1.298   .     A
N1664  O1666   1.302   .     A
N1664  O1665   1.298   .     A
O1667  C1671   1.303   .     A
O1667  Cu1679  1.983   .     S
O1668  C1672   1.311   .     A
O1668  Cu1680  1.983   .     S
O1669  C1672   1.301   .     A
O1669  Cu1679  1.974   .     S
O1670  C1671   1.308   .     A
O1670  Cu1680  1.974   .     S
C1671  C1706   1.462   .     S
C1672  C1705   1.465   .     S
O1673  C1677   1.309   .     A
O1673  Cu1679  1.957   .     S
O1674  C1678   1.303   .     A
O1674  Cu1680  1.957   .     S
O1675  Cu1679  1.950   .     S
O1675  C1678   1.304   .     A
O1676  Cu1680  1.950   .     S
O1676  C1677   1.298   .     A
C1677  C1684   1.452   .     S
C1678  C1683   1.451   .     S
Cu1679 Cu1680  2.719   .     S
Cu1679 N1711   2.044   .     S
Cu1680 N1712   2.044   .     S
C1681  C1691   1.385   .     A
C1681  C1683   1.390   .     A
C1681  H1697   1.085   .     S
C1682  C1692   1.391   .     A
C1682  H1698   1.085   .     S
C1682  C1684   1.392   .     A
C1683  C1685   1.410   .     A
C1684  C1686   1.411   .     A
C1685  O1713   1.386   .     S
C1685  C1687   1.423   .     A
C1686  C1688   1.411   .     A
C1686  O1724   1.385   .     S
C1687  C1693   1.423   .     A
C1687  C1689   1.423   .     A
C1688  C1694   1.420   .     A
C1688  C1690   1.420   .     A
C1689  C1691   1.408   .     A
C1689  C808    1.406   1_556 S
C1690  C1692   1.408   .     A
C1691  C1696   1.396   .     A
C1692  C1695   1.396   .     A
C1693  N1735   1.435   .     S
C1693  C813    1.399   1_556 S
C1694  N1738   1.439   .     S
C1695  H1699   1.085   .     S
C1696  H1700   1.084   .     S
C1696  C812    1.396   1_556 S
C1701  N1741   1.434   .     S
C1701  C1706   1.407   .     A
C1702  C1705   1.416   .     A
C1702  N1744   1.439   .     S
C1702  C1508   1.394   1_655 S
C1703  N1747   1.430   .     S
C1703  C1705   1.410   .     A
C1703  C1505   1.392   1_655 S
C1704  C1706   1.412   .     A
C1704  N1750   1.432   .     S
C1707  N1712   1.371   .     A
C1707  N1753   1.430   .     S
C1708  N1711   1.372   .     A
C1708  N1756   1.434   .     S
C1708  C1121   1.423   1_565 S
C1709  N1759   1.424   .     S
C1709  N1712   1.382   .     A
C1710  N1762   1.425   .     S
C1710  N1711   1.381   .     A
C1710  C1119   1.422   1_565 S
O1713  C1714   1.412   .     S
C1714  C1717   1.528   .     S
C1714  H1716   1.115   .     S
C1714  H1715   1.106   .     S
C1717  H1718   1.111   .     S
C1717  H1719   1.110   .     S
C1717  C1720   1.523   .     S
C1720  H1133   1.111   1_565 S
C1720  H1134   1.110   1_565 S
C1720  H1135   1.110   1_565 S
O1724  C1725   1.417   .     S
C1725  H1726   1.107   .     S
C1725  H1727   1.118   .     S
C1725  C1728   1.530   .     S
C1728  H1730   1.110   .     S
C1728  H1729   1.112   .     S
C1728  C1535   1.525   1_655 S
C1731  H1733   1.111   .     S
C1731  H1734   1.110   .     S
H1732  C1535   1.111   1_655 S
N1735  O1737   1.302   .     A
N1735  O1736   1.302   .     A
N1738  O1740   1.302   .     A
N1738  O1739   1.302   .     A
N1741  O1742   1.301   .     A
N1741  O1743   1.301   .     A
N1744  O1746   1.301   .     A
N1744  O1745   1.300   .     A
N1747  O1748   1.301   .     A
N1747  O1749   1.301   .     A
N1750  O1752   1.301   .     A
N1750  O1751   1.301   .     A
N1753  O1754   1.300   .     A
N1753  O1755   1.301   .     A
N1756  O1758   1.301   .     A
N1756  O1757   1.300   .     A
N1759  O1760   1.302   .     A
N1759  O1761   1.298   .     A
N1762  O1764   1.302   .     A
N1762  O1763   1.298   .     A
