data_str_m3_o1_o17_pcu_sym.20
_audit_creation_date              2020-01-03
_audit_creation_method            'Materials Studio'
_symmetry_space_group_name_H-M    'P1'
_symmetry_Int_Tables_number       1
_symmetry_cell_setting            triclinic
loop_
_symmetry_equiv_pos_as_xyz
  x,y,z
_cell_length_a                    32.1371
_cell_length_b                    29.4965
_cell_length_c                    29.9124
_cell_angle_alpha                 90.0870
_cell_angle_beta                  90.0675
_cell_angle_gamma                 89.9903
loop_
_atom_site_label
_atom_site_type_symbol
_atom_site_fract_x
_atom_site_fract_y
_atom_site_fract_z
_atom_site_U_iso_or_equiv
_atom_site_adp_type
_atom_site_occupancy
C1     C     0.08662   0.16667   0.24995   0.00000  Uiso   1.00
C2     C     0.04248   0.16666   0.24990   0.00000  Uiso   1.00
C3     C     0.18999   0.02403   0.28030   0.00000  Uiso   1.00
C4     C     0.14332   0.30930   0.21972   0.00000  Uiso   1.00
C5     C     0.14332   0.02395   0.21972   0.00000  Uiso   1.00
C6     C     0.18999   0.30938   0.28030   0.00000  Uiso   1.00
C7     C     0.16662   0.16665   0.16339   0.00000  Uiso   1.00
C8     C     0.16667   0.16671   0.33658   0.00000  Uiso   1.00
C9     C     0.18906   0.19969   0.40700   0.00000  Uiso   1.00
C10    C     0.14340   0.13378   0.09301   0.00000  Uiso   1.00
C11    C     0.16637   0.16692   0.38432   0.00000  Uiso   1.00
C12    C     0.24671   0.16666   0.25001   0.00000  Uiso   1.00
C13    C     0.16589   0.16681   0.11560   0.00000  Uiso   1.00
C14    C     0.14306   0.13470   0.40674   0.00000  Uiso   1.00
C15    C     0.18696   0.20074   0.09304   0.00000  Uiso   1.00
C16    C     0.14244   0.13426   0.45310   0.00000  Uiso   1.00
C17    C     0.18613   0.20216   0.04675   0.00000  Uiso   1.00
C18    C     0.16483   0.16806   0.47670   0.00000  Uiso   1.00
C19    C     0.16410   0.16805   0.02321   0.00000  Uiso   1.00
C20    C     0.18859   0.20127   0.45354   0.00000  Uiso   1.00
C21    C     0.14146   0.13399   0.04644   0.00000  Uiso   1.00
C22    C     0.11956   0.10069   0.47580   0.00000  Uiso   1.00
C23    C     0.11779   0.10111   0.02277   0.00000  Uiso   1.00
C24    C     0.20775   0.23666   0.02399   0.00000  Uiso   1.00
C25    C     0.12127   0.03140   0.44246   0.00000  Uiso   1.00
C26    C     0.19910   0.30522   0.05767   0.00000  Uiso   1.00
C27    C     0.08982   0.06710   0.04665   0.00000  Uiso   1.00
C28    C     0.05043   0.08983   0.06447   0.00000  Uiso   1.00
C29    C     0.24121   0.26720   0.45386   0.00000  Uiso   1.00
C30    C     0.21888   0.30720   0.43198   0.00000  Uiso   1.00
C31    C     0.21125   0.23491   0.47725   0.00000  Uiso   1.00
C32    C     0.02133   0.12645   0.25945   0.00000  Uiso   1.00
C33    C     0.31200   0.20686   0.24039   0.00000  Uiso   1.00
C34    C     0.31204   0.12646   0.25949   0.00000  Uiso   1.00
C35    C     0.02129   0.20685   0.24035   0.00000  Uiso   1.00
C36    C     0.29086   0.16666   0.24998   0.00000  Uiso   1.00
H37    H     0.20683   0.22367   0.38754   0.00000  Uiso   1.00
H38    H     0.12465   0.29107   0.19554   0.00000  Uiso   1.00
H39    H     0.12466   0.04212   0.19553   0.00000  Uiso   1.00
H40    H     0.20862   0.29122   0.30452   0.00000  Uiso   1.00
H41    H     0.14829   0.04051   0.42111   0.00000  Uiso   1.00
H42    H     0.10236   0.00627   0.42375   0.00000  Uiso   1.00
H43    H     0.13226   0.01474   0.47362   0.00000  Uiso   1.00
H44    H     0.17620   0.29393   0.08314   0.00000  Uiso   1.00
H45    H     0.18226   0.31724   0.02748   0.00000  Uiso   1.00
H46    H     0.21622   0.00126   0.07182   0.00000  Uiso   1.00
H47    H     0.05790   0.11725   0.08858   0.00000  Uiso   1.00
H48    H     0.12735   0.10850   0.11257   0.00000  Uiso   1.00
H49    H     0.03227   0.10444   0.03634   0.00000  Uiso   1.00
H50    H     0.03085   0.06426   0.08170   0.00000  Uiso   1.00
H51    H     0.07961   0.03936   0.02414   0.00000  Uiso   1.00
H52    H     0.10698   0.04971   0.07390   0.00000  Uiso   1.00
H53    H     0.19100   0.29615   0.41298   0.00000  Uiso   1.00
H54    H     0.20926   0.33207   0.45776   0.00000  Uiso   1.00
H55    H     0.24045   0.32457   0.40864   0.00000  Uiso   1.00
H56    H     0.26469   0.28094   0.47755   0.00000  Uiso   1.00
H57    H     0.25982   0.24847   0.42862   0.00000  Uiso   1.00
H58    H     0.12512   0.11035   0.38757   0.00000  Uiso   1.00
H59    H     0.20482   0.22533   0.11199   0.00000  Uiso   1.00
H60    H     0.03759   0.09524   0.26717   0.00000  Uiso   1.00
H61    H     0.29574   0.23807   0.23267   0.00000  Uiso   1.00
H62    H     0.29581   0.09525   0.26726   0.00000  Uiso   1.00
H63    H     0.03753   0.23806   0.23259   0.00000  Uiso   1.00
H64    H     0.20865   0.04226   0.30449   0.00000  Uiso   1.00
N65    N     0.16667   0.28573   0.25000   0.00000  Uiso   1.00
N66    N     0.16667   0.04760   0.25000   0.00000  Uiso   1.00
O67    O     0.10559   0.20487   0.24999   0.00000  Uiso   1.00
O68    O     0.22801   0.27061   0.04760   0.00000  Uiso   1.00
O69    O     0.22774   0.12846   0.25000   0.00000  Uiso   1.00
O70    O     0.22774   0.20487   0.25000   0.00000  Uiso   1.00
O71    O     0.10559   0.12846   0.24999   0.00000  Uiso   1.00
O72    O     0.16666   0.20489   0.18392   0.00000  Uiso   1.00
O73    O     0.16667   0.12844   0.31607   0.00000  Uiso   1.00
O74    O     0.16667   0.20489   0.31607   0.00000  Uiso   1.00
O75    O     0.16666   0.12844   0.18392   0.00000  Uiso   1.00
O76    O     0.09616   0.06951   0.45184   0.00000  Uiso   1.00
Zn77   Zn    0.16667   0.21771   0.25000   0.00000  Uiso   1.00
Zn78   Zn    0.16667   0.11563   0.25000   0.00000  Uiso   1.00
C79    C     0.41995   0.16667   0.24995   0.00000  Uiso   1.00
C80    C     0.37581   0.16666   0.24990   0.00000  Uiso   1.00
C81    C     0.52333   0.02403   0.28030   0.00000  Uiso   1.00
C82    C     0.47666   0.30930   0.21972   0.00000  Uiso   1.00
C83    C     0.47665   0.02395   0.21972   0.00000  Uiso   1.00
C84    C     0.52332   0.30938   0.28030   0.00000  Uiso   1.00
C85    C     0.49995   0.16665   0.16339   0.00000  Uiso   1.00
C86    C     0.50000   0.16671   0.33658   0.00000  Uiso   1.00
C87    C     0.52240   0.19969   0.40700   0.00000  Uiso   1.00
C88    C     0.47673   0.13378   0.09301   0.00000  Uiso   1.00
C89    C     0.49970   0.16692   0.38432   0.00000  Uiso   1.00
C90    C     0.58005   0.16666   0.25001   0.00000  Uiso   1.00
C91    C     0.49923   0.16681   0.11560   0.00000  Uiso   1.00
C92    C     0.47639   0.13470   0.40674   0.00000  Uiso   1.00
C93    C     0.52029   0.20074   0.09304   0.00000  Uiso   1.00
C94    C     0.47577   0.13426   0.45310   0.00000  Uiso   1.00
C95    C     0.51946   0.20216   0.04675   0.00000  Uiso   1.00
C96    C     0.49816   0.16806   0.47670   0.00000  Uiso   1.00
C97    C     0.49743   0.16805   0.02321   0.00000  Uiso   1.00
C98    C     0.52192   0.20127   0.45354   0.00000  Uiso   1.00
C99    C     0.47479   0.13399   0.04644   0.00000  Uiso   1.00
C100   C     0.45289   0.10069   0.47580   0.00000  Uiso   1.00
C101   C     0.45112   0.10111   0.02277   0.00000  Uiso   1.00
C102   C     0.54108   0.23666   0.02399   0.00000  Uiso   1.00
C103   C     0.45460   0.03140   0.44246   0.00000  Uiso   1.00
C104   C     0.53243   0.30522   0.05767   0.00000  Uiso   1.00
C105   C     0.42316   0.06710   0.04665   0.00000  Uiso   1.00
C106   C     0.38377   0.08983   0.06447   0.00000  Uiso   1.00
C107   C     0.57454   0.26720   0.45386   0.00000  Uiso   1.00
C108   C     0.55221   0.30720   0.43198   0.00000  Uiso   1.00
C109   C     0.54459   0.23491   0.47725   0.00000  Uiso   1.00
C110   C     0.35466   0.12645   0.25945   0.00000  Uiso   1.00
C111   C     0.64534   0.20686   0.24039   0.00000  Uiso   1.00
C112   C     0.64537   0.12646   0.25949   0.00000  Uiso   1.00
C113   C     0.35463   0.20685   0.24035   0.00000  Uiso   1.00
C114   C     0.62419   0.16666   0.24998   0.00000  Uiso   1.00
H115   H     0.54017   0.22367   0.38754   0.00000  Uiso   1.00
H116   H     0.45798   0.29107   0.19554   0.00000  Uiso   1.00
H117   H     0.45799   0.04212   0.19553   0.00000  Uiso   1.00
H118   H     0.54196   0.29122   0.30452   0.00000  Uiso   1.00
H119   H     0.48163   0.04051   0.42111   0.00000  Uiso   1.00
H120   H     0.43569   0.00627   0.42375   0.00000  Uiso   1.00
H121   H     0.46560   0.01474   0.47362   0.00000  Uiso   1.00
H122   H     0.50953   0.29393   0.08314   0.00000  Uiso   1.00
H123   H     0.51559   0.31724   0.02748   0.00000  Uiso   1.00
H124   H     0.54955   0.00126   0.07182   0.00000  Uiso   1.00
H125   H     0.39124   0.11725   0.08858   0.00000  Uiso   1.00
H126   H     0.46068   0.10850   0.11257   0.00000  Uiso   1.00
H127   H     0.36560   0.10444   0.03634   0.00000  Uiso   1.00
H128   H     0.36418   0.06426   0.08170   0.00000  Uiso   1.00
H129   H     0.41294   0.03936   0.02414   0.00000  Uiso   1.00
H130   H     0.44031   0.04971   0.07390   0.00000  Uiso   1.00
H131   H     0.52433   0.29615   0.41298   0.00000  Uiso   1.00
H132   H     0.54260   0.33207   0.45776   0.00000  Uiso   1.00
H133   H     0.57378   0.32457   0.40864   0.00000  Uiso   1.00
H134   H     0.59802   0.28094   0.47755   0.00000  Uiso   1.00
H135   H     0.59316   0.24847   0.42862   0.00000  Uiso   1.00
H136   H     0.45845   0.11035   0.38757   0.00000  Uiso   1.00
H137   H     0.53815   0.22533   0.11199   0.00000  Uiso   1.00
H138   H     0.37093   0.09524   0.26717   0.00000  Uiso   1.00
H139   H     0.62907   0.23807   0.23267   0.00000  Uiso   1.00
H140   H     0.62914   0.09525   0.26726   0.00000  Uiso   1.00
H141   H     0.37086   0.23806   0.23259   0.00000  Uiso   1.00
H142   H     0.54198   0.04226   0.30449   0.00000  Uiso   1.00
N143   N     0.50000   0.28573   0.25000   0.00000  Uiso   1.00
N144   N     0.50000   0.04760   0.25000   0.00000  Uiso   1.00
O145   O     0.43892   0.20487   0.24999   0.00000  Uiso   1.00
O146   O     0.56134   0.27061   0.04760   0.00000  Uiso   1.00
O147   O     0.56108   0.12846   0.25000   0.00000  Uiso   1.00
O148   O     0.56108   0.20487   0.25000   0.00000  Uiso   1.00
O149   O     0.43892   0.12846   0.24999   0.00000  Uiso   1.00
O150   O     0.49999   0.20489   0.18392   0.00000  Uiso   1.00
O151   O     0.50001   0.12844   0.31607   0.00000  Uiso   1.00
O152   O     0.50001   0.20489   0.31607   0.00000  Uiso   1.00
O153   O     0.49999   0.12844   0.18392   0.00000  Uiso   1.00
O154   O     0.42950   0.06951   0.45184   0.00000  Uiso   1.00
Zn155  Zn    0.50000   0.21771   0.25000   0.00000  Uiso   1.00
Zn156  Zn    0.50000   0.11563   0.25000   0.00000  Uiso   1.00
C157   C     0.75329   0.16667   0.24995   0.00000  Uiso   1.00
C158   C     0.70915   0.16666   0.24990   0.00000  Uiso   1.00
C159   C     0.85666   0.02403   0.28030   0.00000  Uiso   1.00
C160   C     0.80999   0.30930   0.21972   0.00000  Uiso   1.00
C161   C     0.80999   0.02395   0.21972   0.00000  Uiso   1.00
C162   C     0.85665   0.30938   0.28030   0.00000  Uiso   1.00
C163   C     0.83328   0.16665   0.16339   0.00000  Uiso   1.00
C164   C     0.83334   0.16671   0.33658   0.00000  Uiso   1.00
C165   C     0.85573   0.19969   0.40700   0.00000  Uiso   1.00
C166   C     0.81006   0.13378   0.09301   0.00000  Uiso   1.00
C167   C     0.83304   0.16692   0.38432   0.00000  Uiso   1.00
C168   C     0.91338   0.16666   0.25001   0.00000  Uiso   1.00
C169   C     0.83256   0.16681   0.11560   0.00000  Uiso   1.00
C170   C     0.80972   0.13470   0.40674   0.00000  Uiso   1.00
C171   C     0.85363   0.20074   0.09304   0.00000  Uiso   1.00
C172   C     0.80910   0.13426   0.45310   0.00000  Uiso   1.00
C173   C     0.85280   0.20216   0.04675   0.00000  Uiso   1.00
C174   C     0.83149   0.16806   0.47670   0.00000  Uiso   1.00
C175   C     0.83077   0.16805   0.02321   0.00000  Uiso   1.00
C176   C     0.85525   0.20127   0.45354   0.00000  Uiso   1.00
C177   C     0.80813   0.13399   0.04644   0.00000  Uiso   1.00
C178   C     0.78622   0.10069   0.47580   0.00000  Uiso   1.00
C179   C     0.78445   0.10111   0.02277   0.00000  Uiso   1.00
C180   C     0.87442   0.23666   0.02399   0.00000  Uiso   1.00
C181   C     0.78793   0.03140   0.44246   0.00000  Uiso   1.00
C182   C     0.86576   0.30522   0.05767   0.00000  Uiso   1.00
C183   C     0.75649   0.06710   0.04665   0.00000  Uiso   1.00
C184   C     0.71710   0.08983   0.06447   0.00000  Uiso   1.00
C185   C     0.90787   0.26720   0.45386   0.00000  Uiso   1.00
C186   C     0.88555   0.30720   0.43198   0.00000  Uiso   1.00
C187   C     0.87792   0.23491   0.47725   0.00000  Uiso   1.00
C188   C     0.68800   0.12645   0.25945   0.00000  Uiso   1.00
C189   C     0.97867   0.20686   0.24039   0.00000  Uiso   1.00
C190   C     0.97871   0.12646   0.25949   0.00000  Uiso   1.00
C191   C     0.68796   0.20685   0.24035   0.00000  Uiso   1.00
C192   C     0.95752   0.16666   0.24998   0.00000  Uiso   1.00
H193   H     0.87350   0.22367   0.38754   0.00000  Uiso   1.00
H194   H     0.79132   0.29107   0.19554   0.00000  Uiso   1.00
H195   H     0.79132   0.04212   0.19553   0.00000  Uiso   1.00
H196   H     0.87529   0.29122   0.30452   0.00000  Uiso   1.00
H197   H     0.81496   0.04051   0.42111   0.00000  Uiso   1.00
H198   H     0.76903   0.00627   0.42375   0.00000  Uiso   1.00
H199   H     0.79893   0.01474   0.47362   0.00000  Uiso   1.00
H200   H     0.84287   0.29393   0.08314   0.00000  Uiso   1.00
H201   H     0.84892   0.31724   0.02748   0.00000  Uiso   1.00
H202   H     0.88289   0.00126   0.07182   0.00000  Uiso   1.00
H203   H     0.72457   0.11725   0.08858   0.00000  Uiso   1.00
H204   H     0.79401   0.10850   0.11257   0.00000  Uiso   1.00
H205   H     0.69894   0.10444   0.03634   0.00000  Uiso   1.00
H206   H     0.69752   0.06426   0.08170   0.00000  Uiso   1.00
H207   H     0.74627   0.03936   0.02414   0.00000  Uiso   1.00
H208   H     0.77364   0.04971   0.07390   0.00000  Uiso   1.00
H209   H     0.85766   0.29615   0.41298   0.00000  Uiso   1.00
H210   H     0.87593   0.33207   0.45776   0.00000  Uiso   1.00
H211   H     0.90711   0.32457   0.40864   0.00000  Uiso   1.00
H212   H     0.93135   0.28094   0.47755   0.00000  Uiso   1.00
H213   H     0.92649   0.24847   0.42862   0.00000  Uiso   1.00
H214   H     0.79178   0.11035   0.38757   0.00000  Uiso   1.00
H215   H     0.87149   0.22533   0.11199   0.00000  Uiso   1.00
H216   H     0.70426   0.09524   0.26717   0.00000  Uiso   1.00
H217   H     0.96240   0.23807   0.23267   0.00000  Uiso   1.00
H218   H     0.96247   0.09525   0.26726   0.00000  Uiso   1.00
H219   H     0.70420   0.23806   0.23259   0.00000  Uiso   1.00
H220   H     0.87532   0.04226   0.30449   0.00000  Uiso   1.00
N221   N     0.83333   0.28573   0.25000   0.00000  Uiso   1.00
N222   N     0.83333   0.04760   0.25000   0.00000  Uiso   1.00
O223   O     0.77226   0.20487   0.24999   0.00000  Uiso   1.00
O224   O     0.89468   0.27061   0.04760   0.00000  Uiso   1.00
O225   O     0.89441   0.12846   0.25000   0.00000  Uiso   1.00
O226   O     0.89441   0.20487   0.25000   0.00000  Uiso   1.00
O227   O     0.77226   0.12846   0.24999   0.00000  Uiso   1.00
O228   O     0.83333   0.20489   0.18392   0.00000  Uiso   1.00
O229   O     0.83334   0.12844   0.31607   0.00000  Uiso   1.00
O230   O     0.83334   0.20489   0.31607   0.00000  Uiso   1.00
O231   O     0.83333   0.12844   0.18392   0.00000  Uiso   1.00
O232   O     0.76283   0.06951   0.45184   0.00000  Uiso   1.00
Zn233  Zn    0.83333   0.21771   0.25000   0.00000  Uiso   1.00
Zn234  Zn    0.83333   0.11563   0.25000   0.00000  Uiso   1.00
C235   C     0.08662   0.50000   0.24995   0.00000  Uiso   1.00
C236   C     0.04248   0.49999   0.24990   0.00000  Uiso   1.00
C237   C     0.18999   0.35737   0.28030   0.00000  Uiso   1.00
C238   C     0.14332   0.64263   0.21972   0.00000  Uiso   1.00
C239   C     0.14332   0.35729   0.21972   0.00000  Uiso   1.00
C240   C     0.18999   0.64271   0.28030   0.00000  Uiso   1.00
C241   C     0.16662   0.49998   0.16339   0.00000  Uiso   1.00
C242   C     0.16667   0.50005   0.33658   0.00000  Uiso   1.00
C243   C     0.18906   0.53302   0.40700   0.00000  Uiso   1.00
C244   C     0.14340   0.46711   0.09301   0.00000  Uiso   1.00
C245   C     0.16637   0.50026   0.38432   0.00000  Uiso   1.00
C246   C     0.24671   0.50000   0.25001   0.00000  Uiso   1.00
C247   C     0.16589   0.50015   0.11560   0.00000  Uiso   1.00
C248   C     0.14306   0.46803   0.40674   0.00000  Uiso   1.00
C249   C     0.18696   0.53407   0.09304   0.00000  Uiso   1.00
C250   C     0.14244   0.46759   0.45310   0.00000  Uiso   1.00
C251   C     0.18613   0.53549   0.04675   0.00000  Uiso   1.00
C252   C     0.16483   0.50139   0.47670   0.00000  Uiso   1.00
C253   C     0.16410   0.50138   0.02321   0.00000  Uiso   1.00
C254   C     0.18859   0.53460   0.45354   0.00000  Uiso   1.00
C255   C     0.14146   0.46733   0.04644   0.00000  Uiso   1.00
C256   C     0.11956   0.43402   0.47580   0.00000  Uiso   1.00
C257   C     0.11779   0.43445   0.02277   0.00000  Uiso   1.00
C258   C     0.20775   0.56999   0.02399   0.00000  Uiso   1.00
C259   C     0.12127   0.36473   0.44246   0.00000  Uiso   1.00
C260   C     0.19910   0.63856   0.05767   0.00000  Uiso   1.00
C261   C     0.08982   0.40043   0.04665   0.00000  Uiso   1.00
C262   C     0.05043   0.42316   0.06447   0.00000  Uiso   1.00
C263   C     0.24121   0.60053   0.45386   0.00000  Uiso   1.00
C264   C     0.21888   0.64054   0.43198   0.00000  Uiso   1.00
C265   C     0.21125   0.56824   0.47725   0.00000  Uiso   1.00
C266   C     0.02133   0.45979   0.25945   0.00000  Uiso   1.00
C267   C     0.31200   0.54019   0.24039   0.00000  Uiso   1.00
C268   C     0.31204   0.45979   0.25949   0.00000  Uiso   1.00
C269   C     0.02129   0.54019   0.24035   0.00000  Uiso   1.00
C270   C     0.29086   0.50000   0.24998   0.00000  Uiso   1.00
H271   H     0.20683   0.55700   0.38754   0.00000  Uiso   1.00
H272   H     0.12465   0.62440   0.19554   0.00000  Uiso   1.00
H273   H     0.12466   0.37545   0.19553   0.00000  Uiso   1.00
H274   H     0.20862   0.62455   0.30452   0.00000  Uiso   1.00
H275   H     0.14829   0.37385   0.42111   0.00000  Uiso   1.00
H276   H     0.10236   0.33960   0.42375   0.00000  Uiso   1.00
H277   H     0.13226   0.34808   0.47362   0.00000  Uiso   1.00
H278   H     0.17620   0.62726   0.08314   0.00000  Uiso   1.00
H279   H     0.18226   0.65057   0.02748   0.00000  Uiso   1.00
H280   H     0.21622   0.33459   0.07182   0.00000  Uiso   1.00
H281   H     0.05790   0.45058   0.08858   0.00000  Uiso   1.00
H282   H     0.12735   0.44184   0.11257   0.00000  Uiso   1.00
H283   H     0.03227   0.43777   0.03634   0.00000  Uiso   1.00
H284   H     0.03085   0.39759   0.08170   0.00000  Uiso   1.00
H285   H     0.07961   0.37269   0.02414   0.00000  Uiso   1.00
H286   H     0.10698   0.38304   0.07390   0.00000  Uiso   1.00
H287   H     0.19100   0.62949   0.41298   0.00000  Uiso   1.00
H288   H     0.20926   0.66540   0.45776   0.00000  Uiso   1.00
H289   H     0.24045   0.65791   0.40864   0.00000  Uiso   1.00
H290   H     0.26469   0.61427   0.47755   0.00000  Uiso   1.00
H291   H     0.25982   0.58180   0.42862   0.00000  Uiso   1.00
H292   H     0.12512   0.44368   0.38757   0.00000  Uiso   1.00
H293   H     0.20482   0.55867   0.11199   0.00000  Uiso   1.00
H294   H     0.03759   0.42857   0.26717   0.00000  Uiso   1.00
H295   H     0.29574   0.57140   0.23267   0.00000  Uiso   1.00
H296   H     0.29581   0.42858   0.26726   0.00000  Uiso   1.00
H297   H     0.03753   0.57139   0.23259   0.00000  Uiso   1.00
H298   H     0.20865   0.37559   0.30449   0.00000  Uiso   1.00
N299   N     0.16667   0.61907   0.25000   0.00000  Uiso   1.00
N300   N     0.16667   0.38093   0.25000   0.00000  Uiso   1.00
O301   O     0.10559   0.53821   0.24999   0.00000  Uiso   1.00
O302   O     0.22801   0.60394   0.04760   0.00000  Uiso   1.00
O303   O     0.22774   0.46179   0.25000   0.00000  Uiso   1.00
O304   O     0.22774   0.53821   0.25000   0.00000  Uiso   1.00
O305   O     0.10559   0.46179   0.24999   0.00000  Uiso   1.00
O306   O     0.16666   0.53823   0.18392   0.00000  Uiso   1.00
O307   O     0.16667   0.46177   0.31607   0.00000  Uiso   1.00
O308   O     0.16667   0.53823   0.31607   0.00000  Uiso   1.00
O309   O     0.16666   0.46177   0.18392   0.00000  Uiso   1.00
O310   O     0.09616   0.40284   0.45184   0.00000  Uiso   1.00
Zn311  Zn    0.16667   0.55104   0.25000   0.00000  Uiso   1.00
Zn312  Zn    0.16667   0.44896   0.25000   0.00000  Uiso   1.00
C313   C     0.41995   0.50000   0.24995   0.00000  Uiso   1.00
C314   C     0.37581   0.49999   0.24990   0.00000  Uiso   1.00
C315   C     0.52333   0.35737   0.28030   0.00000  Uiso   1.00
C316   C     0.47666   0.64263   0.21972   0.00000  Uiso   1.00
C317   C     0.47665   0.35729   0.21972   0.00000  Uiso   1.00
C318   C     0.52332   0.64271   0.28030   0.00000  Uiso   1.00
C319   C     0.49995   0.49998   0.16339   0.00000  Uiso   1.00
C320   C     0.50000   0.50005   0.33658   0.00000  Uiso   1.00
C321   C     0.52240   0.53302   0.40700   0.00000  Uiso   1.00
C322   C     0.47673   0.46711   0.09301   0.00000  Uiso   1.00
C323   C     0.49970   0.50026   0.38432   0.00000  Uiso   1.00
C324   C     0.58005   0.50000   0.25001   0.00000  Uiso   1.00
C325   C     0.49923   0.50015   0.11560   0.00000  Uiso   1.00
C326   C     0.47639   0.46803   0.40674   0.00000  Uiso   1.00
C327   C     0.52029   0.53407   0.09304   0.00000  Uiso   1.00
C328   C     0.47577   0.46759   0.45310   0.00000  Uiso   1.00
C329   C     0.51946   0.53549   0.04675   0.00000  Uiso   1.00
C330   C     0.49816   0.50139   0.47670   0.00000  Uiso   1.00
C331   C     0.49743   0.50138   0.02321   0.00000  Uiso   1.00
C332   C     0.52192   0.53460   0.45354   0.00000  Uiso   1.00
C333   C     0.47479   0.46733   0.04644   0.00000  Uiso   1.00
C334   C     0.45289   0.43402   0.47580   0.00000  Uiso   1.00
C335   C     0.45112   0.43445   0.02277   0.00000  Uiso   1.00
C336   C     0.54108   0.56999   0.02399   0.00000  Uiso   1.00
C337   C     0.45460   0.36473   0.44246   0.00000  Uiso   1.00
C338   C     0.53243   0.63856   0.05767   0.00000  Uiso   1.00
C339   C     0.42316   0.40043   0.04665   0.00000  Uiso   1.00
C340   C     0.38377   0.42316   0.06447   0.00000  Uiso   1.00
C341   C     0.57454   0.60053   0.45386   0.00000  Uiso   1.00
C342   C     0.55221   0.64054   0.43198   0.00000  Uiso   1.00
C343   C     0.54459   0.56824   0.47725   0.00000  Uiso   1.00
C344   C     0.35466   0.45979   0.25945   0.00000  Uiso   1.00
C345   C     0.64534   0.54019   0.24039   0.00000  Uiso   1.00
C346   C     0.64537   0.45979   0.25949   0.00000  Uiso   1.00
C347   C     0.35463   0.54019   0.24035   0.00000  Uiso   1.00
C348   C     0.62419   0.50000   0.24998   0.00000  Uiso   1.00
H349   H     0.54017   0.55700   0.38754   0.00000  Uiso   1.00
H350   H     0.45798   0.62440   0.19554   0.00000  Uiso   1.00
H351   H     0.45799   0.37545   0.19553   0.00000  Uiso   1.00
H352   H     0.54196   0.62455   0.30452   0.00000  Uiso   1.00
H353   H     0.48163   0.37385   0.42111   0.00000  Uiso   1.00
H354   H     0.43569   0.33960   0.42375   0.00000  Uiso   1.00
H355   H     0.46560   0.34808   0.47362   0.00000  Uiso   1.00
H356   H     0.50953   0.62726   0.08314   0.00000  Uiso   1.00
H357   H     0.51559   0.65057   0.02748   0.00000  Uiso   1.00
H358   H     0.54955   0.33459   0.07182   0.00000  Uiso   1.00
H359   H     0.39124   0.45058   0.08858   0.00000  Uiso   1.00
H360   H     0.46068   0.44184   0.11257   0.00000  Uiso   1.00
H361   H     0.36560   0.43777   0.03634   0.00000  Uiso   1.00
H362   H     0.36418   0.39759   0.08170   0.00000  Uiso   1.00
H363   H     0.41294   0.37269   0.02414   0.00000  Uiso   1.00
H364   H     0.44031   0.38304   0.07390   0.00000  Uiso   1.00
H365   H     0.52433   0.62949   0.41298   0.00000  Uiso   1.00
H366   H     0.54260   0.66540   0.45776   0.00000  Uiso   1.00
H367   H     0.57378   0.65791   0.40864   0.00000  Uiso   1.00
H368   H     0.59802   0.61427   0.47755   0.00000  Uiso   1.00
H369   H     0.59316   0.58180   0.42862   0.00000  Uiso   1.00
H370   H     0.45845   0.44368   0.38757   0.00000  Uiso   1.00
H371   H     0.53815   0.55867   0.11199   0.00000  Uiso   1.00
H372   H     0.37093   0.42857   0.26717   0.00000  Uiso   1.00
H373   H     0.62907   0.57140   0.23267   0.00000  Uiso   1.00
H374   H     0.62914   0.42858   0.26726   0.00000  Uiso   1.00
H375   H     0.37086   0.57139   0.23259   0.00000  Uiso   1.00
H376   H     0.54198   0.37559   0.30449   0.00000  Uiso   1.00
N377   N     0.50000   0.61907   0.25000   0.00000  Uiso   1.00
N378   N     0.50000   0.38093   0.25000   0.00000  Uiso   1.00
O379   O     0.43892   0.53821   0.24999   0.00000  Uiso   1.00
O380   O     0.56134   0.60394   0.04760   0.00000  Uiso   1.00
O381   O     0.56108   0.46179   0.25000   0.00000  Uiso   1.00
O382   O     0.56108   0.53821   0.25000   0.00000  Uiso   1.00
O383   O     0.43892   0.46179   0.24999   0.00000  Uiso   1.00
O384   O     0.49999   0.53823   0.18392   0.00000  Uiso   1.00
O385   O     0.50001   0.46177   0.31607   0.00000  Uiso   1.00
O386   O     0.50001   0.53823   0.31607   0.00000  Uiso   1.00
O387   O     0.49999   0.46177   0.18392   0.00000  Uiso   1.00
O388   O     0.42950   0.40284   0.45184   0.00000  Uiso   1.00
Zn389  Zn    0.50000   0.55104   0.25000   0.00000  Uiso   1.00
Zn390  Zn    0.50000   0.44896   0.25000   0.00000  Uiso   1.00
C391   C     0.75329   0.50000   0.24995   0.00000  Uiso   1.00
C392   C     0.70915   0.49999   0.24990   0.00000  Uiso   1.00
C393   C     0.85666   0.35737   0.28030   0.00000  Uiso   1.00
C394   C     0.80999   0.64263   0.21972   0.00000  Uiso   1.00
C395   C     0.80999   0.35729   0.21972   0.00000  Uiso   1.00
C396   C     0.85665   0.64271   0.28030   0.00000  Uiso   1.00
C397   C     0.83328   0.49998   0.16339   0.00000  Uiso   1.00
C398   C     0.83334   0.50005   0.33658   0.00000  Uiso   1.00
C399   C     0.85573   0.53302   0.40700   0.00000  Uiso   1.00
C400   C     0.81006   0.46711   0.09301   0.00000  Uiso   1.00
C401   C     0.83304   0.50026   0.38432   0.00000  Uiso   1.00
C402   C     0.91338   0.50000   0.25001   0.00000  Uiso   1.00
C403   C     0.83256   0.50015   0.11560   0.00000  Uiso   1.00
C404   C     0.80972   0.46803   0.40674   0.00000  Uiso   1.00
C405   C     0.85363   0.53407   0.09304   0.00000  Uiso   1.00
C406   C     0.80910   0.46759   0.45310   0.00000  Uiso   1.00
C407   C     0.85280   0.53549   0.04675   0.00000  Uiso   1.00
C408   C     0.83149   0.50139   0.47670   0.00000  Uiso   1.00
C409   C     0.83077   0.50138   0.02321   0.00000  Uiso   1.00
C410   C     0.85525   0.53460   0.45354   0.00000  Uiso   1.00
C411   C     0.80813   0.46733   0.04644   0.00000  Uiso   1.00
C412   C     0.78622   0.43402   0.47580   0.00000  Uiso   1.00
C413   C     0.78445   0.43445   0.02277   0.00000  Uiso   1.00
C414   C     0.87442   0.56999   0.02399   0.00000  Uiso   1.00
C415   C     0.78793   0.36473   0.44246   0.00000  Uiso   1.00
C416   C     0.86576   0.63856   0.05767   0.00000  Uiso   1.00
C417   C     0.75649   0.40043   0.04665   0.00000  Uiso   1.00
C418   C     0.71710   0.42316   0.06447   0.00000  Uiso   1.00
C419   C     0.90787   0.60053   0.45386   0.00000  Uiso   1.00
C420   C     0.88555   0.64054   0.43198   0.00000  Uiso   1.00
C421   C     0.87792   0.56824   0.47725   0.00000  Uiso   1.00
C422   C     0.68800   0.45979   0.25945   0.00000  Uiso   1.00
C423   C     0.97867   0.54019   0.24039   0.00000  Uiso   1.00
C424   C     0.97871   0.45979   0.25949   0.00000  Uiso   1.00
C425   C     0.68796   0.54019   0.24035   0.00000  Uiso   1.00
C426   C     0.95752   0.50000   0.24998   0.00000  Uiso   1.00
H427   H     0.87350   0.55700   0.38754   0.00000  Uiso   1.00
H428   H     0.79132   0.62440   0.19554   0.00000  Uiso   1.00
H429   H     0.79132   0.37545   0.19553   0.00000  Uiso   1.00
H430   H     0.87529   0.62455   0.30452   0.00000  Uiso   1.00
H431   H     0.81496   0.37385   0.42111   0.00000  Uiso   1.00
H432   H     0.76903   0.33960   0.42375   0.00000  Uiso   1.00
H433   H     0.79893   0.34808   0.47362   0.00000  Uiso   1.00
H434   H     0.84287   0.62726   0.08314   0.00000  Uiso   1.00
H435   H     0.84892   0.65057   0.02748   0.00000  Uiso   1.00
H436   H     0.88289   0.33459   0.07182   0.00000  Uiso   1.00
H437   H     0.72457   0.45058   0.08858   0.00000  Uiso   1.00
H438   H     0.79401   0.44184   0.11257   0.00000  Uiso   1.00
H439   H     0.69894   0.43777   0.03634   0.00000  Uiso   1.00
H440   H     0.69752   0.39759   0.08170   0.00000  Uiso   1.00
H441   H     0.74627   0.37269   0.02414   0.00000  Uiso   1.00
H442   H     0.77364   0.38304   0.07390   0.00000  Uiso   1.00
H443   H     0.85766   0.62949   0.41298   0.00000  Uiso   1.00
H444   H     0.87593   0.66540   0.45776   0.00000  Uiso   1.00
H445   H     0.90711   0.65791   0.40864   0.00000  Uiso   1.00
H446   H     0.93135   0.61427   0.47755   0.00000  Uiso   1.00
H447   H     0.92649   0.58180   0.42862   0.00000  Uiso   1.00
H448   H     0.79178   0.44368   0.38757   0.00000  Uiso   1.00
H449   H     0.87149   0.55867   0.11199   0.00000  Uiso   1.00
H450   H     0.70426   0.42857   0.26717   0.00000  Uiso   1.00
H451   H     0.96240   0.57140   0.23267   0.00000  Uiso   1.00
H452   H     0.96247   0.42858   0.26726   0.00000  Uiso   1.00
H453   H     0.70420   0.57139   0.23259   0.00000  Uiso   1.00
H454   H     0.87532   0.37559   0.30449   0.00000  Uiso   1.00
N455   N     0.83333   0.61907   0.25000   0.00000  Uiso   1.00
N456   N     0.83333   0.38093   0.25000   0.00000  Uiso   1.00
O457   O     0.77226   0.53821   0.24999   0.00000  Uiso   1.00
O458   O     0.89468   0.60394   0.04760   0.00000  Uiso   1.00
O459   O     0.89441   0.46179   0.25000   0.00000  Uiso   1.00
O460   O     0.89441   0.53821   0.25000   0.00000  Uiso   1.00
O461   O     0.77226   0.46179   0.24999   0.00000  Uiso   1.00
O462   O     0.83333   0.53823   0.18392   0.00000  Uiso   1.00
O463   O     0.83334   0.46177   0.31607   0.00000  Uiso   1.00
O464   O     0.83334   0.53823   0.31607   0.00000  Uiso   1.00
O465   O     0.83333   0.46177   0.18392   0.00000  Uiso   1.00
O466   O     0.76283   0.40284   0.45184   0.00000  Uiso   1.00
Zn467  Zn    0.83333   0.55104   0.25000   0.00000  Uiso   1.00
Zn468  Zn    0.83333   0.44896   0.25000   0.00000  Uiso   1.00
C469   C     0.08662   0.83333   0.24995   0.00000  Uiso   1.00
C470   C     0.04248   0.83332   0.24990   0.00000  Uiso   1.00
C471   C     0.18999   0.69070   0.28030   0.00000  Uiso   1.00
C472   C     0.14332   0.97597   0.21972   0.00000  Uiso   1.00
C473   C     0.14332   0.69062   0.21972   0.00000  Uiso   1.00
C474   C     0.18999   0.97605   0.28030   0.00000  Uiso   1.00
C475   C     0.16662   0.83331   0.16339   0.00000  Uiso   1.00
C476   C     0.16667   0.83338   0.33658   0.00000  Uiso   1.00
C477   C     0.18906   0.86635   0.40700   0.00000  Uiso   1.00
C478   C     0.14340   0.80045   0.09301   0.00000  Uiso   1.00
C479   C     0.16637   0.83359   0.38432   0.00000  Uiso   1.00
C480   C     0.24671   0.83333   0.25001   0.00000  Uiso   1.00
C481   C     0.16589   0.83348   0.11560   0.00000  Uiso   1.00
C482   C     0.14306   0.80137   0.40674   0.00000  Uiso   1.00
C483   C     0.18696   0.86740   0.09304   0.00000  Uiso   1.00
C484   C     0.14244   0.80093   0.45310   0.00000  Uiso   1.00
C485   C     0.18613   0.86883   0.04675   0.00000  Uiso   1.00
C486   C     0.16483   0.83472   0.47670   0.00000  Uiso   1.00
C487   C     0.16410   0.83472   0.02321   0.00000  Uiso   1.00
C488   C     0.18859   0.86793   0.45354   0.00000  Uiso   1.00
C489   C     0.14146   0.80066   0.04644   0.00000  Uiso   1.00
C490   C     0.11956   0.76735   0.47580   0.00000  Uiso   1.00
C491   C     0.11779   0.76778   0.02277   0.00000  Uiso   1.00
C492   C     0.20775   0.90333   0.02399   0.00000  Uiso   1.00
C493   C     0.12127   0.69807   0.44246   0.00000  Uiso   1.00
C494   C     0.19910   0.97189   0.05767   0.00000  Uiso   1.00
C495   C     0.08982   0.73376   0.04665   0.00000  Uiso   1.00
C496   C     0.05043   0.75649   0.06447   0.00000  Uiso   1.00
C497   C     0.24121   0.93386   0.45386   0.00000  Uiso   1.00
C498   C     0.21888   0.97387   0.43198   0.00000  Uiso   1.00
C499   C     0.21125   0.90157   0.47725   0.00000  Uiso   1.00
C500   C     0.02133   0.79312   0.25945   0.00000  Uiso   1.00
C501   C     0.31200   0.87352   0.24039   0.00000  Uiso   1.00
C502   C     0.31204   0.79312   0.25949   0.00000  Uiso   1.00
C503   C     0.02129   0.87352   0.24035   0.00000  Uiso   1.00
C504   C     0.29086   0.83333   0.24998   0.00000  Uiso   1.00
H505   H     0.20683   0.89034   0.38754   0.00000  Uiso   1.00
H506   H     0.12465   0.95773   0.19554   0.00000  Uiso   1.00
H507   H     0.12466   0.70879   0.19553   0.00000  Uiso   1.00
H508   H     0.20862   0.95788   0.30452   0.00000  Uiso   1.00
H509   H     0.14829   0.70718   0.42111   0.00000  Uiso   1.00
H510   H     0.10236   0.67293   0.42375   0.00000  Uiso   1.00
H511   H     0.13226   0.68141   0.47362   0.00000  Uiso   1.00
H512   H     0.17620   0.96060   0.08314   0.00000  Uiso   1.00
H513   H     0.18226   0.98391   0.02748   0.00000  Uiso   1.00
H514   H     0.21622   0.66792   0.07182   0.00000  Uiso   1.00
H515   H     0.05790   0.78391   0.08858   0.00000  Uiso   1.00
H516   H     0.12735   0.77517   0.11257   0.00000  Uiso   1.00
H517   H     0.03227   0.77110   0.03634   0.00000  Uiso   1.00
H518   H     0.03085   0.73092   0.08170   0.00000  Uiso   1.00
H519   H     0.07961   0.70602   0.02414   0.00000  Uiso   1.00
H520   H     0.10698   0.71638   0.07390   0.00000  Uiso   1.00
H521   H     0.19100   0.96282   0.41298   0.00000  Uiso   1.00
H522   H     0.20926   0.99874   0.45776   0.00000  Uiso   1.00
H523   H     0.24045   0.99124   0.40864   0.00000  Uiso   1.00
H524   H     0.26469   0.94761   0.47755   0.00000  Uiso   1.00
H525   H     0.25982   0.91513   0.42862   0.00000  Uiso   1.00
H526   H     0.12512   0.77702   0.38757   0.00000  Uiso   1.00
H527   H     0.20482   0.89200   0.11199   0.00000  Uiso   1.00
H528   H     0.03759   0.76191   0.26717   0.00000  Uiso   1.00
H529   H     0.29574   0.90474   0.23267   0.00000  Uiso   1.00
H530   H     0.29581   0.76192   0.26726   0.00000  Uiso   1.00
H531   H     0.03753   0.90472   0.23259   0.00000  Uiso   1.00
H532   H     0.20865   0.70893   0.30449   0.00000  Uiso   1.00
N533   N     0.16667   0.95240   0.25000   0.00000  Uiso   1.00
N534   N     0.16667   0.71427   0.25000   0.00000  Uiso   1.00
O535   O     0.10559   0.87154   0.24999   0.00000  Uiso   1.00
O536   O     0.22801   0.93727   0.04760   0.00000  Uiso   1.00
O537   O     0.22774   0.79513   0.25000   0.00000  Uiso   1.00
O538   O     0.22774   0.87154   0.25000   0.00000  Uiso   1.00
O539   O     0.10559   0.79513   0.24999   0.00000  Uiso   1.00
O540   O     0.16666   0.87156   0.18392   0.00000  Uiso   1.00
O541   O     0.16667   0.79511   0.31607   0.00000  Uiso   1.00
O542   O     0.16667   0.87156   0.31607   0.00000  Uiso   1.00
O543   O     0.16666   0.79511   0.18392   0.00000  Uiso   1.00
O544   O     0.09616   0.73617   0.45184   0.00000  Uiso   1.00
Zn545  Zn    0.16667   0.88437   0.25000   0.00000  Uiso   1.00
Zn546  Zn    0.16667   0.78229   0.25000   0.00000  Uiso   1.00
C547   C     0.41995   0.83333   0.24995   0.00000  Uiso   1.00
C548   C     0.37581   0.83332   0.24990   0.00000  Uiso   1.00
C549   C     0.52333   0.69070   0.28030   0.00000  Uiso   1.00
C550   C     0.47666   0.97597   0.21972   0.00000  Uiso   1.00
C551   C     0.47665   0.69062   0.21972   0.00000  Uiso   1.00
C552   C     0.52332   0.97605   0.28030   0.00000  Uiso   1.00
C553   C     0.49995   0.83331   0.16339   0.00000  Uiso   1.00
C554   C     0.50000   0.83338   0.33658   0.00000  Uiso   1.00
C555   C     0.52240   0.86635   0.40700   0.00000  Uiso   1.00
C556   C     0.47673   0.80045   0.09301   0.00000  Uiso   1.00
C557   C     0.49970   0.83359   0.38432   0.00000  Uiso   1.00
C558   C     0.58005   0.83333   0.25001   0.00000  Uiso   1.00
C559   C     0.49923   0.83348   0.11560   0.00000  Uiso   1.00
C560   C     0.47639   0.80137   0.40674   0.00000  Uiso   1.00
C561   C     0.52029   0.86740   0.09304   0.00000  Uiso   1.00
C562   C     0.47577   0.80093   0.45310   0.00000  Uiso   1.00
C563   C     0.51946   0.86883   0.04675   0.00000  Uiso   1.00
C564   C     0.49816   0.83472   0.47670   0.00000  Uiso   1.00
C565   C     0.49743   0.83472   0.02321   0.00000  Uiso   1.00
C566   C     0.52192   0.86793   0.45354   0.00000  Uiso   1.00
C567   C     0.47479   0.80066   0.04644   0.00000  Uiso   1.00
C568   C     0.45289   0.76735   0.47580   0.00000  Uiso   1.00
C569   C     0.45112   0.76778   0.02277   0.00000  Uiso   1.00
C570   C     0.54108   0.90333   0.02399   0.00000  Uiso   1.00
C571   C     0.45460   0.69807   0.44246   0.00000  Uiso   1.00
C572   C     0.53243   0.97189   0.05767   0.00000  Uiso   1.00
C573   C     0.42316   0.73376   0.04665   0.00000  Uiso   1.00
C574   C     0.38377   0.75649   0.06447   0.00000  Uiso   1.00
C575   C     0.57454   0.93386   0.45386   0.00000  Uiso   1.00
C576   C     0.55221   0.97387   0.43198   0.00000  Uiso   1.00
C577   C     0.54459   0.90157   0.47725   0.00000  Uiso   1.00
C578   C     0.35466   0.79312   0.25945   0.00000  Uiso   1.00
C579   C     0.64534   0.87352   0.24039   0.00000  Uiso   1.00
C580   C     0.64537   0.79312   0.25949   0.00000  Uiso   1.00
C581   C     0.35463   0.87352   0.24035   0.00000  Uiso   1.00
C582   C     0.62419   0.83333   0.24998   0.00000  Uiso   1.00
H583   H     0.54017   0.89034   0.38754   0.00000  Uiso   1.00
H584   H     0.45798   0.95773   0.19554   0.00000  Uiso   1.00
H585   H     0.45799   0.70879   0.19553   0.00000  Uiso   1.00
H586   H     0.54196   0.95788   0.30452   0.00000  Uiso   1.00
H587   H     0.48163   0.70718   0.42111   0.00000  Uiso   1.00
H588   H     0.43569   0.67293   0.42375   0.00000  Uiso   1.00
H589   H     0.46560   0.68141   0.47362   0.00000  Uiso   1.00
H590   H     0.50953   0.96060   0.08314   0.00000  Uiso   1.00
H591   H     0.51559   0.98391   0.02748   0.00000  Uiso   1.00
H592   H     0.54955   0.66792   0.07182   0.00000  Uiso   1.00
H593   H     0.39124   0.78391   0.08858   0.00000  Uiso   1.00
H594   H     0.46068   0.77517   0.11257   0.00000  Uiso   1.00
H595   H     0.36560   0.77110   0.03634   0.00000  Uiso   1.00
H596   H     0.36418   0.73092   0.08170   0.00000  Uiso   1.00
H597   H     0.41294   0.70602   0.02414   0.00000  Uiso   1.00
H598   H     0.44031   0.71638   0.07390   0.00000  Uiso   1.00
H599   H     0.52433   0.96282   0.41298   0.00000  Uiso   1.00
H600   H     0.54260   0.99874   0.45776   0.00000  Uiso   1.00
H601   H     0.57378   0.99124   0.40864   0.00000  Uiso   1.00
H602   H     0.59802   0.94761   0.47755   0.00000  Uiso   1.00
H603   H     0.59316   0.91513   0.42862   0.00000  Uiso   1.00
H604   H     0.45845   0.77702   0.38757   0.00000  Uiso   1.00
H605   H     0.53815   0.89200   0.11199   0.00000  Uiso   1.00
H606   H     0.37093   0.76191   0.26717   0.00000  Uiso   1.00
H607   H     0.62907   0.90474   0.23267   0.00000  Uiso   1.00
H608   H     0.62914   0.76192   0.26726   0.00000  Uiso   1.00
H609   H     0.37086   0.90472   0.23259   0.00000  Uiso   1.00
H610   H     0.54198   0.70893   0.30449   0.00000  Uiso   1.00
N611   N     0.50000   0.95240   0.25000   0.00000  Uiso   1.00
N612   N     0.50000   0.71427   0.25000   0.00000  Uiso   1.00
O613   O     0.43892   0.87154   0.24999   0.00000  Uiso   1.00
O614   O     0.56134   0.93727   0.04760   0.00000  Uiso   1.00
O615   O     0.56108   0.79513   0.25000   0.00000  Uiso   1.00
O616   O     0.56108   0.87154   0.25000   0.00000  Uiso   1.00
O617   O     0.43892   0.79513   0.24999   0.00000  Uiso   1.00
O618   O     0.49999   0.87156   0.18392   0.00000  Uiso   1.00
O619   O     0.50001   0.79511   0.31607   0.00000  Uiso   1.00
O620   O     0.50001   0.87156   0.31607   0.00000  Uiso   1.00
O621   O     0.49999   0.79511   0.18392   0.00000  Uiso   1.00
O622   O     0.42950   0.73617   0.45184   0.00000  Uiso   1.00
Zn623  Zn    0.50000   0.88437   0.25000   0.00000  Uiso   1.00
Zn624  Zn    0.50000   0.78229   0.25000   0.00000  Uiso   1.00
C625   C     0.75329   0.83333   0.24995   0.00000  Uiso   1.00
C626   C     0.70915   0.83332   0.24990   0.00000  Uiso   1.00
C627   C     0.85666   0.69070   0.28030   0.00000  Uiso   1.00
C628   C     0.80999   0.97597   0.21972   0.00000  Uiso   1.00
C629   C     0.80999   0.69062   0.21972   0.00000  Uiso   1.00
C630   C     0.85665   0.97605   0.28030   0.00000  Uiso   1.00
C631   C     0.83328   0.83331   0.16339   0.00000  Uiso   1.00
C632   C     0.83334   0.83338   0.33658   0.00000  Uiso   1.00
C633   C     0.85573   0.86635   0.40700   0.00000  Uiso   1.00
C634   C     0.81006   0.80045   0.09301   0.00000  Uiso   1.00
C635   C     0.83304   0.83359   0.38432   0.00000  Uiso   1.00
C636   C     0.91338   0.83333   0.25001   0.00000  Uiso   1.00
C637   C     0.83256   0.83348   0.11560   0.00000  Uiso   1.00
C638   C     0.80972   0.80137   0.40674   0.00000  Uiso   1.00
C639   C     0.85363   0.86740   0.09304   0.00000  Uiso   1.00
C640   C     0.80910   0.80093   0.45310   0.00000  Uiso   1.00
C641   C     0.85280   0.86883   0.04675   0.00000  Uiso   1.00
C642   C     0.83149   0.83472   0.47670   0.00000  Uiso   1.00
C643   C     0.83077   0.83472   0.02321   0.00000  Uiso   1.00
C644   C     0.85525   0.86793   0.45354   0.00000  Uiso   1.00
C645   C     0.80813   0.80066   0.04644   0.00000  Uiso   1.00
C646   C     0.78622   0.76735   0.47580   0.00000  Uiso   1.00
C647   C     0.78445   0.76778   0.02277   0.00000  Uiso   1.00
C648   C     0.87442   0.90333   0.02399   0.00000  Uiso   1.00
C649   C     0.78793   0.69807   0.44246   0.00000  Uiso   1.00
C650   C     0.86576   0.97189   0.05767   0.00000  Uiso   1.00
C651   C     0.75649   0.73376   0.04665   0.00000  Uiso   1.00
C652   C     0.71710   0.75649   0.06447   0.00000  Uiso   1.00
C653   C     0.90787   0.93386   0.45386   0.00000  Uiso   1.00
C654   C     0.88555   0.97387   0.43198   0.00000  Uiso   1.00
C655   C     0.87792   0.90157   0.47725   0.00000  Uiso   1.00
C656   C     0.68800   0.79312   0.25945   0.00000  Uiso   1.00
C657   C     0.97867   0.87352   0.24039   0.00000  Uiso   1.00
C658   C     0.97871   0.79312   0.25949   0.00000  Uiso   1.00
C659   C     0.68796   0.87352   0.24035   0.00000  Uiso   1.00
C660   C     0.95752   0.83333   0.24998   0.00000  Uiso   1.00
H661   H     0.87350   0.89034   0.38754   0.00000  Uiso   1.00
H662   H     0.79132   0.95773   0.19554   0.00000  Uiso   1.00
H663   H     0.79132   0.70879   0.19553   0.00000  Uiso   1.00
H664   H     0.87529   0.95788   0.30452   0.00000  Uiso   1.00
H665   H     0.81496   0.70718   0.42111   0.00000  Uiso   1.00
H666   H     0.76903   0.67293   0.42375   0.00000  Uiso   1.00
H667   H     0.79893   0.68141   0.47362   0.00000  Uiso   1.00
H668   H     0.84287   0.96060   0.08314   0.00000  Uiso   1.00
H669   H     0.84892   0.98391   0.02748   0.00000  Uiso   1.00
H670   H     0.88289   0.66792   0.07182   0.00000  Uiso   1.00
H671   H     0.72457   0.78391   0.08858   0.00000  Uiso   1.00
H672   H     0.79401   0.77517   0.11257   0.00000  Uiso   1.00
H673   H     0.69894   0.77110   0.03634   0.00000  Uiso   1.00
H674   H     0.69752   0.73092   0.08170   0.00000  Uiso   1.00
H675   H     0.74627   0.70602   0.02414   0.00000  Uiso   1.00
H676   H     0.77364   0.71638   0.07390   0.00000  Uiso   1.00
H677   H     0.85766   0.96282   0.41298   0.00000  Uiso   1.00
H678   H     0.87593   0.99874   0.45776   0.00000  Uiso   1.00
H679   H     0.90711   0.99124   0.40864   0.00000  Uiso   1.00
H680   H     0.93135   0.94761   0.47755   0.00000  Uiso   1.00
H681   H     0.92649   0.91513   0.42862   0.00000  Uiso   1.00
H682   H     0.79178   0.77702   0.38757   0.00000  Uiso   1.00
H683   H     0.87149   0.89200   0.11199   0.00000  Uiso   1.00
H684   H     0.70426   0.76191   0.26717   0.00000  Uiso   1.00
H685   H     0.96240   0.90474   0.23267   0.00000  Uiso   1.00
H686   H     0.96247   0.76192   0.26726   0.00000  Uiso   1.00
H687   H     0.70420   0.90472   0.23259   0.00000  Uiso   1.00
H688   H     0.87532   0.70893   0.30449   0.00000  Uiso   1.00
N689   N     0.83333   0.95240   0.25000   0.00000  Uiso   1.00
N690   N     0.83333   0.71427   0.25000   0.00000  Uiso   1.00
O691   O     0.77226   0.87154   0.24999   0.00000  Uiso   1.00
O692   O     0.89468   0.93727   0.04760   0.00000  Uiso   1.00
O693   O     0.89441   0.79513   0.25000   0.00000  Uiso   1.00
O694   O     0.89441   0.87154   0.25000   0.00000  Uiso   1.00
O695   O     0.77226   0.79513   0.24999   0.00000  Uiso   1.00
O696   O     0.83333   0.87156   0.18392   0.00000  Uiso   1.00
O697   O     0.83334   0.79511   0.31607   0.00000  Uiso   1.00
O698   O     0.83334   0.87156   0.31607   0.00000  Uiso   1.00
O699   O     0.83333   0.79511   0.18392   0.00000  Uiso   1.00
O700   O     0.76283   0.73617   0.45184   0.00000  Uiso   1.00
Zn701  Zn    0.83333   0.88437   0.25000   0.00000  Uiso   1.00
Zn702  Zn    0.83333   0.78229   0.25000   0.00000  Uiso   1.00
C703   C     0.08662   0.16667   0.74995   0.00000  Uiso   1.00
C704   C     0.04248   0.16666   0.74990   0.00000  Uiso   1.00
C705   C     0.18999   0.02403   0.78030   0.00000  Uiso   1.00
C706   C     0.14332   0.30930   0.71972   0.00000  Uiso   1.00
C707   C     0.14332   0.02395   0.71972   0.00000  Uiso   1.00
C708   C     0.18999   0.30938   0.78030   0.00000  Uiso   1.00
C709   C     0.16662   0.16665   0.66339   0.00000  Uiso   1.00
C710   C     0.16667   0.16671   0.83658   0.00000  Uiso   1.00
C711   C     0.18906   0.19969   0.90700   0.00000  Uiso   1.00
C712   C     0.14340   0.13378   0.59301   0.00000  Uiso   1.00
C713   C     0.16637   0.16692   0.88432   0.00000  Uiso   1.00
C714   C     0.24671   0.16666   0.75001   0.00000  Uiso   1.00
C715   C     0.16589   0.16681   0.61560   0.00000  Uiso   1.00
C716   C     0.14306   0.13470   0.90674   0.00000  Uiso   1.00
C717   C     0.18696   0.20074   0.59304   0.00000  Uiso   1.00
C718   C     0.14244   0.13426   0.95310   0.00000  Uiso   1.00
C719   C     0.18613   0.20216   0.54675   0.00000  Uiso   1.00
C720   C     0.16483   0.16806   0.97670   0.00000  Uiso   1.00
C721   C     0.16410   0.16805   0.52321   0.00000  Uiso   1.00
C722   C     0.18859   0.20127   0.95354   0.00000  Uiso   1.00
C723   C     0.14146   0.13399   0.54644   0.00000  Uiso   1.00
C724   C     0.11956   0.10069   0.97580   0.00000  Uiso   1.00
C725   C     0.11779   0.10111   0.52277   0.00000  Uiso   1.00
C726   C     0.20775   0.23666   0.52399   0.00000  Uiso   1.00
C727   C     0.12127   0.03140   0.94246   0.00000  Uiso   1.00
C728   C     0.19910   0.30522   0.55767   0.00000  Uiso   1.00
C729   C     0.08982   0.06710   0.54665   0.00000  Uiso   1.00
C730   C     0.05043   0.08983   0.56447   0.00000  Uiso   1.00
C731   C     0.24121   0.26720   0.95386   0.00000  Uiso   1.00
C732   C     0.21888   0.30720   0.93198   0.00000  Uiso   1.00
C733   C     0.21125   0.23491   0.97725   0.00000  Uiso   1.00
C734   C     0.02133   0.12645   0.75945   0.00000  Uiso   1.00
C735   C     0.31200   0.20686   0.74039   0.00000  Uiso   1.00
C736   C     0.31204   0.12646   0.75949   0.00000  Uiso   1.00
C737   C     0.02129   0.20685   0.74035   0.00000  Uiso   1.00
C738   C     0.29086   0.16666   0.74998   0.00000  Uiso   1.00
H739   H     0.20683   0.22367   0.88754   0.00000  Uiso   1.00
H740   H     0.12465   0.29107   0.69554   0.00000  Uiso   1.00
H741   H     0.12466   0.04212   0.69553   0.00000  Uiso   1.00
H742   H     0.20862   0.29122   0.80452   0.00000  Uiso   1.00
H743   H     0.14829   0.04051   0.92111   0.00000  Uiso   1.00
H744   H     0.10236   0.00627   0.92375   0.00000  Uiso   1.00
H745   H     0.13226   0.01474   0.97362   0.00000  Uiso   1.00
H746   H     0.17620   0.29393   0.58314   0.00000  Uiso   1.00
H747   H     0.18226   0.31724   0.52748   0.00000  Uiso   1.00
H748   H     0.21622   0.00126   0.57182   0.00000  Uiso   1.00
H749   H     0.05790   0.11725   0.58858   0.00000  Uiso   1.00
H750   H     0.12735   0.10850   0.61257   0.00000  Uiso   1.00
H751   H     0.03227   0.10444   0.53634   0.00000  Uiso   1.00
H752   H     0.03085   0.06426   0.58170   0.00000  Uiso   1.00
H753   H     0.07961   0.03936   0.52414   0.00000  Uiso   1.00
H754   H     0.10698   0.04971   0.57390   0.00000  Uiso   1.00
H755   H     0.19100   0.29615   0.91298   0.00000  Uiso   1.00
H756   H     0.20926   0.33207   0.95776   0.00000  Uiso   1.00
H757   H     0.24045   0.32457   0.90864   0.00000  Uiso   1.00
H758   H     0.26469   0.28094   0.97755   0.00000  Uiso   1.00
H759   H     0.25982   0.24847   0.92862   0.00000  Uiso   1.00
H760   H     0.12512   0.11035   0.88757   0.00000  Uiso   1.00
H761   H     0.20482   0.22533   0.61199   0.00000  Uiso   1.00
H762   H     0.03759   0.09524   0.76717   0.00000  Uiso   1.00
H763   H     0.29574   0.23807   0.73267   0.00000  Uiso   1.00
H764   H     0.29581   0.09525   0.76726   0.00000  Uiso   1.00
H765   H     0.03753   0.23806   0.73259   0.00000  Uiso   1.00
H766   H     0.20865   0.04226   0.80449   0.00000  Uiso   1.00
N767   N     0.16667   0.28573   0.75000   0.00000  Uiso   1.00
N768   N     0.16667   0.04760   0.75000   0.00000  Uiso   1.00
O769   O     0.10559   0.20487   0.74999   0.00000  Uiso   1.00
O770   O     0.22801   0.27061   0.54760   0.00000  Uiso   1.00
O771   O     0.22774   0.12846   0.75000   0.00000  Uiso   1.00
O772   O     0.22774   0.20487   0.75000   0.00000  Uiso   1.00
O773   O     0.10559   0.12846   0.74999   0.00000  Uiso   1.00
O774   O     0.16666   0.20489   0.68392   0.00000  Uiso   1.00
O775   O     0.16667   0.12844   0.81607   0.00000  Uiso   1.00
O776   O     0.16667   0.20489   0.81607   0.00000  Uiso   1.00
O777   O     0.16666   0.12844   0.68392   0.00000  Uiso   1.00
O778   O     0.09616   0.06951   0.95184   0.00000  Uiso   1.00
Zn779  Zn    0.16667   0.21771   0.75000   0.00000  Uiso   1.00
Zn780  Zn    0.16667   0.11563   0.75000   0.00000  Uiso   1.00
C781   C     0.41995   0.16667   0.74995   0.00000  Uiso   1.00
C782   C     0.37581   0.16666   0.74990   0.00000  Uiso   1.00
C783   C     0.52333   0.02403   0.78030   0.00000  Uiso   1.00
C784   C     0.47666   0.30930   0.71972   0.00000  Uiso   1.00
C785   C     0.47665   0.02395   0.71972   0.00000  Uiso   1.00
C786   C     0.52332   0.30938   0.78030   0.00000  Uiso   1.00
C787   C     0.49995   0.16665   0.66339   0.00000  Uiso   1.00
C788   C     0.50000   0.16671   0.83658   0.00000  Uiso   1.00
C789   C     0.52240   0.19969   0.90700   0.00000  Uiso   1.00
C790   C     0.47673   0.13378   0.59301   0.00000  Uiso   1.00
C791   C     0.49970   0.16692   0.88432   0.00000  Uiso   1.00
C792   C     0.58005   0.16666   0.75001   0.00000  Uiso   1.00
C793   C     0.49923   0.16681   0.61560   0.00000  Uiso   1.00
C794   C     0.47639   0.13470   0.90674   0.00000  Uiso   1.00
C795   C     0.52029   0.20074   0.59304   0.00000  Uiso   1.00
C796   C     0.47577   0.13426   0.95310   0.00000  Uiso   1.00
C797   C     0.51946   0.20216   0.54675   0.00000  Uiso   1.00
C798   C     0.49816   0.16806   0.97670   0.00000  Uiso   1.00
C799   C     0.49743   0.16805   0.52321   0.00000  Uiso   1.00
C800   C     0.52192   0.20127   0.95354   0.00000  Uiso   1.00
C801   C     0.47479   0.13399   0.54644   0.00000  Uiso   1.00
C802   C     0.45289   0.10069   0.97580   0.00000  Uiso   1.00
C803   C     0.45112   0.10111   0.52277   0.00000  Uiso   1.00
C804   C     0.54108   0.23666   0.52399   0.00000  Uiso   1.00
C805   C     0.45460   0.03140   0.94246   0.00000  Uiso   1.00
C806   C     0.53243   0.30522   0.55767   0.00000  Uiso   1.00
C807   C     0.42316   0.06710   0.54665   0.00000  Uiso   1.00
C808   C     0.38377   0.08983   0.56447   0.00000  Uiso   1.00
C809   C     0.57454   0.26720   0.95386   0.00000  Uiso   1.00
C810   C     0.55221   0.30720   0.93198   0.00000  Uiso   1.00
C811   C     0.54459   0.23491   0.97725   0.00000  Uiso   1.00
C812   C     0.35466   0.12645   0.75945   0.00000  Uiso   1.00
C813   C     0.64534   0.20686   0.74039   0.00000  Uiso   1.00
C814   C     0.64537   0.12646   0.75949   0.00000  Uiso   1.00
C815   C     0.35463   0.20685   0.74035   0.00000  Uiso   1.00
C816   C     0.62419   0.16666   0.74998   0.00000  Uiso   1.00
H817   H     0.54017   0.22367   0.88754   0.00000  Uiso   1.00
H818   H     0.45798   0.29107   0.69554   0.00000  Uiso   1.00
H819   H     0.45799   0.04212   0.69553   0.00000  Uiso   1.00
H820   H     0.54196   0.29122   0.80452   0.00000  Uiso   1.00
H821   H     0.48163   0.04051   0.92111   0.00000  Uiso   1.00
H822   H     0.43569   0.00627   0.92375   0.00000  Uiso   1.00
H823   H     0.46560   0.01474   0.97362   0.00000  Uiso   1.00
H824   H     0.50953   0.29393   0.58314   0.00000  Uiso   1.00
H825   H     0.51559   0.31724   0.52748   0.00000  Uiso   1.00
H826   H     0.54955   0.00126   0.57182   0.00000  Uiso   1.00
H827   H     0.39124   0.11725   0.58858   0.00000  Uiso   1.00
H828   H     0.46068   0.10850   0.61257   0.00000  Uiso   1.00
H829   H     0.36560   0.10444   0.53634   0.00000  Uiso   1.00
H830   H     0.36418   0.06426   0.58170   0.00000  Uiso   1.00
H831   H     0.41294   0.03936   0.52414   0.00000  Uiso   1.00
H832   H     0.44031   0.04971   0.57390   0.00000  Uiso   1.00
H833   H     0.52433   0.29615   0.91298   0.00000  Uiso   1.00
H834   H     0.54260   0.33207   0.95776   0.00000  Uiso   1.00
H835   H     0.57378   0.32457   0.90864   0.00000  Uiso   1.00
H836   H     0.59802   0.28094   0.97755   0.00000  Uiso   1.00
H837   H     0.59316   0.24847   0.92862   0.00000  Uiso   1.00
H838   H     0.45845   0.11035   0.88757   0.00000  Uiso   1.00
H839   H     0.53815   0.22533   0.61199   0.00000  Uiso   1.00
H840   H     0.37093   0.09524   0.76717   0.00000  Uiso   1.00
H841   H     0.62907   0.23807   0.73267   0.00000  Uiso   1.00
H842   H     0.62914   0.09525   0.76726   0.00000  Uiso   1.00
H843   H     0.37086   0.23806   0.73259   0.00000  Uiso   1.00
H844   H     0.54198   0.04226   0.80449   0.00000  Uiso   1.00
N845   N     0.50000   0.28573   0.75000   0.00000  Uiso   1.00
N846   N     0.50000   0.04760   0.75000   0.00000  Uiso   1.00
O847   O     0.43892   0.20487   0.74999   0.00000  Uiso   1.00
O848   O     0.56134   0.27061   0.54760   0.00000  Uiso   1.00
O849   O     0.56108   0.12846   0.75000   0.00000  Uiso   1.00
O850   O     0.56108   0.20487   0.75000   0.00000  Uiso   1.00
O851   O     0.43892   0.12846   0.74999   0.00000  Uiso   1.00
O852   O     0.49999   0.20489   0.68392   0.00000  Uiso   1.00
O853   O     0.50001   0.12844   0.81607   0.00000  Uiso   1.00
O854   O     0.50001   0.20489   0.81607   0.00000  Uiso   1.00
O855   O     0.49999   0.12844   0.68392   0.00000  Uiso   1.00
O856   O     0.42950   0.06951   0.95184   0.00000  Uiso   1.00
Zn857  Zn    0.50000   0.21771   0.75000   0.00000  Uiso   1.00
Zn858  Zn    0.50000   0.11563   0.75000   0.00000  Uiso   1.00
C859   C     0.75329   0.16667   0.74995   0.00000  Uiso   1.00
C860   C     0.70915   0.16666   0.74990   0.00000  Uiso   1.00
C861   C     0.85666   0.02403   0.78030   0.00000  Uiso   1.00
C862   C     0.80999   0.30930   0.71972   0.00000  Uiso   1.00
C863   C     0.80999   0.02395   0.71972   0.00000  Uiso   1.00
C864   C     0.85665   0.30938   0.78030   0.00000  Uiso   1.00
C865   C     0.83328   0.16665   0.66339   0.00000  Uiso   1.00
C866   C     0.83334   0.16671   0.83658   0.00000  Uiso   1.00
C867   C     0.85573   0.19969   0.90700   0.00000  Uiso   1.00
C868   C     0.81006   0.13378   0.59301   0.00000  Uiso   1.00
C869   C     0.83304   0.16692   0.88432   0.00000  Uiso   1.00
C870   C     0.91338   0.16666   0.75001   0.00000  Uiso   1.00
C871   C     0.83256   0.16681   0.61560   0.00000  Uiso   1.00
C872   C     0.80972   0.13470   0.90674   0.00000  Uiso   1.00
C873   C     0.85363   0.20074   0.59304   0.00000  Uiso   1.00
C874   C     0.80910   0.13426   0.95310   0.00000  Uiso   1.00
C875   C     0.85280   0.20216   0.54675   0.00000  Uiso   1.00
C876   C     0.83149   0.16806   0.97670   0.00000  Uiso   1.00
C877   C     0.83077   0.16805   0.52321   0.00000  Uiso   1.00
C878   C     0.85525   0.20127   0.95354   0.00000  Uiso   1.00
C879   C     0.80813   0.13399   0.54644   0.00000  Uiso   1.00
C880   C     0.78622   0.10069   0.97580   0.00000  Uiso   1.00
C881   C     0.78445   0.10111   0.52277   0.00000  Uiso   1.00
C882   C     0.87442   0.23666   0.52399   0.00000  Uiso   1.00
C883   C     0.78793   0.03140   0.94246   0.00000  Uiso   1.00
C884   C     0.86576   0.30522   0.55767   0.00000  Uiso   1.00
C885   C     0.75649   0.06710   0.54665   0.00000  Uiso   1.00
C886   C     0.71710   0.08983   0.56447   0.00000  Uiso   1.00
C887   C     0.90787   0.26720   0.95386   0.00000  Uiso   1.00
C888   C     0.88555   0.30720   0.93198   0.00000  Uiso   1.00
C889   C     0.87792   0.23491   0.97725   0.00000  Uiso   1.00
C890   C     0.68800   0.12645   0.75945   0.00000  Uiso   1.00
C891   C     0.97867   0.20686   0.74039   0.00000  Uiso   1.00
C892   C     0.97871   0.12646   0.75949   0.00000  Uiso   1.00
C893   C     0.68796   0.20685   0.74035   0.00000  Uiso   1.00
C894   C     0.95752   0.16666   0.74998   0.00000  Uiso   1.00
H895   H     0.87350   0.22367   0.88754   0.00000  Uiso   1.00
H896   H     0.79132   0.29107   0.69554   0.00000  Uiso   1.00
H897   H     0.79132   0.04212   0.69553   0.00000  Uiso   1.00
H898   H     0.87529   0.29122   0.80452   0.00000  Uiso   1.00
H899   H     0.81496   0.04051   0.92111   0.00000  Uiso   1.00
H900   H     0.76903   0.00627   0.92375   0.00000  Uiso   1.00
H901   H     0.79893   0.01474   0.97362   0.00000  Uiso   1.00
H902   H     0.84287   0.29393   0.58314   0.00000  Uiso   1.00
H903   H     0.84892   0.31724   0.52748   0.00000  Uiso   1.00
H904   H     0.88289   0.00126   0.57182   0.00000  Uiso   1.00
H905   H     0.72457   0.11725   0.58858   0.00000  Uiso   1.00
H906   H     0.79401   0.10850   0.61257   0.00000  Uiso   1.00
H907   H     0.69894   0.10444   0.53634   0.00000  Uiso   1.00
H908   H     0.69752   0.06426   0.58170   0.00000  Uiso   1.00
H909   H     0.74627   0.03936   0.52414   0.00000  Uiso   1.00
H910   H     0.77364   0.04971   0.57390   0.00000  Uiso   1.00
H911   H     0.85766   0.29615   0.91298   0.00000  Uiso   1.00
H912   H     0.87593   0.33207   0.95776   0.00000  Uiso   1.00
H913   H     0.90711   0.32457   0.90864   0.00000  Uiso   1.00
H914   H     0.93135   0.28094   0.97755   0.00000  Uiso   1.00
H915   H     0.92649   0.24847   0.92862   0.00000  Uiso   1.00
H916   H     0.79178   0.11035   0.88757   0.00000  Uiso   1.00
H917   H     0.87149   0.22533   0.61199   0.00000  Uiso   1.00
H918   H     0.70426   0.09524   0.76717   0.00000  Uiso   1.00
H919   H     0.96240   0.23807   0.73267   0.00000  Uiso   1.00
H920   H     0.96247   0.09525   0.76726   0.00000  Uiso   1.00
H921   H     0.70420   0.23806   0.73259   0.00000  Uiso   1.00
H922   H     0.87532   0.04226   0.80449   0.00000  Uiso   1.00
N923   N     0.83333   0.28573   0.75000   0.00000  Uiso   1.00
N924   N     0.83333   0.04760   0.75000   0.00000  Uiso   1.00
O925   O     0.77226   0.20487   0.74999   0.00000  Uiso   1.00
O926   O     0.89468   0.27061   0.54760   0.00000  Uiso   1.00
O927   O     0.89441   0.12846   0.75000   0.00000  Uiso   1.00
O928   O     0.89441   0.20487   0.75000   0.00000  Uiso   1.00
O929   O     0.77226   0.12846   0.74999   0.00000  Uiso   1.00
O930   O     0.83333   0.20489   0.68392   0.00000  Uiso   1.00
O931   O     0.83334   0.12844   0.81607   0.00000  Uiso   1.00
O932   O     0.83334   0.20489   0.81607   0.00000  Uiso   1.00
O933   O     0.83333   0.12844   0.68392   0.00000  Uiso   1.00
O934   O     0.76283   0.06951   0.95184   0.00000  Uiso   1.00
Zn935  Zn    0.83333   0.21771   0.75000   0.00000  Uiso   1.00
Zn936  Zn    0.83333   0.11563   0.75000   0.00000  Uiso   1.00
C937   C     0.08662   0.50000   0.74995   0.00000  Uiso   1.00
C938   C     0.04248   0.49999   0.74990   0.00000  Uiso   1.00
C939   C     0.18999   0.35737   0.78030   0.00000  Uiso   1.00
C940   C     0.14332   0.64263   0.71972   0.00000  Uiso   1.00
C941   C     0.14332   0.35729   0.71972   0.00000  Uiso   1.00
C942   C     0.18999   0.64271   0.78030   0.00000  Uiso   1.00
C943   C     0.16662   0.49998   0.66339   0.00000  Uiso   1.00
C944   C     0.16667   0.50005   0.83658   0.00000  Uiso   1.00
C945   C     0.18906   0.53302   0.90700   0.00000  Uiso   1.00
C946   C     0.14340   0.46711   0.59301   0.00000  Uiso   1.00
C947   C     0.16637   0.50026   0.88432   0.00000  Uiso   1.00
C948   C     0.24671   0.50000   0.75001   0.00000  Uiso   1.00
C949   C     0.16589   0.50015   0.61560   0.00000  Uiso   1.00
C950   C     0.14306   0.46803   0.90674   0.00000  Uiso   1.00
C951   C     0.18696   0.53407   0.59304   0.00000  Uiso   1.00
C952   C     0.14244   0.46759   0.95310   0.00000  Uiso   1.00
C953   C     0.18613   0.53549   0.54675   0.00000  Uiso   1.00
C954   C     0.16483   0.50139   0.97670   0.00000  Uiso   1.00
C955   C     0.16410   0.50138   0.52321   0.00000  Uiso   1.00
C956   C     0.18859   0.53460   0.95354   0.00000  Uiso   1.00
C957   C     0.14146   0.46733   0.54644   0.00000  Uiso   1.00
C958   C     0.11956   0.43402   0.97580   0.00000  Uiso   1.00
C959   C     0.11779   0.43445   0.52277   0.00000  Uiso   1.00
C960   C     0.20775   0.56999   0.52399   0.00000  Uiso   1.00
C961   C     0.12127   0.36473   0.94246   0.00000  Uiso   1.00
C962   C     0.19910   0.63856   0.55767   0.00000  Uiso   1.00
C963   C     0.08982   0.40043   0.54665   0.00000  Uiso   1.00
C964   C     0.05043   0.42316   0.56447   0.00000  Uiso   1.00
C965   C     0.24121   0.60053   0.95386   0.00000  Uiso   1.00
C966   C     0.21888   0.64054   0.93198   0.00000  Uiso   1.00
C967   C     0.21125   0.56824   0.97725   0.00000  Uiso   1.00
C968   C     0.02133   0.45979   0.75945   0.00000  Uiso   1.00
C969   C     0.31200   0.54019   0.74039   0.00000  Uiso   1.00
C970   C     0.31204   0.45979   0.75949   0.00000  Uiso   1.00
C971   C     0.02129   0.54019   0.74035   0.00000  Uiso   1.00
C972   C     0.29086   0.50000   0.74998   0.00000  Uiso   1.00
H973   H     0.20683   0.55700   0.88754   0.00000  Uiso   1.00
H974   H     0.12465   0.62440   0.69554   0.00000  Uiso   1.00
H975   H     0.12466   0.37545   0.69553   0.00000  Uiso   1.00
H976   H     0.20862   0.62455   0.80452   0.00000  Uiso   1.00
H977   H     0.14829   0.37385   0.92111   0.00000  Uiso   1.00
H978   H     0.10236   0.33960   0.92375   0.00000  Uiso   1.00
H979   H     0.13226   0.34808   0.97362   0.00000  Uiso   1.00
H980   H     0.17620   0.62726   0.58314   0.00000  Uiso   1.00
H981   H     0.18226   0.65057   0.52748   0.00000  Uiso   1.00
H982   H     0.21622   0.33459   0.57182   0.00000  Uiso   1.00
H983   H     0.05790   0.45058   0.58858   0.00000  Uiso   1.00
H984   H     0.12735   0.44184   0.61257   0.00000  Uiso   1.00
H985   H     0.03227   0.43777   0.53634   0.00000  Uiso   1.00
H986   H     0.03085   0.39759   0.58170   0.00000  Uiso   1.00
H987   H     0.07961   0.37269   0.52414   0.00000  Uiso   1.00
H988   H     0.10698   0.38304   0.57390   0.00000  Uiso   1.00
H989   H     0.19100   0.62949   0.91298   0.00000  Uiso   1.00
H990   H     0.20926   0.66540   0.95776   0.00000  Uiso   1.00
H991   H     0.24045   0.65791   0.90864   0.00000  Uiso   1.00
H992   H     0.26469   0.61427   0.97755   0.00000  Uiso   1.00
H993   H     0.25982   0.58180   0.92862   0.00000  Uiso   1.00
H994   H     0.12512   0.44368   0.88757   0.00000  Uiso   1.00
H995   H     0.20482   0.55867   0.61199   0.00000  Uiso   1.00
H996   H     0.03759   0.42857   0.76717   0.00000  Uiso   1.00
H997   H     0.29574   0.57140   0.73267   0.00000  Uiso   1.00
H998   H     0.29581   0.42858   0.76726   0.00000  Uiso   1.00
H999   H     0.03753   0.57139   0.73259   0.00000  Uiso   1.00
H1000  H     0.20865   0.37559   0.80449   0.00000  Uiso   1.00
N1001  N     0.16667   0.61907   0.75000   0.00000  Uiso   1.00
N1002  N     0.16667   0.38093   0.75000   0.00000  Uiso   1.00
O1003  O     0.10559   0.53821   0.74999   0.00000  Uiso   1.00
O1004  O     0.22801   0.60394   0.54760   0.00000  Uiso   1.00
O1005  O     0.22774   0.46179   0.75000   0.00000  Uiso   1.00
O1006  O     0.22774   0.53821   0.75000   0.00000  Uiso   1.00
O1007  O     0.10559   0.46179   0.74999   0.00000  Uiso   1.00
O1008  O     0.16666   0.53823   0.68392   0.00000  Uiso   1.00
O1009  O     0.16667   0.46177   0.81607   0.00000  Uiso   1.00
O1010  O     0.16667   0.53823   0.81607   0.00000  Uiso   1.00
O1011  O     0.16666   0.46177   0.68392   0.00000  Uiso   1.00
O1012  O     0.09616   0.40284   0.95184   0.00000  Uiso   1.00
Zn1013 Zn    0.16667   0.55104   0.75000   0.00000  Uiso   1.00
Zn1014 Zn    0.16667   0.44896   0.75000   0.00000  Uiso   1.00
C1015  C     0.41995   0.50000   0.74995   0.00000  Uiso   1.00
C1016  C     0.37581   0.49999   0.74990   0.00000  Uiso   1.00
C1017  C     0.52333   0.35737   0.78030   0.00000  Uiso   1.00
C1018  C     0.47666   0.64263   0.71972   0.00000  Uiso   1.00
C1019  C     0.47665   0.35729   0.71972   0.00000  Uiso   1.00
C1020  C     0.52332   0.64271   0.78030   0.00000  Uiso   1.00
C1021  C     0.49995   0.49998   0.66339   0.00000  Uiso   1.00
C1022  C     0.50000   0.50005   0.83658   0.00000  Uiso   1.00
C1023  C     0.52240   0.53302   0.90700   0.00000  Uiso   1.00
C1024  C     0.47673   0.46711   0.59301   0.00000  Uiso   1.00
C1025  C     0.49970   0.50026   0.88432   0.00000  Uiso   1.00
C1026  C     0.58005   0.50000   0.75001   0.00000  Uiso   1.00
C1027  C     0.49923   0.50015   0.61560   0.00000  Uiso   1.00
C1028  C     0.47639   0.46803   0.90674   0.00000  Uiso   1.00
C1029  C     0.52029   0.53407   0.59304   0.00000  Uiso   1.00
C1030  C     0.47577   0.46759   0.95310   0.00000  Uiso   1.00
C1031  C     0.51946   0.53549   0.54675   0.00000  Uiso   1.00
C1032  C     0.49816   0.50139   0.97670   0.00000  Uiso   1.00
C1033  C     0.49743   0.50138   0.52321   0.00000  Uiso   1.00
C1034  C     0.52192   0.53460   0.95354   0.00000  Uiso   1.00
C1035  C     0.47479   0.46733   0.54644   0.00000  Uiso   1.00
C1036  C     0.45289   0.43402   0.97580   0.00000  Uiso   1.00
C1037  C     0.45112   0.43445   0.52277   0.00000  Uiso   1.00
C1038  C     0.54108   0.56999   0.52399   0.00000  Uiso   1.00
C1039  C     0.45460   0.36473   0.94246   0.00000  Uiso   1.00
C1040  C     0.53243   0.63856   0.55767   0.00000  Uiso   1.00
C1041  C     0.42316   0.40043   0.54665   0.00000  Uiso   1.00
C1042  C     0.38377   0.42316   0.56447   0.00000  Uiso   1.00
C1043  C     0.57454   0.60053   0.95386   0.00000  Uiso   1.00
C1044  C     0.55221   0.64054   0.93198   0.00000  Uiso   1.00
C1045  C     0.54459   0.56824   0.97725   0.00000  Uiso   1.00
C1046  C     0.35466   0.45979   0.75945   0.00000  Uiso   1.00
C1047  C     0.64534   0.54019   0.74039   0.00000  Uiso   1.00
C1048  C     0.64537   0.45979   0.75949   0.00000  Uiso   1.00
C1049  C     0.35463   0.54019   0.74035   0.00000  Uiso   1.00
C1050  C     0.62419   0.50000   0.74998   0.00000  Uiso   1.00
H1051  H     0.54017   0.55700   0.88754   0.00000  Uiso   1.00
H1052  H     0.45798   0.62440   0.69554   0.00000  Uiso   1.00
H1053  H     0.45799   0.37545   0.69553   0.00000  Uiso   1.00
H1054  H     0.54196   0.62455   0.80452   0.00000  Uiso   1.00
H1055  H     0.48163   0.37385   0.92111   0.00000  Uiso   1.00
H1056  H     0.43569   0.33960   0.92375   0.00000  Uiso   1.00
H1057  H     0.46560   0.34808   0.97362   0.00000  Uiso   1.00
H1058  H     0.50953   0.62726   0.58314   0.00000  Uiso   1.00
H1059  H     0.51559   0.65057   0.52748   0.00000  Uiso   1.00
H1060  H     0.54955   0.33459   0.57182   0.00000  Uiso   1.00
H1061  H     0.39124   0.45058   0.58858   0.00000  Uiso   1.00
H1062  H     0.46068   0.44184   0.61257   0.00000  Uiso   1.00
H1063  H     0.36560   0.43777   0.53634   0.00000  Uiso   1.00
H1064  H     0.36418   0.39759   0.58170   0.00000  Uiso   1.00
H1065  H     0.41294   0.37269   0.52414   0.00000  Uiso   1.00
H1066  H     0.44031   0.38304   0.57390   0.00000  Uiso   1.00
H1067  H     0.52433   0.62949   0.91298   0.00000  Uiso   1.00
H1068  H     0.54260   0.66540   0.95776   0.00000  Uiso   1.00
H1069  H     0.57378   0.65791   0.90864   0.00000  Uiso   1.00
H1070  H     0.59802   0.61427   0.97755   0.00000  Uiso   1.00
H1071  H     0.59316   0.58180   0.92862   0.00000  Uiso   1.00
H1072  H     0.45845   0.44368   0.88757   0.00000  Uiso   1.00
H1073  H     0.53815   0.55867   0.61199   0.00000  Uiso   1.00
H1074  H     0.37093   0.42857   0.76717   0.00000  Uiso   1.00
H1075  H     0.62907   0.57140   0.73267   0.00000  Uiso   1.00
H1076  H     0.62914   0.42858   0.76726   0.00000  Uiso   1.00
H1077  H     0.37086   0.57139   0.73259   0.00000  Uiso   1.00
H1078  H     0.54198   0.37559   0.80449   0.00000  Uiso   1.00
N1079  N     0.50000   0.61907   0.75000   0.00000  Uiso   1.00
N1080  N     0.50000   0.38093   0.75000   0.00000  Uiso   1.00
O1081  O     0.43892   0.53821   0.74999   0.00000  Uiso   1.00
O1082  O     0.56134   0.60394   0.54760   0.00000  Uiso   1.00
O1083  O     0.56108   0.46179   0.75000   0.00000  Uiso   1.00
O1084  O     0.56108   0.53821   0.75000   0.00000  Uiso   1.00
O1085  O     0.43892   0.46179   0.74999   0.00000  Uiso   1.00
O1086  O     0.49999   0.53823   0.68392   0.00000  Uiso   1.00
O1087  O     0.50001   0.46177   0.81607   0.00000  Uiso   1.00
O1088  O     0.50001   0.53823   0.81607   0.00000  Uiso   1.00
O1089  O     0.49999   0.46177   0.68392   0.00000  Uiso   1.00
O1090  O     0.42950   0.40284   0.95184   0.00000  Uiso   1.00
Zn1091 Zn    0.50000   0.55104   0.75000   0.00000  Uiso   1.00
Zn1092 Zn    0.50000   0.44896   0.75000   0.00000  Uiso   1.00
C1093  C     0.75329   0.50000   0.74995   0.00000  Uiso   1.00
C1094  C     0.70915   0.49999   0.74990   0.00000  Uiso   1.00
C1095  C     0.85666   0.35737   0.78030   0.00000  Uiso   1.00
C1096  C     0.80999   0.64263   0.71972   0.00000  Uiso   1.00
C1097  C     0.80999   0.35729   0.71972   0.00000  Uiso   1.00
C1098  C     0.85665   0.64271   0.78030   0.00000  Uiso   1.00
C1099  C     0.83328   0.49998   0.66339   0.00000  Uiso   1.00
C1100  C     0.83334   0.50005   0.83658   0.00000  Uiso   1.00
C1101  C     0.85573   0.53302   0.90700   0.00000  Uiso   1.00
C1102  C     0.81006   0.46711   0.59301   0.00000  Uiso   1.00
C1103  C     0.83304   0.50026   0.88432   0.00000  Uiso   1.00
C1104  C     0.91338   0.50000   0.75001   0.00000  Uiso   1.00
C1105  C     0.83256   0.50015   0.61560   0.00000  Uiso   1.00
C1106  C     0.80972   0.46803   0.90674   0.00000  Uiso   1.00
C1107  C     0.85363   0.53407   0.59304   0.00000  Uiso   1.00
C1108  C     0.80910   0.46759   0.95310   0.00000  Uiso   1.00
C1109  C     0.85280   0.53549   0.54675   0.00000  Uiso   1.00
C1110  C     0.83149   0.50139   0.97670   0.00000  Uiso   1.00
C1111  C     0.83077   0.50138   0.52321   0.00000  Uiso   1.00
C1112  C     0.85525   0.53460   0.95354   0.00000  Uiso   1.00
C1113  C     0.80813   0.46733   0.54644   0.00000  Uiso   1.00
C1114  C     0.78622   0.43402   0.97580   0.00000  Uiso   1.00
C1115  C     0.78445   0.43445   0.52277   0.00000  Uiso   1.00
C1116  C     0.87442   0.56999   0.52399   0.00000  Uiso   1.00
C1117  C     0.78793   0.36473   0.94246   0.00000  Uiso   1.00
C1118  C     0.86576   0.63856   0.55767   0.00000  Uiso   1.00
C1119  C     0.75649   0.40043   0.54665   0.00000  Uiso   1.00
C1120  C     0.71710   0.42316   0.56447   0.00000  Uiso   1.00
C1121  C     0.90787   0.60053   0.95386   0.00000  Uiso   1.00
C1122  C     0.88555   0.64054   0.93198   0.00000  Uiso   1.00
C1123  C     0.87792   0.56824   0.97725   0.00000  Uiso   1.00
C1124  C     0.68800   0.45979   0.75945   0.00000  Uiso   1.00
C1125  C     0.97867   0.54019   0.74039   0.00000  Uiso   1.00
C1126  C     0.97871   0.45979   0.75949   0.00000  Uiso   1.00
C1127  C     0.68796   0.54019   0.74035   0.00000  Uiso   1.00
C1128  C     0.95752   0.50000   0.74998   0.00000  Uiso   1.00
H1129  H     0.87350   0.55700   0.88754   0.00000  Uiso   1.00
H1130  H     0.79132   0.62440   0.69554   0.00000  Uiso   1.00
H1131  H     0.79132   0.37545   0.69553   0.00000  Uiso   1.00
H1132  H     0.87529   0.62455   0.80452   0.00000  Uiso   1.00
H1133  H     0.81496   0.37385   0.92111   0.00000  Uiso   1.00
H1134  H     0.76903   0.33960   0.92375   0.00000  Uiso   1.00
H1135  H     0.79893   0.34808   0.97362   0.00000  Uiso   1.00
H1136  H     0.84287   0.62726   0.58314   0.00000  Uiso   1.00
H1137  H     0.84892   0.65057   0.52748   0.00000  Uiso   1.00
H1138  H     0.88289   0.33459   0.57182   0.00000  Uiso   1.00
H1139  H     0.72457   0.45058   0.58858   0.00000  Uiso   1.00
H1140  H     0.79401   0.44184   0.61257   0.00000  Uiso   1.00
H1141  H     0.69894   0.43777   0.53634   0.00000  Uiso   1.00
H1142  H     0.69752   0.39759   0.58170   0.00000  Uiso   1.00
H1143  H     0.74627   0.37269   0.52414   0.00000  Uiso   1.00
H1144  H     0.77364   0.38304   0.57390   0.00000  Uiso   1.00
H1145  H     0.85766   0.62949   0.91298   0.00000  Uiso   1.00
H1146  H     0.87593   0.66540   0.95776   0.00000  Uiso   1.00
H1147  H     0.90711   0.65791   0.90864   0.00000  Uiso   1.00
H1148  H     0.93135   0.61427   0.97755   0.00000  Uiso   1.00
H1149  H     0.92649   0.58180   0.92862   0.00000  Uiso   1.00
H1150  H     0.79178   0.44368   0.88757   0.00000  Uiso   1.00
H1151  H     0.87149   0.55867   0.61199   0.00000  Uiso   1.00
H1152  H     0.70426   0.42857   0.76717   0.00000  Uiso   1.00
H1153  H     0.96240   0.57140   0.73267   0.00000  Uiso   1.00
H1154  H     0.96247   0.42858   0.76726   0.00000  Uiso   1.00
H1155  H     0.70420   0.57139   0.73259   0.00000  Uiso   1.00
H1156  H     0.87532   0.37559   0.80449   0.00000  Uiso   1.00
N1157  N     0.83333   0.61907   0.75000   0.00000  Uiso   1.00
N1158  N     0.83333   0.38093   0.75000   0.00000  Uiso   1.00
O1159  O     0.77226   0.53821   0.74999   0.00000  Uiso   1.00
O1160  O     0.89468   0.60394   0.54760   0.00000  Uiso   1.00
O1161  O     0.89441   0.46179   0.75000   0.00000  Uiso   1.00
O1162  O     0.89441   0.53821   0.75000   0.00000  Uiso   1.00
O1163  O     0.77226   0.46179   0.74999   0.00000  Uiso   1.00
O1164  O     0.83333   0.53823   0.68392   0.00000  Uiso   1.00
O1165  O     0.83334   0.46177   0.81607   0.00000  Uiso   1.00
O1166  O     0.83334   0.53823   0.81607   0.00000  Uiso   1.00
O1167  O     0.83333   0.46177   0.68392   0.00000  Uiso   1.00
O1168  O     0.76283   0.40284   0.95184   0.00000  Uiso   1.00
Zn1169 Zn    0.83333   0.55104   0.75000   0.00000  Uiso   1.00
Zn1170 Zn    0.83333   0.44896   0.75000   0.00000  Uiso   1.00
C1171  C     0.08662   0.83333   0.74995   0.00000  Uiso   1.00
C1172  C     0.04248   0.83332   0.74990   0.00000  Uiso   1.00
C1173  C     0.18999   0.69070   0.78030   0.00000  Uiso   1.00
C1174  C     0.14332   0.97597   0.71972   0.00000  Uiso   1.00
C1175  C     0.14332   0.69062   0.71972   0.00000  Uiso   1.00
C1176  C     0.18999   0.97605   0.78030   0.00000  Uiso   1.00
C1177  C     0.16662   0.83331   0.66339   0.00000  Uiso   1.00
C1178  C     0.16667   0.83338   0.83658   0.00000  Uiso   1.00
C1179  C     0.18906   0.86635   0.90700   0.00000  Uiso   1.00
C1180  C     0.14340   0.80045   0.59301   0.00000  Uiso   1.00
C1181  C     0.16637   0.83359   0.88432   0.00000  Uiso   1.00
C1182  C     0.24671   0.83333   0.75001   0.00000  Uiso   1.00
C1183  C     0.16589   0.83348   0.61560   0.00000  Uiso   1.00
C1184  C     0.14306   0.80137   0.90674   0.00000  Uiso   1.00
C1185  C     0.18696   0.86740   0.59304   0.00000  Uiso   1.00
C1186  C     0.14244   0.80093   0.95310   0.00000  Uiso   1.00
C1187  C     0.18613   0.86883   0.54675   0.00000  Uiso   1.00
C1188  C     0.16483   0.83472   0.97670   0.00000  Uiso   1.00
C1189  C     0.16410   0.83472   0.52321   0.00000  Uiso   1.00
C1190  C     0.18859   0.86793   0.95354   0.00000  Uiso   1.00
C1191  C     0.14146   0.80066   0.54644   0.00000  Uiso   1.00
C1192  C     0.11956   0.76735   0.97580   0.00000  Uiso   1.00
C1193  C     0.11779   0.76778   0.52277   0.00000  Uiso   1.00
C1194  C     0.20775   0.90333   0.52399   0.00000  Uiso   1.00
C1195  C     0.12127   0.69807   0.94246   0.00000  Uiso   1.00
C1196  C     0.19910   0.97189   0.55767   0.00000  Uiso   1.00
C1197  C     0.08982   0.73376   0.54665   0.00000  Uiso   1.00
C1198  C     0.05043   0.75649   0.56447   0.00000  Uiso   1.00
C1199  C     0.24121   0.93386   0.95386   0.00000  Uiso   1.00
C1200  C     0.21888   0.97387   0.93198   0.00000  Uiso   1.00
C1201  C     0.21125   0.90157   0.97725   0.00000  Uiso   1.00
C1202  C     0.02133   0.79312   0.75945   0.00000  Uiso   1.00
C1203  C     0.31200   0.87352   0.74039   0.00000  Uiso   1.00
C1204  C     0.31204   0.79312   0.75949   0.00000  Uiso   1.00
C1205  C     0.02129   0.87352   0.74035   0.00000  Uiso   1.00
C1206  C     0.29086   0.83333   0.74998   0.00000  Uiso   1.00
H1207  H     0.20683   0.89034   0.88754   0.00000  Uiso   1.00
H1208  H     0.12465   0.95773   0.69554   0.00000  Uiso   1.00
H1209  H     0.12466   0.70879   0.69553   0.00000  Uiso   1.00
H1210  H     0.20862   0.95788   0.80452   0.00000  Uiso   1.00
H1211  H     0.14829   0.70718   0.92111   0.00000  Uiso   1.00
H1212  H     0.10236   0.67293   0.92375   0.00000  Uiso   1.00
H1213  H     0.13226   0.68141   0.97362   0.00000  Uiso   1.00
H1214  H     0.17620   0.96060   0.58314   0.00000  Uiso   1.00
H1215  H     0.18226   0.98391   0.52748   0.00000  Uiso   1.00
H1216  H     0.21622   0.66792   0.57182   0.00000  Uiso   1.00
H1217  H     0.05790   0.78391   0.58858   0.00000  Uiso   1.00
H1218  H     0.12735   0.77517   0.61257   0.00000  Uiso   1.00
H1219  H     0.03227   0.77110   0.53634   0.00000  Uiso   1.00
H1220  H     0.03085   0.73092   0.58170   0.00000  Uiso   1.00
H1221  H     0.07961   0.70602   0.52414   0.00000  Uiso   1.00
H1222  H     0.10698   0.71638   0.57390   0.00000  Uiso   1.00
H1223  H     0.19100   0.96282   0.91298   0.00000  Uiso   1.00
H1224  H     0.20926   0.99874   0.95776   0.00000  Uiso   1.00
H1225  H     0.24045   0.99124   0.90864   0.00000  Uiso   1.00
H1226  H     0.26469   0.94761   0.97755   0.00000  Uiso   1.00
H1227  H     0.25982   0.91513   0.92862   0.00000  Uiso   1.00
H1228  H     0.12512   0.77702   0.88757   0.00000  Uiso   1.00
H1229  H     0.20482   0.89200   0.61199   0.00000  Uiso   1.00
H1230  H     0.03759   0.76191   0.76717   0.00000  Uiso   1.00
H1231  H     0.29574   0.90474   0.73267   0.00000  Uiso   1.00
H1232  H     0.29581   0.76192   0.76726   0.00000  Uiso   1.00
H1233  H     0.03753   0.90472   0.73259   0.00000  Uiso   1.00
H1234  H     0.20865   0.70893   0.80449   0.00000  Uiso   1.00
N1235  N     0.16667   0.95240   0.75000   0.00000  Uiso   1.00
N1236  N     0.16667   0.71427   0.75000   0.00000  Uiso   1.00
O1237  O     0.10559   0.87154   0.74999   0.00000  Uiso   1.00
O1238  O     0.22801   0.93727   0.54760   0.00000  Uiso   1.00
O1239  O     0.22774   0.79513   0.75000   0.00000  Uiso   1.00
O1240  O     0.22774   0.87154   0.75000   0.00000  Uiso   1.00
O1241  O     0.10559   0.79513   0.74999   0.00000  Uiso   1.00
O1242  O     0.16666   0.87156   0.68392   0.00000  Uiso   1.00
O1243  O     0.16667   0.79511   0.81607   0.00000  Uiso   1.00
O1244  O     0.16667   0.87156   0.81607   0.00000  Uiso   1.00
O1245  O     0.16666   0.79511   0.68392   0.00000  Uiso   1.00
O1246  O     0.09616   0.73617   0.95184   0.00000  Uiso   1.00
Zn1247 Zn    0.16667   0.88437   0.75000   0.00000  Uiso   1.00
Zn1248 Zn    0.16667   0.78229   0.75000   0.00000  Uiso   1.00
C1249  C     0.41995   0.83333   0.74995   0.00000  Uiso   1.00
C1250  C     0.37581   0.83332   0.74990   0.00000  Uiso   1.00
C1251  C     0.52333   0.69070   0.78030   0.00000  Uiso   1.00
C1252  C     0.47666   0.97597   0.71972   0.00000  Uiso   1.00
C1253  C     0.47665   0.69062   0.71972   0.00000  Uiso   1.00
C1254  C     0.52332   0.97605   0.78030   0.00000  Uiso   1.00
C1255  C     0.49995   0.83331   0.66339   0.00000  Uiso   1.00
C1256  C     0.50000   0.83338   0.83658   0.00000  Uiso   1.00
C1257  C     0.52240   0.86635   0.90700   0.00000  Uiso   1.00
C1258  C     0.47673   0.80045   0.59301   0.00000  Uiso   1.00
C1259  C     0.49970   0.83359   0.88432   0.00000  Uiso   1.00
C1260  C     0.58005   0.83333   0.75001   0.00000  Uiso   1.00
C1261  C     0.49923   0.83348   0.61560   0.00000  Uiso   1.00
C1262  C     0.47639   0.80137   0.90674   0.00000  Uiso   1.00
C1263  C     0.52029   0.86740   0.59304   0.00000  Uiso   1.00
C1264  C     0.47577   0.80093   0.95310   0.00000  Uiso   1.00
C1265  C     0.51946   0.86883   0.54675   0.00000  Uiso   1.00
C1266  C     0.49816   0.83472   0.97670   0.00000  Uiso   1.00
C1267  C     0.49743   0.83472   0.52321   0.00000  Uiso   1.00
C1268  C     0.52192   0.86793   0.95354   0.00000  Uiso   1.00
C1269  C     0.47479   0.80066   0.54644   0.00000  Uiso   1.00
C1270  C     0.45289   0.76735   0.97580   0.00000  Uiso   1.00
C1271  C     0.45112   0.76778   0.52277   0.00000  Uiso   1.00
C1272  C     0.54108   0.90333   0.52399   0.00000  Uiso   1.00
C1273  C     0.45460   0.69807   0.94246   0.00000  Uiso   1.00
C1274  C     0.53243   0.97189   0.55767   0.00000  Uiso   1.00
C1275  C     0.42316   0.73376   0.54665   0.00000  Uiso   1.00
C1276  C     0.38377   0.75649   0.56447   0.00000  Uiso   1.00
C1277  C     0.57454   0.93386   0.95386   0.00000  Uiso   1.00
C1278  C     0.55221   0.97387   0.93198   0.00000  Uiso   1.00
C1279  C     0.54459   0.90157   0.97725   0.00000  Uiso   1.00
C1280  C     0.35466   0.79312   0.75945   0.00000  Uiso   1.00
C1281  C     0.64534   0.87352   0.74039   0.00000  Uiso   1.00
C1282  C     0.64537   0.79312   0.75949   0.00000  Uiso   1.00
C1283  C     0.35463   0.87352   0.74035   0.00000  Uiso   1.00
C1284  C     0.62419   0.83333   0.74998   0.00000  Uiso   1.00
H1285  H     0.54017   0.89034   0.88754   0.00000  Uiso   1.00
H1286  H     0.45798   0.95773   0.69554   0.00000  Uiso   1.00
H1287  H     0.45799   0.70879   0.69553   0.00000  Uiso   1.00
H1288  H     0.54196   0.95788   0.80452   0.00000  Uiso   1.00
H1289  H     0.48163   0.70718   0.92111   0.00000  Uiso   1.00
H1290  H     0.43569   0.67293   0.92375   0.00000  Uiso   1.00
H1291  H     0.46560   0.68141   0.97362   0.00000  Uiso   1.00
H1292  H     0.50953   0.96060   0.58314   0.00000  Uiso   1.00
H1293  H     0.51559   0.98391   0.52748   0.00000  Uiso   1.00
H1294  H     0.54955   0.66792   0.57182   0.00000  Uiso   1.00
H1295  H     0.39124   0.78391   0.58858   0.00000  Uiso   1.00
H1296  H     0.46068   0.77517   0.61257   0.00000  Uiso   1.00
H1297  H     0.36560   0.77110   0.53634   0.00000  Uiso   1.00
H1298  H     0.36418   0.73092   0.58170   0.00000  Uiso   1.00
H1299  H     0.41294   0.70602   0.52414   0.00000  Uiso   1.00
H1300  H     0.44031   0.71638   0.57390   0.00000  Uiso   1.00
H1301  H     0.52433   0.96282   0.91298   0.00000  Uiso   1.00
H1302  H     0.54260   0.99874   0.95776   0.00000  Uiso   1.00
H1303  H     0.57378   0.99124   0.90864   0.00000  Uiso   1.00
H1304  H     0.59802   0.94761   0.97755   0.00000  Uiso   1.00
H1305  H     0.59316   0.91513   0.92862   0.00000  Uiso   1.00
H1306  H     0.45845   0.77702   0.88757   0.00000  Uiso   1.00
H1307  H     0.53815   0.89200   0.61199   0.00000  Uiso   1.00
H1308  H     0.37093   0.76191   0.76717   0.00000  Uiso   1.00
H1309  H     0.62907   0.90474   0.73267   0.00000  Uiso   1.00
H1310  H     0.62914   0.76192   0.76726   0.00000  Uiso   1.00
H1311  H     0.37086   0.90472   0.73259   0.00000  Uiso   1.00
H1312  H     0.54198   0.70893   0.80449   0.00000  Uiso   1.00
N1313  N     0.50000   0.95240   0.75000   0.00000  Uiso   1.00
N1314  N     0.50000   0.71427   0.75000   0.00000  Uiso   1.00
O1315  O     0.43892   0.87154   0.74999   0.00000  Uiso   1.00
O1316  O     0.56134   0.93727   0.54760   0.00000  Uiso   1.00
O1317  O     0.56108   0.79513   0.75000   0.00000  Uiso   1.00
O1318  O     0.56108   0.87154   0.75000   0.00000  Uiso   1.00
O1319  O     0.43892   0.79513   0.74999   0.00000  Uiso   1.00
O1320  O     0.49999   0.87156   0.68392   0.00000  Uiso   1.00
O1321  O     0.50001   0.79511   0.81607   0.00000  Uiso   1.00
O1322  O     0.50001   0.87156   0.81607   0.00000  Uiso   1.00
O1323  O     0.49999   0.79511   0.68392   0.00000  Uiso   1.00
O1324  O     0.42950   0.73617   0.95184   0.00000  Uiso   1.00
Zn1325 Zn    0.50000   0.88437   0.75000   0.00000  Uiso   1.00
Zn1326 Zn    0.50000   0.78229   0.75000   0.00000  Uiso   1.00
C1327  C     0.75329   0.83333   0.74995   0.00000  Uiso   1.00
C1328  C     0.70915   0.83332   0.74990   0.00000  Uiso   1.00
C1329  C     0.85666   0.69070   0.78030   0.00000  Uiso   1.00
C1330  C     0.80999   0.97597   0.71972   0.00000  Uiso   1.00
C1331  C     0.80999   0.69062   0.71972   0.00000  Uiso   1.00
C1332  C     0.85665   0.97605   0.78030   0.00000  Uiso   1.00
C1333  C     0.83328   0.83331   0.66339   0.00000  Uiso   1.00
C1334  C     0.83334   0.83338   0.83658   0.00000  Uiso   1.00
C1335  C     0.85573   0.86635   0.90700   0.00000  Uiso   1.00
C1336  C     0.81006   0.80045   0.59301   0.00000  Uiso   1.00
C1337  C     0.83304   0.83359   0.88432   0.00000  Uiso   1.00
C1338  C     0.91338   0.83333   0.75001   0.00000  Uiso   1.00
C1339  C     0.83256   0.83348   0.61560   0.00000  Uiso   1.00
C1340  C     0.80972   0.80137   0.90674   0.00000  Uiso   1.00
C1341  C     0.85363   0.86740   0.59304   0.00000  Uiso   1.00
C1342  C     0.80910   0.80093   0.95310   0.00000  Uiso   1.00
C1343  C     0.85280   0.86883   0.54675   0.00000  Uiso   1.00
C1344  C     0.83149   0.83472   0.97670   0.00000  Uiso   1.00
C1345  C     0.83077   0.83472   0.52321   0.00000  Uiso   1.00
C1346  C     0.85525   0.86793   0.95354   0.00000  Uiso   1.00
C1347  C     0.80813   0.80066   0.54644   0.00000  Uiso   1.00
C1348  C     0.78622   0.76735   0.97580   0.00000  Uiso   1.00
C1349  C     0.78445   0.76778   0.52277   0.00000  Uiso   1.00
C1350  C     0.87442   0.90333   0.52399   0.00000  Uiso   1.00
C1351  C     0.78793   0.69807   0.94246   0.00000  Uiso   1.00
C1352  C     0.86576   0.97189   0.55767   0.00000  Uiso   1.00
C1353  C     0.75649   0.73376   0.54665   0.00000  Uiso   1.00
C1354  C     0.71710   0.75649   0.56447   0.00000  Uiso   1.00
C1355  C     0.90787   0.93386   0.95386   0.00000  Uiso   1.00
C1356  C     0.88555   0.97387   0.93198   0.00000  Uiso   1.00
C1357  C     0.87792   0.90157   0.97725   0.00000  Uiso   1.00
C1358  C     0.68800   0.79312   0.75945   0.00000  Uiso   1.00
C1359  C     0.97867   0.87352   0.74039   0.00000  Uiso   1.00
C1360  C     0.97871   0.79312   0.75949   0.00000  Uiso   1.00
C1361  C     0.68796   0.87352   0.74035   0.00000  Uiso   1.00
C1362  C     0.95752   0.83333   0.74998   0.00000  Uiso   1.00
H1363  H     0.87350   0.89034   0.88754   0.00000  Uiso   1.00
H1364  H     0.79132   0.95773   0.69554   0.00000  Uiso   1.00
H1365  H     0.79132   0.70879   0.69553   0.00000  Uiso   1.00
H1366  H     0.87529   0.95788   0.80452   0.00000  Uiso   1.00
H1367  H     0.81496   0.70718   0.92111   0.00000  Uiso   1.00
H1368  H     0.76903   0.67293   0.92375   0.00000  Uiso   1.00
H1369  H     0.79893   0.68141   0.97362   0.00000  Uiso   1.00
H1370  H     0.84287   0.96060   0.58314   0.00000  Uiso   1.00
H1371  H     0.84892   0.98391   0.52748   0.00000  Uiso   1.00
H1372  H     0.88289   0.66792   0.57182   0.00000  Uiso   1.00
H1373  H     0.72457   0.78391   0.58858   0.00000  Uiso   1.00
H1374  H     0.79401   0.77517   0.61257   0.00000  Uiso   1.00
H1375  H     0.69894   0.77110   0.53634   0.00000  Uiso   1.00
H1376  H     0.69752   0.73092   0.58170   0.00000  Uiso   1.00
H1377  H     0.74627   0.70602   0.52414   0.00000  Uiso   1.00
H1378  H     0.77364   0.71638   0.57390   0.00000  Uiso   1.00
H1379  H     0.85766   0.96282   0.91298   0.00000  Uiso   1.00
H1380  H     0.87593   0.99874   0.95776   0.00000  Uiso   1.00
H1381  H     0.90711   0.99124   0.90864   0.00000  Uiso   1.00
H1382  H     0.93135   0.94761   0.97755   0.00000  Uiso   1.00
H1383  H     0.92649   0.91513   0.92862   0.00000  Uiso   1.00
H1384  H     0.79178   0.77702   0.88757   0.00000  Uiso   1.00
H1385  H     0.87149   0.89200   0.61199   0.00000  Uiso   1.00
H1386  H     0.70426   0.76191   0.76717   0.00000  Uiso   1.00
H1387  H     0.96240   0.90474   0.73267   0.00000  Uiso   1.00
H1388  H     0.96247   0.76192   0.76726   0.00000  Uiso   1.00
H1389  H     0.70420   0.90472   0.73259   0.00000  Uiso   1.00
H1390  H     0.87532   0.70893   0.80449   0.00000  Uiso   1.00
N1391  N     0.83333   0.95240   0.75000   0.00000  Uiso   1.00
N1392  N     0.83333   0.71427   0.75000   0.00000  Uiso   1.00
O1393  O     0.77226   0.87154   0.74999   0.00000  Uiso   1.00
O1394  O     0.89468   0.93727   0.54760   0.00000  Uiso   1.00
O1395  O     0.89441   0.79513   0.75000   0.00000  Uiso   1.00
O1396  O     0.89441   0.87154   0.75000   0.00000  Uiso   1.00
O1397  O     0.77226   0.79513   0.74999   0.00000  Uiso   1.00
O1398  O     0.83333   0.87156   0.68392   0.00000  Uiso   1.00
O1399  O     0.83334   0.79511   0.81607   0.00000  Uiso   1.00
O1400  O     0.83334   0.87156   0.81607   0.00000  Uiso   1.00
O1401  O     0.83333   0.79511   0.68392   0.00000  Uiso   1.00
O1402  O     0.76283   0.73617   0.95184   0.00000  Uiso   1.00
Zn1403 Zn    0.83333   0.88437   0.75000   0.00000  Uiso   1.00
Zn1404 Zn    0.83333   0.78229   0.75000   0.00000  Uiso   1.00
loop_
_geom_bond_atom_site_label_1
_geom_bond_atom_site_label_2
_geom_bond_distance
_geom_bond_site_symmetry_2
_ccdc_geom_bond_type
C1     O71     1.281   .     A
C1     C2      1.419   .     S
C1     O67     1.281   .     A
C2     C35     1.397   .     A
C2     C32     1.397   .     A
C3     H64     1.082   .     S
C3     N66     1.366   .     A
C3     C474    1.415   1_545 S
C4     N65     1.366   .     A
C4     H38     1.082   .     S
C4     C239    1.415   .     S
C5     N66     1.366   .     A
C5     H39     1.082   .     S
C5     C472    1.415   1_545 S
C6     N65     1.366   .     A
C6     H40     1.082   .     S
C6     C237    1.415   .     S
C7     O72     1.284   .     A
C7     O75     1.284   .     A
C7     C13     1.430   .     S
C8     O74     1.283   .     A
C8     C11     1.428   .     S
C8     O73     1.284   .     A
C9     C20     1.393   .     A
C9     H37     1.081   .     S
C9     C11     1.387   .     A
C10    C21     1.394   .     A
C10    H48     1.080   .     S
C10    C13     1.388   .     A
C11    C14     1.385   .     A
C12    O69     1.281   .     A
C12    C36     1.419   .     S
C12    O70     1.281   .     A
C13    C15     1.385   .     A
C14    H58     1.084   .     S
C14    C16     1.387   .     A
C15    C17     1.386   .     A
C15    H59     1.084   .     S
C16    C22     1.409   .     A
C16    C18     1.417   .     A
C17    C19     1.416   .     A
C17    C24     1.409   .     A
C18    C20     1.423   .     A
C18    C721    1.392   .     S
C19    C21     1.423   .     A
C19    C720    1.392   1_554 S
C20    C31     1.420   .     A
C21    C23     1.420   .     A
C22    O76     1.386   .     S
C22    C725    1.406   .     S
C23    C27     1.526   .     S
C23    C724    1.406   1_554 S
C24    O68     1.386   .     S
C24    C733    1.404   1_554 S
C25    H43     1.112   .     S
C25    H41     1.112   .     S
C25    H42     1.109   .     S
C25    O76     1.412   .     S
C26    H44     1.111   .     S
C26    H45     1.111   .     S
C26    O68     1.413   .     S
C26    H280    1.109   .     S
C27    H51     1.108   .     S
C27    H52     1.110   .     S
C27    C28     1.528   .     S
C28    H47     1.109   .     S
C28    H50     1.110   .     S
C28    H49     1.111   .     S
C29    C30     1.529   .     S
C29    H57     1.110   .     S
C29    H56     1.111   .     S
C29    C31     1.525   .     S
C30    H54     1.108   .     S
C30    H53     1.109   .     S
C30    H55     1.110   .     S
C31    C726    1.404   .     S
C32    H60     1.084   .     S
C32    C190    1.370   1_455 S
C33    C36     1.397   .     A
C33    H61     1.084   .     S
C33    C113    1.370   .     S
C34    H62     1.084   .     S
C34    C36     1.397   .     A
C34    C110    1.370   .     S
C35    H63     1.084   .     S
C35    C189    1.370   1_455 S
H46    C494    1.109   1_545 S
N65    Zn77    2.007   .     S
N66    Zn78    2.007   .     S
O67    Zn77    1.999   .     S
O69    Zn78    1.999   .     S
O70    Zn77    1.999   .     S
O71    Zn78    1.999   .     S
O72    Zn77    2.012   .     S
O73    Zn78    2.012   .     S
O74    Zn77    2.013   .     S
O75    Zn78    2.013   .     S
C79    O149    1.281   .     A
C79    C80     1.419   .     S
C79    O145    1.281   .     A
C80    C113    1.397   .     A
C80    C110    1.397   .     A
C81    H142    1.082   .     S
C81    N144    1.366   .     A
C81    C552    1.415   1_545 S
C82    N143    1.366   .     A
C82    H116    1.082   .     S
C82    C317    1.415   .     S
C83    N144    1.366   .     A
C83    H117    1.082   .     S
C83    C550    1.415   1_545 S
C84    N143    1.366   .     A
C84    H118    1.082   .     S
C84    C315    1.415   .     S
C85    O150    1.284   .     A
C85    O153    1.284   .     A
C85    C91     1.430   .     S
C86    O152    1.283   .     A
C86    C89     1.428   .     S
C86    O151    1.284   .     A
C87    C98     1.393   .     A
C87    H115    1.081   .     S
C87    C89     1.387   .     A
C88    C99     1.394   .     A
C88    H126    1.080   .     S
C88    C91     1.388   .     A
C89    C92     1.385   .     A
C90    O147    1.281   .     A
C90    C114    1.419   .     S
C90    O148    1.281   .     A
C91    C93     1.385   .     A
C92    H136    1.084   .     S
C92    C94     1.387   .     A
C93    C95     1.386   .     A
C93    H137    1.084   .     S
C94    C100    1.409   .     A
C94    C96     1.417   .     A
C95    C97     1.416   .     A
C95    C102    1.409   .     A
C96    C98     1.423   .     A
C96    C799    1.392   .     S
C97    C99     1.423   .     A
C97    C798    1.392   1_554 S
C98    C109    1.420   .     A
C99    C101    1.420   .     A
C100   O154    1.386   .     S
C100   C803    1.406   .     S
C101   C105    1.526   .     S
C101   C802    1.406   1_554 S
C102   O146    1.386   .     S
C102   C811    1.404   1_554 S
C103   H121    1.112   .     S
C103   H119    1.112   .     S
C103   H120    1.109   .     S
C103   O154    1.412   .     S
C104   H122    1.111   .     S
C104   H123    1.111   .     S
C104   O146    1.413   .     S
C104   H358    1.109   .     S
C105   H129    1.108   .     S
C105   H130    1.110   .     S
C105   C106    1.528   .     S
C106   H125    1.109   .     S
C106   H128    1.110   .     S
C106   H127    1.111   .     S
C107   C108    1.529   .     S
C107   H135    1.110   .     S
C107   H134    1.111   .     S
C107   C109    1.525   .     S
C108   H132    1.108   .     S
C108   H131    1.109   .     S
C108   H133    1.110   .     S
C109   C804    1.404   .     S
C110   H138    1.084   .     S
C111   C114    1.397   .     A
C111   H139    1.084   .     S
C111   C191    1.370   .     S
C112   H140    1.084   .     S
C112   C114    1.397   .     A
C112   C188    1.370   .     S
C113   H141    1.084   .     S
H124   C572    1.109   1_545 S
N143   Zn155   2.007   .     S
N144   Zn156   2.007   .     S
O145   Zn155   1.999   .     S
O147   Zn156   1.999   .     S
O148   Zn155   1.999   .     S
O149   Zn156   1.999   .     S
O150   Zn155   2.012   .     S
O151   Zn156   2.012   .     S
O152   Zn155   2.013   .     S
O153   Zn156   2.013   .     S
C157   O227    1.281   .     A
C157   C158    1.419   .     S
C157   O223    1.281   .     A
C158   C191    1.397   .     A
C158   C188    1.397   .     A
C159   H220    1.082   .     S
C159   N222    1.366   .     A
C159   C630    1.415   1_545 S
C160   N221    1.366   .     A
C160   H194    1.082   .     S
C160   C395    1.415   .     S
C161   N222    1.366   .     A
C161   H195    1.082   .     S
C161   C628    1.415   1_545 S
C162   N221    1.366   .     A
C162   H196    1.082   .     S
C162   C393    1.415   .     S
C163   O228    1.284   .     A
C163   O231    1.284   .     A
C163   C169    1.430   .     S
C164   O230    1.283   .     A
C164   C167    1.428   .     S
C164   O229    1.284   .     A
C165   C176    1.393   .     A
C165   H193    1.081   .     S
C165   C167    1.387   .     A
C166   C177    1.394   .     A
C166   H204    1.080   .     S
C166   C169    1.388   .     A
C167   C170    1.385   .     A
C168   O225    1.281   .     A
C168   C192    1.419   .     S
C168   O226    1.281   .     A
C169   C171    1.385   .     A
C170   H214    1.084   .     S
C170   C172    1.387   .     A
C171   C173    1.386   .     A
C171   H215    1.084   .     S
C172   C178    1.409   .     A
C172   C174    1.417   .     A
C173   C175    1.416   .     A
C173   C180    1.409   .     A
C174   C176    1.423   .     A
C174   C877    1.392   .     S
C175   C177    1.423   .     A
C175   C876    1.392   1_554 S
C176   C187    1.420   .     A
C177   C179    1.420   .     A
C178   O232    1.386   .     S
C178   C881    1.406   .     S
C179   C183    1.526   .     S
C179   C880    1.406   1_554 S
C180   O224    1.386   .     S
C180   C889    1.404   1_554 S
C181   H199    1.112   .     S
C181   H197    1.112   .     S
C181   H198    1.109   .     S
C181   O232    1.412   .     S
C182   H200    1.111   .     S
C182   H201    1.111   .     S
C182   O224    1.413   .     S
C182   H436    1.109   .     S
C183   H207    1.108   .     S
C183   H208    1.110   .     S
C183   C184    1.528   .     S
C184   H203    1.109   .     S
C184   H206    1.110   .     S
C184   H205    1.111   .     S
C185   C186    1.529   .     S
C185   H213    1.110   .     S
C185   H212    1.111   .     S
C185   C187    1.525   .     S
C186   H210    1.108   .     S
C186   H209    1.109   .     S
C186   H211    1.110   .     S
C187   C882    1.404   .     S
C188   H216    1.084   .     S
C189   C192    1.397   .     A
C189   H217    1.084   .     S
C189   C35     1.370   1_655 S
C190   H218    1.084   .     S
C190   C192    1.397   .     A
C190   C32     1.370   1_655 S
C191   H219    1.084   .     S
H202   C650    1.109   1_545 S
N221   Zn233   2.007   .     S
N222   Zn234   2.007   .     S
O223   Zn233   1.999   .     S
O225   Zn234   1.999   .     S
O226   Zn233   1.999   .     S
O227   Zn234   1.999   .     S
O228   Zn233   2.012   .     S
O229   Zn234   2.012   .     S
O230   Zn233   2.013   .     S
O231   Zn234   2.013   .     S
C235   O305    1.281   .     A
C235   C236    1.419   .     S
C235   O301    1.281   .     A
C236   C269    1.397   .     A
C236   C266    1.397   .     A
C237   H298    1.082   .     S
C237   N300    1.366   .     A
C238   N299    1.366   .     A
C238   H272    1.082   .     S
C238   C473    1.415   .     S
C239   N300    1.366   .     A
C239   H273    1.082   .     S
C240   N299    1.366   .     A
C240   H274    1.082   .     S
C240   C471    1.415   .     S
C241   O306    1.284   .     A
C241   O309    1.284   .     A
C241   C247    1.430   .     S
C242   O308    1.283   .     A
C242   C245    1.428   .     S
C242   O307    1.284   .     A
C243   C254    1.393   .     A
C243   H271    1.081   .     S
C243   C245    1.387   .     A
C244   C255    1.394   .     A
C244   H282    1.080   .     S
C244   C247    1.388   .     A
C245   C248    1.385   .     A
C246   O303    1.281   .     A
C246   C270    1.419   .     S
C246   O304    1.281   .     A
C247   C249    1.385   .     A
C248   H292    1.084   .     S
C248   C250    1.387   .     A
C249   C251    1.386   .     A
C249   H293    1.084   .     S
C250   C256    1.409   .     A
C250   C252    1.417   .     A
C251   C253    1.416   .     A
C251   C258    1.409   .     A
C252   C254    1.423   .     A
C252   C955    1.392   .     S
C253   C255    1.423   .     A
C253   C954    1.392   1_554 S
C254   C265    1.420   .     A
C255   C257    1.420   .     A
C256   O310    1.386   .     S
C256   C959    1.406   .     S
C257   C261    1.526   .     S
C257   C958    1.406   1_554 S
C258   O302    1.386   .     S
C258   C967    1.404   1_554 S
C259   H277    1.112   .     S
C259   H275    1.112   .     S
C259   H276    1.109   .     S
C259   O310    1.412   .     S
C260   H278    1.111   .     S
C260   H279    1.111   .     S
C260   O302    1.413   .     S
C260   H514    1.109   .     S
C261   H285    1.108   .     S
C261   H286    1.110   .     S
C261   C262    1.528   .     S
C262   H281    1.109   .     S
C262   H284    1.110   .     S
C262   H283    1.111   .     S
C263   C264    1.529   .     S
C263   H291    1.110   .     S
C263   H290    1.111   .     S
C263   C265    1.525   .     S
C264   H288    1.108   .     S
C264   H287    1.109   .     S
C264   H289    1.110   .     S
C265   C960    1.404   .     S
C266   H294    1.084   .     S
C266   C424    1.370   1_455 S
C267   C270    1.397   .     A
C267   H295    1.084   .     S
C267   C347    1.370   .     S
C268   H296    1.084   .     S
C268   C270    1.397   .     A
C268   C344    1.370   .     S
C269   H297    1.084   .     S
C269   C423    1.370   1_455 S
N299   Zn311   2.007   .     S
N300   Zn312   2.007   .     S
O301   Zn311   1.999   .     S
O303   Zn312   1.999   .     S
O304   Zn311   1.999   .     S
O305   Zn312   1.999   .     S
O306   Zn311   2.012   .     S
O307   Zn312   2.012   .     S
O308   Zn311   2.013   .     S
O309   Zn312   2.013   .     S
C313   O383    1.281   .     A
C313   C314    1.419   .     S
C313   O379    1.281   .     A
C314   C347    1.397   .     A
C314   C344    1.397   .     A
C315   H376    1.082   .     S
C315   N378    1.366   .     A
C316   N377    1.366   .     A
C316   H350    1.082   .     S
C316   C551    1.415   .     S
C317   N378    1.366   .     A
C317   H351    1.082   .     S
C318   N377    1.366   .     A
C318   H352    1.082   .     S
C318   C549    1.415   .     S
C319   O384    1.284   .     A
C319   O387    1.284   .     A
C319   C325    1.430   .     S
C320   O386    1.283   .     A
C320   C323    1.428   .     S
C320   O385    1.284   .     A
C321   C332    1.393   .     A
C321   H349    1.081   .     S
C321   C323    1.387   .     A
C322   C333    1.394   .     A
C322   H360    1.080   .     S
C322   C325    1.388   .     A
C323   C326    1.385   .     A
C324   O381    1.281   .     A
C324   C348    1.419   .     S
C324   O382    1.281   .     A
C325   C327    1.385   .     A
C326   H370    1.084   .     S
C326   C328    1.387   .     A
C327   C329    1.386   .     A
C327   H371    1.084   .     S
C328   C334    1.409   .     A
C328   C330    1.417   .     A
C329   C331    1.416   .     A
C329   C336    1.409   .     A
C330   C332    1.423   .     A
C330   C1033   1.392   .     S
C331   C333    1.423   .     A
C331   C1032   1.392   1_554 S
C332   C343    1.420   .     A
C333   C335    1.420   .     A
C334   O388    1.386   .     S
C334   C1037   1.406   .     S
C335   C339    1.526   .     S
C335   C1036   1.406   1_554 S
C336   O380    1.386   .     S
C336   C1045   1.404   1_554 S
C337   H355    1.112   .     S
C337   H353    1.112   .     S
C337   H354    1.109   .     S
C337   O388    1.412   .     S
C338   H356    1.111   .     S
C338   H357    1.111   .     S
C338   O380    1.413   .     S
C338   H592    1.109   .     S
C339   H363    1.108   .     S
C339   H364    1.110   .     S
C339   C340    1.528   .     S
C340   H359    1.109   .     S
C340   H362    1.110   .     S
C340   H361    1.111   .     S
C341   C342    1.529   .     S
C341   H369    1.110   .     S
C341   H368    1.111   .     S
C341   C343    1.525   .     S
C342   H366    1.108   .     S
C342   H365    1.109   .     S
C342   H367    1.110   .     S
C343   C1038   1.404   .     S
C344   H372    1.084   .     S
C345   C348    1.397   .     A
C345   H373    1.084   .     S
C345   C425    1.370   .     S
C346   H374    1.084   .     S
C346   C348    1.397   .     A
C346   C422    1.370   .     S
C347   H375    1.084   .     S
N377   Zn389   2.007   .     S
N378   Zn390   2.007   .     S
O379   Zn389   1.999   .     S
O381   Zn390   1.999   .     S
O382   Zn389   1.999   .     S
O383   Zn390   1.999   .     S
O384   Zn389   2.012   .     S
O385   Zn390   2.012   .     S
O386   Zn389   2.013   .     S
O387   Zn390   2.013   .     S
C391   O461    1.281   .     A
C391   C392    1.419   .     S
C391   O457    1.281   .     A
C392   C425    1.397   .     A
C392   C422    1.397   .     A
C393   H454    1.082   .     S
C393   N456    1.366   .     A
C394   N455    1.366   .     A
C394   H428    1.082   .     S
C394   C629    1.415   .     S
C395   N456    1.366   .     A
C395   H429    1.082   .     S
C396   N455    1.366   .     A
C396   H430    1.082   .     S
C396   C627    1.415   .     S
C397   O462    1.284   .     A
C397   O465    1.284   .     A
C397   C403    1.430   .     S
C398   O464    1.283   .     A
C398   C401    1.428   .     S
C398   O463    1.284   .     A
C399   C410    1.393   .     A
C399   H427    1.081   .     S
C399   C401    1.387   .     A
C400   C411    1.394   .     A
C400   H438    1.080   .     S
C400   C403    1.388   .     A
C401   C404    1.385   .     A
C402   O459    1.281   .     A
C402   C426    1.419   .     S
C402   O460    1.281   .     A
C403   C405    1.385   .     A
C404   H448    1.084   .     S
C404   C406    1.387   .     A
C405   C407    1.386   .     A
C405   H449    1.084   .     S
C406   C412    1.409   .     A
C406   C408    1.417   .     A
C407   C409    1.416   .     A
C407   C414    1.409   .     A
C408   C410    1.423   .     A
C408   C1111   1.392   .     S
C409   C411    1.423   .     A
C409   C1110   1.392   1_554 S
C410   C421    1.420   .     A
C411   C413    1.420   .     A
C412   O466    1.386   .     S
C412   C1115   1.406   .     S
C413   C417    1.526   .     S
C413   C1114   1.406   1_554 S
C414   O458    1.386   .     S
C414   C1123   1.404   1_554 S
C415   H433    1.112   .     S
C415   H431    1.112   .     S
C415   H432    1.109   .     S
C415   O466    1.412   .     S
C416   H434    1.111   .     S
C416   H435    1.111   .     S
C416   O458    1.413   .     S
C416   H670    1.109   .     S
C417   H441    1.108   .     S
C417   H442    1.110   .     S
C417   C418    1.528   .     S
C418   H437    1.109   .     S
C418   H440    1.110   .     S
C418   H439    1.111   .     S
C419   C420    1.529   .     S
C419   H447    1.110   .     S
C419   H446    1.111   .     S
C419   C421    1.525   .     S
C420   H444    1.108   .     S
C420   H443    1.109   .     S
C420   H445    1.110   .     S
C421   C1116   1.404   .     S
C422   H450    1.084   .     S
C423   C426    1.397   .     A
C423   H451    1.084   .     S
C423   C269    1.370   1_655 S
C424   H452    1.084   .     S
C424   C426    1.397   .     A
C424   C266    1.370   1_655 S
C425   H453    1.084   .     S
N455   Zn467   2.007   .     S
N456   Zn468   2.007   .     S
O457   Zn467   1.999   .     S
O459   Zn468   1.999   .     S
O460   Zn467   1.999   .     S
O461   Zn468   1.999   .     S
O462   Zn467   2.012   .     S
O463   Zn468   2.012   .     S
O464   Zn467   2.013   .     S
O465   Zn468   2.013   .     S
C469   O539    1.281   .     A
C469   C470    1.419   .     S
C469   O535    1.281   .     A
C470   C503    1.397   .     A
C470   C500    1.397   .     A
C471   H532    1.082   .     S
C471   N534    1.366   .     A
C472   N533    1.366   .     A
C472   H506    1.082   .     S
C472   C5      1.415   1_565 S
C473   N534    1.366   .     A
C473   H507    1.082   .     S
C474   N533    1.366   .     A
C474   H508    1.082   .     S
C474   C3      1.415   1_565 S
C475   O540    1.284   .     A
C475   O543    1.284   .     A
C475   C481    1.430   .     S
C476   O542    1.283   .     A
C476   C479    1.428   .     S
C476   O541    1.284   .     A
C477   C488    1.393   .     A
C477   H505    1.081   .     S
C477   C479    1.387   .     A
C478   C489    1.394   .     A
C478   H516    1.080   .     S
C478   C481    1.388   .     A
C479   C482    1.385   .     A
C480   O537    1.281   .     A
C480   C504    1.419   .     S
C480   O538    1.281   .     A
C481   C483    1.385   .     A
C482   H526    1.084   .     S
C482   C484    1.387   .     A
C483   C485    1.386   .     A
C483   H527    1.084   .     S
C484   C490    1.409   .     A
C484   C486    1.417   .     A
C485   C487    1.416   .     A
C485   C492    1.409   .     A
C486   C488    1.423   .     A
C486   C1189   1.392   .     S
C487   C489    1.423   .     A
C487   C1188   1.392   1_554 S
C488   C499    1.420   .     A
C489   C491    1.420   .     A
C490   O544    1.386   .     S
C490   C1193   1.406   .     S
C491   C495    1.526   .     S
C491   C1192   1.406   1_554 S
C492   O536    1.386   .     S
C492   C1201   1.404   1_554 S
C493   H511    1.112   .     S
C493   H509    1.112   .     S
C493   H510    1.109   .     S
C493   O544    1.412   .     S
C494   H512    1.111   .     S
C494   H513    1.111   .     S
C494   O536    1.413   .     S
C494   H46     1.109   1_565 S
C495   H519    1.108   .     S
C495   H520    1.110   .     S
C495   C496    1.528   .     S
C496   H515    1.109   .     S
C496   H518    1.110   .     S
C496   H517    1.111   .     S
C497   C498    1.529   .     S
C497   H525    1.110   .     S
C497   H524    1.111   .     S
C497   C499    1.525   .     S
C498   H522    1.108   .     S
C498   H521    1.109   .     S
C498   H523    1.110   .     S
C499   C1194   1.404   .     S
C500   H528    1.084   .     S
C500   C658    1.370   1_455 S
C501   C504    1.397   .     A
C501   H529    1.084   .     S
C501   C581    1.370   .     S
C502   H530    1.084   .     S
C502   C504    1.397   .     A
C502   C578    1.370   .     S
C503   H531    1.084   .     S
C503   C657    1.370   1_455 S
N533   Zn545   2.007   .     S
N534   Zn546   2.007   .     S
O535   Zn545   1.999   .     S
O537   Zn546   1.999   .     S
O538   Zn545   1.999   .     S
O539   Zn546   1.999   .     S
O540   Zn545   2.012   .     S
O541   Zn546   2.012   .     S
O542   Zn545   2.013   .     S
O543   Zn546   2.013   .     S
C547   O617    1.281   .     A
C547   C548    1.419   .     S
C547   O613    1.281   .     A
C548   C581    1.397   .     A
C548   C578    1.397   .     A
C549   H610    1.082   .     S
C549   N612    1.366   .     A
C550   N611    1.366   .     A
C550   H584    1.082   .     S
C550   C83     1.415   1_565 S
C551   N612    1.366   .     A
C551   H585    1.082   .     S
C552   N611    1.366   .     A
C552   H586    1.082   .     S
C552   C81     1.415   1_565 S
C553   O618    1.284   .     A
C553   O621    1.284   .     A
C553   C559    1.430   .     S
C554   O620    1.283   .     A
C554   C557    1.428   .     S
C554   O619    1.284   .     A
C555   C566    1.393   .     A
C555   H583    1.081   .     S
C555   C557    1.387   .     A
C556   C567    1.394   .     A
C556   H594    1.080   .     S
C556   C559    1.388   .     A
C557   C560    1.385   .     A
C558   O615    1.281   .     A
C558   C582    1.419   .     S
C558   O616    1.281   .     A
C559   C561    1.385   .     A
C560   H604    1.084   .     S
C560   C562    1.387   .     A
C561   C563    1.386   .     A
C561   H605    1.084   .     S
C562   C568    1.409   .     A
C562   C564    1.417   .     A
C563   C565    1.416   .     A
C563   C570    1.409   .     A
C564   C566    1.423   .     A
C564   C1267   1.392   .     S
C565   C567    1.423   .     A
C565   C1266   1.392   1_554 S
C566   C577    1.420   .     A
C567   C569    1.420   .     A
C568   O622    1.386   .     S
C568   C1271   1.406   .     S
C569   C573    1.526   .     S
C569   C1270   1.406   1_554 S
C570   O614    1.386   .     S
C570   C1279   1.404   1_554 S
C571   H589    1.112   .     S
C571   H587    1.112   .     S
C571   H588    1.109   .     S
C571   O622    1.412   .     S
C572   H590    1.111   .     S
C572   H591    1.111   .     S
C572   O614    1.413   .     S
C572   H124    1.109   1_565 S
C573   H597    1.108   .     S
C573   H598    1.110   .     S
C573   C574    1.528   .     S
C574   H593    1.109   .     S
C574   H596    1.110   .     S
C574   H595    1.111   .     S
C575   C576    1.529   .     S
C575   H603    1.110   .     S
C575   H602    1.111   .     S
C575   C577    1.525   .     S
C576   H600    1.108   .     S
C576   H599    1.109   .     S
C576   H601    1.110   .     S
C577   C1272   1.404   .     S
C578   H606    1.084   .     S
C579   C582    1.397   .     A
C579   H607    1.084   .     S
C579   C659    1.370   .     S
C580   H608    1.084   .     S
C580   C582    1.397   .     A
C580   C656    1.370   .     S
C581   H609    1.084   .     S
N611   Zn623   2.007   .     S
N612   Zn624   2.007   .     S
O613   Zn623   1.999   .     S
O615   Zn624   1.999   .     S
O616   Zn623   1.999   .     S
O617   Zn624   1.999   .     S
O618   Zn623   2.012   .     S
O619   Zn624   2.012   .     S
O620   Zn623   2.013   .     S
O621   Zn624   2.013   .     S
C625   O695    1.281   .     A
C625   C626    1.419   .     S
C625   O691    1.281   .     A
C626   C659    1.397   .     A
C626   C656    1.397   .     A
C627   H688    1.082   .     S
C627   N690    1.366   .     A
C628   N689    1.366   .     A
C628   H662    1.082   .     S
C628   C161    1.415   1_565 S
C629   N690    1.366   .     A
C629   H663    1.082   .     S
C630   N689    1.366   .     A
C630   H664    1.082   .     S
C630   C159    1.415   1_565 S
C631   O696    1.284   .     A
C631   O699    1.284   .     A
C631   C637    1.430   .     S
C632   O698    1.283   .     A
C632   C635    1.428   .     S
C632   O697    1.284   .     A
C633   C644    1.393   .     A
C633   H661    1.081   .     S
C633   C635    1.387   .     A
C634   C645    1.394   .     A
C634   H672    1.080   .     S
C634   C637    1.388   .     A
C635   C638    1.385   .     A
C636   O693    1.281   .     A
C636   C660    1.419   .     S
C636   O694    1.281   .     A
C637   C639    1.385   .     A
C638   H682    1.084   .     S
C638   C640    1.387   .     A
C639   C641    1.386   .     A
C639   H683    1.084   .     S
C640   C646    1.409   .     A
C640   C642    1.417   .     A
C641   C643    1.416   .     A
C641   C648    1.409   .     A
C642   C644    1.423   .     A
C642   C1345   1.392   .     S
C643   C645    1.423   .     A
C643   C1344   1.392   1_554 S
C644   C655    1.420   .     A
C645   C647    1.420   .     A
C646   O700    1.386   .     S
C646   C1349   1.406   .     S
C647   C651    1.526   .     S
C647   C1348   1.406   1_554 S
C648   O692    1.386   .     S
C648   C1357   1.404   1_554 S
C649   H667    1.112   .     S
C649   H665    1.112   .     S
C649   H666    1.109   .     S
C649   O700    1.412   .     S
C650   H668    1.111   .     S
C650   H669    1.111   .     S
C650   O692    1.413   .     S
C650   H202    1.109   1_565 S
C651   H675    1.108   .     S
C651   H676    1.110   .     S
C651   C652    1.528   .     S
C652   H671    1.109   .     S
C652   H674    1.110   .     S
C652   H673    1.111   .     S
C653   C654    1.529   .     S
C653   H681    1.110   .     S
C653   H680    1.111   .     S
C653   C655    1.525   .     S
C654   H678    1.108   .     S
C654   H677    1.109   .     S
C654   H679    1.110   .     S
C655   C1350   1.404   .     S
C656   H684    1.084   .     S
C657   C660    1.397   .     A
C657   H685    1.084   .     S
C657   C503    1.370   1_655 S
C658   H686    1.084   .     S
C658   C660    1.397   .     A
C658   C500    1.370   1_655 S
C659   H687    1.084   .     S
N689   Zn701   2.007   .     S
N690   Zn702   2.007   .     S
O691   Zn701   1.999   .     S
O693   Zn702   1.999   .     S
O694   Zn701   1.999   .     S
O695   Zn702   1.999   .     S
O696   Zn701   2.012   .     S
O697   Zn702   2.012   .     S
O698   Zn701   2.013   .     S
O699   Zn702   2.013   .     S
C703   O773    1.281   .     A
C703   C704    1.419   .     S
C703   O769    1.281   .     A
C704   C737    1.397   .     A
C704   C734    1.397   .     A
C705   H766    1.082   .     S
C705   N768    1.366   .     A
C705   C1176   1.415   1_545 S
C706   N767    1.366   .     A
C706   H740    1.082   .     S
C706   C941    1.415   .     S
C707   N768    1.366   .     A
C707   H741    1.082   .     S
C707   C1174   1.415   1_545 S
C708   N767    1.366   .     A
C708   H742    1.082   .     S
C708   C939    1.415   .     S
C709   O774    1.284   .     A
C709   O777    1.284   .     A
C709   C715    1.430   .     S
C710   O776    1.283   .     A
C710   C713    1.428   .     S
C710   O775    1.284   .     A
C711   C722    1.393   .     A
C711   H739    1.081   .     S
C711   C713    1.387   .     A
C712   C723    1.394   .     A
C712   H750    1.080   .     S
C712   C715    1.388   .     A
C713   C716    1.385   .     A
C714   O771    1.281   .     A
C714   C738    1.419   .     S
C714   O772    1.281   .     A
C715   C717    1.385   .     A
C716   H760    1.084   .     S
C716   C718    1.387   .     A
C717   C719    1.386   .     A
C717   H761    1.084   .     S
C718   C724    1.409   .     A
C718   C720    1.417   .     A
C719   C721    1.416   .     A
C719   C726    1.409   .     A
C720   C722    1.423   .     A
C720   C19     1.392   1_556 S
C721   C723    1.423   .     A
C722   C733    1.420   .     A
C723   C725    1.420   .     A
C724   O778    1.386   .     S
C724   C23     1.406   1_556 S
C725   C729    1.526   .     S
C726   O770    1.386   .     S
C727   H745    1.112   .     S
C727   H743    1.112   .     S
C727   H744    1.109   .     S
C727   O778    1.412   .     S
C728   H746    1.111   .     S
C728   H747    1.111   .     S
C728   O770    1.413   .     S
C728   H982    1.109   .     S
C729   H753    1.108   .     S
C729   H754    1.110   .     S
C729   C730    1.528   .     S
C730   H749    1.109   .     S
C730   H752    1.110   .     S
C730   H751    1.111   .     S
C731   C732    1.529   .     S
C731   H759    1.110   .     S
C731   H758    1.111   .     S
C731   C733    1.525   .     S
C732   H756    1.108   .     S
C732   H755    1.109   .     S
C732   H757    1.110   .     S
C733   C24     1.404   1_556 S
C734   H762    1.084   .     S
C734   C892    1.370   1_455 S
C735   C738    1.397   .     A
C735   H763    1.084   .     S
C735   C815    1.370   .     S
C736   H764    1.084   .     S
C736   C738    1.397   .     A
C736   C812    1.370   .     S
C737   H765    1.084   .     S
C737   C891    1.370   1_455 S
H748   C1196   1.109   1_545 S
N767   Zn779   2.007   .     S
N768   Zn780   2.007   .     S
O769   Zn779   1.999   .     S
O771   Zn780   1.999   .     S
O772   Zn779   1.999   .     S
O773   Zn780   1.999   .     S
O774   Zn779   2.012   .     S
O775   Zn780   2.012   .     S
O776   Zn779   2.013   .     S
O777   Zn780   2.013   .     S
C781   O851    1.281   .     A
C781   C782    1.419   .     S
C781   O847    1.281   .     A
C782   C815    1.397   .     A
C782   C812    1.397   .     A
C783   H844    1.082   .     S
C783   N846    1.366   .     A
C783   C1254   1.415   1_545 S
C784   N845    1.366   .     A
C784   H818    1.082   .     S
C784   C1019   1.415   .     S
C785   N846    1.366   .     A
C785   H819    1.082   .     S
C785   C1252   1.415   1_545 S
C786   N845    1.366   .     A
C786   H820    1.082   .     S
C786   C1017   1.415   .     S
C787   O852    1.284   .     A
C787   O855    1.284   .     A
C787   C793    1.430   .     S
C788   O854    1.283   .     A
C788   C791    1.428   .     S
C788   O853    1.284   .     A
C789   C800    1.393   .     A
C789   H817    1.081   .     S
C789   C791    1.387   .     A
C790   C801    1.394   .     A
C790   H828    1.080   .     S
C790   C793    1.388   .     A
C791   C794    1.385   .     A
C792   O849    1.281   .     A
C792   C816    1.419   .     S
C792   O850    1.281   .     A
C793   C795    1.385   .     A
C794   H838    1.084   .     S
C794   C796    1.387   .     A
C795   C797    1.386   .     A
C795   H839    1.084   .     S
C796   C802    1.409   .     A
C796   C798    1.417   .     A
C797   C799    1.416   .     A
C797   C804    1.409   .     A
C798   C800    1.423   .     A
C798   C97     1.392   1_556 S
C799   C801    1.423   .     A
C800   C811    1.420   .     A
C801   C803    1.420   .     A
C802   O856    1.386   .     S
C802   C101    1.406   1_556 S
C803   C807    1.526   .     S
C804   O848    1.386   .     S
C805   H823    1.112   .     S
C805   H821    1.112   .     S
C805   H822    1.109   .     S
C805   O856    1.412   .     S
C806   H824    1.111   .     S
C806   H825    1.111   .     S
C806   O848    1.413   .     S
C806   H1060   1.109   .     S
C807   H831    1.108   .     S
C807   H832    1.110   .     S
C807   C808    1.528   .     S
C808   H827    1.109   .     S
C808   H830    1.110   .     S
C808   H829    1.111   .     S
C809   C810    1.529   .     S
C809   H837    1.110   .     S
C809   H836    1.111   .     S
C809   C811    1.525   .     S
C810   H834    1.108   .     S
C810   H833    1.109   .     S
C810   H835    1.110   .     S
C811   C102    1.404   1_556 S
C812   H840    1.084   .     S
C813   C816    1.397   .     A
C813   H841    1.084   .     S
C813   C893    1.370   .     S
C814   H842    1.084   .     S
C814   C816    1.397   .     A
C814   C890    1.370   .     S
C815   H843    1.084   .     S
H826   C1274   1.109   1_545 S
N845   Zn857   2.007   .     S
N846   Zn858   2.007   .     S
O847   Zn857   1.999   .     S
O849   Zn858   1.999   .     S
O850   Zn857   1.999   .     S
O851   Zn858   1.999   .     S
O852   Zn857   2.012   .     S
O853   Zn858   2.012   .     S
O854   Zn857   2.013   .     S
O855   Zn858   2.013   .     S
C859   O929    1.281   .     A
C859   C860    1.419   .     S
C859   O925    1.281   .     A
C860   C893    1.397   .     A
C860   C890    1.397   .     A
C861   H922    1.082   .     S
C861   N924    1.366   .     A
C861   C1332   1.415   1_545 S
C862   N923    1.366   .     A
C862   H896    1.082   .     S
C862   C1097   1.415   .     S
C863   N924    1.366   .     A
C863   H897    1.082   .     S
C863   C1330   1.415   1_545 S
C864   N923    1.366   .     A
C864   H898    1.082   .     S
C864   C1095   1.415   .     S
C865   O930    1.284   .     A
C865   O933    1.284   .     A
C865   C871    1.430   .     S
C866   O932    1.283   .     A
C866   C869    1.428   .     S
C866   O931    1.284   .     A
C867   C878    1.393   .     A
C867   H895    1.081   .     S
C867   C869    1.387   .     A
C868   C879    1.394   .     A
C868   H906    1.080   .     S
C868   C871    1.388   .     A
C869   C872    1.385   .     A
C870   O927    1.281   .     A
C870   C894    1.419   .     S
C870   O928    1.281   .     A
C871   C873    1.385   .     A
C872   H916    1.084   .     S
C872   C874    1.387   .     A
C873   C875    1.386   .     A
C873   H917    1.084   .     S
C874   C880    1.409   .     A
C874   C876    1.417   .     A
C875   C877    1.416   .     A
C875   C882    1.409   .     A
C876   C878    1.423   .     A
C876   C175    1.392   1_556 S
C877   C879    1.423   .     A
C878   C889    1.420   .     A
C879   C881    1.420   .     A
C880   O934    1.386   .     S
C880   C179    1.406   1_556 S
C881   C885    1.526   .     S
C882   O926    1.386   .     S
C883   H901    1.112   .     S
C883   H899    1.112   .     S
C883   H900    1.109   .     S
C883   O934    1.412   .     S
C884   H902    1.111   .     S
C884   H903    1.111   .     S
C884   O926    1.413   .     S
C884   H1138   1.109   .     S
C885   H909    1.108   .     S
C885   H910    1.110   .     S
C885   C886    1.528   .     S
C886   H905    1.109   .     S
C886   H908    1.110   .     S
C886   H907    1.111   .     S
C887   C888    1.529   .     S
C887   H915    1.110   .     S
C887   H914    1.111   .     S
C887   C889    1.525   .     S
C888   H912    1.108   .     S
C888   H911    1.109   .     S
C888   H913    1.110   .     S
C889   C180    1.404   1_556 S
C890   H918    1.084   .     S
C891   C894    1.397   .     A
C891   H919    1.084   .     S
C891   C737    1.370   1_655 S
C892   H920    1.084   .     S
C892   C894    1.397   .     A
C892   C734    1.370   1_655 S
C893   H921    1.084   .     S
H904   C1352   1.109   1_545 S
N923   Zn935   2.007   .     S
N924   Zn936   2.007   .     S
O925   Zn935   1.999   .     S
O927   Zn936   1.999   .     S
O928   Zn935   1.999   .     S
O929   Zn936   1.999   .     S
O930   Zn935   2.012   .     S
O931   Zn936   2.012   .     S
O932   Zn935   2.013   .     S
O933   Zn936   2.013   .     S
C937   O1007   1.281   .     A
C937   C938    1.419   .     S
C937   O1003   1.281   .     A
C938   C971    1.397   .     A
C938   C968    1.397   .     A
C939   H1000   1.082   .     S
C939   N1002   1.366   .     A
C940   N1001   1.366   .     A
C940   H974    1.082   .     S
C940   C1175   1.415   .     S
C941   N1002   1.366   .     A
C941   H975    1.082   .     S
C942   N1001   1.366   .     A
C942   H976    1.082   .     S
C942   C1173   1.415   .     S
C943   O1008   1.284   .     A
C943   O1011   1.284   .     A
C943   C949    1.430   .     S
C944   O1010   1.283   .     A
C944   C947    1.428   .     S
C944   O1009   1.284   .     A
C945   C956    1.393   .     A
C945   H973    1.081   .     S
C945   C947    1.387   .     A
C946   C957    1.394   .     A
C946   H984    1.080   .     S
C946   C949    1.388   .     A
C947   C950    1.385   .     A
C948   O1005   1.281   .     A
C948   C972    1.419   .     S
C948   O1006   1.281   .     A
C949   C951    1.385   .     A
C950   H994    1.084   .     S
C950   C952    1.387   .     A
C951   C953    1.386   .     A
C951   H995    1.084   .     S
C952   C958    1.409   .     A
C952   C954    1.417   .     A
C953   C955    1.416   .     A
C953   C960    1.409   .     A
C954   C956    1.423   .     A
C954   C253    1.392   1_556 S
C955   C957    1.423   .     A
C956   C967    1.420   .     A
C957   C959    1.420   .     A
C958   O1012   1.386   .     S
C958   C257    1.406   1_556 S
C959   C963    1.526   .     S
C960   O1004   1.386   .     S
C961   H979    1.112   .     S
C961   H977    1.112   .     S
C961   H978    1.109   .     S
C961   O1012   1.412   .     S
C962   H980    1.111   .     S
C962   H981    1.111   .     S
C962   O1004   1.413   .     S
C962   H1216   1.109   .     S
C963   H987    1.108   .     S
C963   H988    1.110   .     S
C963   C964    1.528   .     S
C964   H983    1.109   .     S
C964   H986    1.110   .     S
C964   H985    1.111   .     S
C965   C966    1.529   .     S
C965   H993    1.110   .     S
C965   H992    1.111   .     S
C965   C967    1.525   .     S
C966   H990    1.108   .     S
C966   H989    1.109   .     S
C966   H991    1.110   .     S
C967   C258    1.404   1_556 S
C968   H996    1.084   .     S
C968   C1126   1.370   1_455 S
C969   C972    1.397   .     A
C969   H997    1.084   .     S
C969   C1049   1.370   .     S
C970   H998    1.084   .     S
C970   C972    1.397   .     A
C970   C1046   1.370   .     S
C971   H999    1.084   .     S
C971   C1125   1.370   1_455 S
N1001  Zn1013  2.007   .     S
N1002  Zn1014  2.007   .     S
O1003  Zn1013  1.999   .     S
O1005  Zn1014  1.999   .     S
O1006  Zn1013  1.999   .     S
O1007  Zn1014  1.999   .     S
O1008  Zn1013  2.012   .     S
O1009  Zn1014  2.012   .     S
O1010  Zn1013  2.013   .     S
O1011  Zn1014  2.013   .     S
C1015  O1085   1.281   .     A
C1015  C1016   1.419   .     S
C1015  O1081   1.281   .     A
C1016  C1049   1.397   .     A
C1016  C1046   1.397   .     A
C1017  H1078   1.082   .     S
C1017  N1080   1.366   .     A
C1018  N1079   1.366   .     A
C1018  H1052   1.082   .     S
C1018  C1253   1.415   .     S
C1019  N1080   1.366   .     A
C1019  H1053   1.082   .     S
C1020  N1079   1.366   .     A
C1020  H1054   1.082   .     S
C1020  C1251   1.415   .     S
C1021  O1086   1.284   .     A
C1021  O1089   1.284   .     A
C1021  C1027   1.430   .     S
C1022  O1088   1.283   .     A
C1022  C1025   1.428   .     S
C1022  O1087   1.284   .     A
C1023  C1034   1.393   .     A
C1023  H1051   1.081   .     S
C1023  C1025   1.387   .     A
C1024  C1035   1.394   .     A
C1024  H1062   1.080   .     S
C1024  C1027   1.388   .     A
C1025  C1028   1.385   .     A
C1026  O1083   1.281   .     A
C1026  C1050   1.419   .     S
C1026  O1084   1.281   .     A
C1027  C1029   1.385   .     A
C1028  H1072   1.084   .     S
C1028  C1030   1.387   .     A
C1029  C1031   1.386   .     A
C1029  H1073   1.084   .     S
C1030  C1036   1.409   .     A
C1030  C1032   1.417   .     A
C1031  C1033   1.416   .     A
C1031  C1038   1.409   .     A
C1032  C1034   1.423   .     A
C1032  C331    1.392   1_556 S
C1033  C1035   1.423   .     A
C1034  C1045   1.420   .     A
C1035  C1037   1.420   .     A
C1036  O1090   1.386   .     S
C1036  C335    1.406   1_556 S
C1037  C1041   1.526   .     S
C1038  O1082   1.386   .     S
C1039  H1057   1.112   .     S
C1039  H1055   1.112   .     S
C1039  H1056   1.109   .     S
C1039  O1090   1.412   .     S
C1040  H1058   1.111   .     S
C1040  H1059   1.111   .     S
C1040  O1082   1.413   .     S
C1040  H1294   1.109   .     S
C1041  H1065   1.108   .     S
C1041  H1066   1.110   .     S
C1041  C1042   1.528   .     S
C1042  H1061   1.109   .     S
C1042  H1064   1.110   .     S
C1042  H1063   1.111   .     S
C1043  C1044   1.529   .     S
C1043  H1071   1.110   .     S
C1043  H1070   1.111   .     S
C1043  C1045   1.525   .     S
C1044  H1068   1.108   .     S
C1044  H1067   1.109   .     S
C1044  H1069   1.110   .     S
C1045  C336    1.404   1_556 S
C1046  H1074   1.084   .     S
C1047  C1050   1.397   .     A
C1047  H1075   1.084   .     S
C1047  C1127   1.370   .     S
C1048  H1076   1.084   .     S
C1048  C1050   1.397   .     A
C1048  C1124   1.370   .     S
C1049  H1077   1.084   .     S
N1079  Zn1091  2.007   .     S
N1080  Zn1092  2.007   .     S
O1081  Zn1091  1.999   .     S
O1083  Zn1092  1.999   .     S
O1084  Zn1091  1.999   .     S
O1085  Zn1092  1.999   .     S
O1086  Zn1091  2.012   .     S
O1087  Zn1092  2.012   .     S
O1088  Zn1091  2.013   .     S
O1089  Zn1092  2.013   .     S
C1093  O1163   1.281   .     A
C1093  C1094   1.419   .     S
C1093  O1159   1.281   .     A
C1094  C1127   1.397   .     A
C1094  C1124   1.397   .     A
C1095  H1156   1.082   .     S
C1095  N1158   1.366   .     A
C1096  N1157   1.366   .     A
C1096  H1130   1.082   .     S
C1096  C1331   1.415   .     S
C1097  N1158   1.366   .     A
C1097  H1131   1.082   .     S
C1098  N1157   1.366   .     A
C1098  H1132   1.082   .     S
C1098  C1329   1.415   .     S
C1099  O1164   1.284   .     A
C1099  O1167   1.284   .     A
C1099  C1105   1.430   .     S
C1100  O1166   1.283   .     A
C1100  C1103   1.428   .     S
C1100  O1165   1.284   .     A
C1101  C1112   1.393   .     A
C1101  H1129   1.081   .     S
C1101  C1103   1.387   .     A
C1102  C1113   1.394   .     A
C1102  H1140   1.080   .     S
C1102  C1105   1.388   .     A
C1103  C1106   1.385   .     A
C1104  O1161   1.281   .     A
C1104  C1128   1.419   .     S
C1104  O1162   1.281   .     A
C1105  C1107   1.385   .     A
C1106  H1150   1.084   .     S
C1106  C1108   1.387   .     A
C1107  C1109   1.386   .     A
C1107  H1151   1.084   .     S
C1108  C1114   1.409   .     A
C1108  C1110   1.417   .     A
C1109  C1111   1.416   .     A
C1109  C1116   1.409   .     A
C1110  C1112   1.423   .     A
C1110  C409    1.392   1_556 S
C1111  C1113   1.423   .     A
C1112  C1123   1.420   .     A
C1113  C1115   1.420   .     A
C1114  O1168   1.386   .     S
C1114  C413    1.406   1_556 S
C1115  C1119   1.526   .     S
C1116  O1160   1.386   .     S
C1117  H1135   1.112   .     S
C1117  H1133   1.112   .     S
C1117  H1134   1.109   .     S
C1117  O1168   1.412   .     S
C1118  H1136   1.111   .     S
C1118  H1137   1.111   .     S
C1118  O1160   1.413   .     S
C1118  H1372   1.109   .     S
C1119  H1143   1.108   .     S
C1119  H1144   1.110   .     S
C1119  C1120   1.528   .     S
C1120  H1139   1.109   .     S
C1120  H1142   1.110   .     S
C1120  H1141   1.111   .     S
C1121  C1122   1.529   .     S
C1121  H1149   1.110   .     S
C1121  H1148   1.111   .     S
C1121  C1123   1.525   .     S
C1122  H1146   1.108   .     S
C1122  H1145   1.109   .     S
C1122  H1147   1.110   .     S
C1123  C414    1.404   1_556 S
C1124  H1152   1.084   .     S
C1125  C1128   1.397   .     A
C1125  H1153   1.084   .     S
C1125  C971    1.370   1_655 S
C1126  H1154   1.084   .     S
C1126  C1128   1.397   .     A
C1126  C968    1.370   1_655 S
C1127  H1155   1.084   .     S
N1157  Zn1169  2.007   .     S
N1158  Zn1170  2.007   .     S
O1159  Zn1169  1.999   .     S
O1161  Zn1170  1.999   .     S
O1162  Zn1169  1.999   .     S
O1163  Zn1170  1.999   .     S
O1164  Zn1169  2.012   .     S
O1165  Zn1170  2.012   .     S
O1166  Zn1169  2.013   .     S
O1167  Zn1170  2.013   .     S
C1171  O1241   1.281   .     A
C1171  C1172   1.419   .     S
C1171  O1237   1.281   .     A
C1172  C1205   1.397   .     A
C1172  C1202   1.397   .     A
C1173  H1234   1.082   .     S
C1173  N1236   1.366   .     A
C1174  N1235   1.366   .     A
C1174  H1208   1.082   .     S
C1174  C707    1.415   1_565 S
C1175  N1236   1.366   .     A
C1175  H1209   1.082   .     S
C1176  N1235   1.366   .     A
C1176  H1210   1.082   .     S
C1176  C705    1.415   1_565 S
C1177  O1242   1.284   .     A
C1177  O1245   1.284   .     A
C1177  C1183   1.430   .     S
C1178  O1244   1.283   .     A
C1178  C1181   1.428   .     S
C1178  O1243   1.284   .     A
C1179  C1190   1.393   .     A
C1179  H1207   1.081   .     S
C1179  C1181   1.387   .     A
C1180  C1191   1.394   .     A
C1180  H1218   1.080   .     S
C1180  C1183   1.388   .     A
C1181  C1184   1.385   .     A
C1182  O1239   1.281   .     A
C1182  C1206   1.419   .     S
C1182  O1240   1.281   .     A
C1183  C1185   1.385   .     A
C1184  H1228   1.084   .     S
C1184  C1186   1.387   .     A
C1185  C1187   1.386   .     A
C1185  H1229   1.084   .     S
C1186  C1192   1.409   .     A
C1186  C1188   1.417   .     A
C1187  C1189   1.416   .     A
C1187  C1194   1.409   .     A
C1188  C1190   1.423   .     A
C1188  C487    1.392   1_556 S
C1189  C1191   1.423   .     A
C1190  C1201   1.420   .     A
C1191  C1193   1.420   .     A
C1192  O1246   1.386   .     S
C1192  C491    1.406   1_556 S
C1193  C1197   1.526   .     S
C1194  O1238   1.386   .     S
C1195  H1213   1.112   .     S
C1195  H1211   1.112   .     S
C1195  H1212   1.109   .     S
C1195  O1246   1.412   .     S
C1196  H1214   1.111   .     S
C1196  H1215   1.111   .     S
C1196  O1238   1.413   .     S
C1196  H748    1.109   1_565 S
C1197  H1221   1.108   .     S
C1197  H1222   1.110   .     S
C1197  C1198   1.528   .     S
C1198  H1217   1.109   .     S
C1198  H1220   1.110   .     S
C1198  H1219   1.111   .     S
C1199  C1200   1.529   .     S
C1199  H1227   1.110   .     S
C1199  H1226   1.111   .     S
C1199  C1201   1.525   .     S
C1200  H1224   1.108   .     S
C1200  H1223   1.109   .     S
C1200  H1225   1.110   .     S
C1201  C492    1.404   1_556 S
C1202  H1230   1.084   .     S
C1202  C1360   1.370   1_455 S
C1203  C1206   1.397   .     A
C1203  H1231   1.084   .     S
C1203  C1283   1.370   .     S
C1204  H1232   1.084   .     S
C1204  C1206   1.397   .     A
C1204  C1280   1.370   .     S
C1205  H1233   1.084   .     S
C1205  C1359   1.370   1_455 S
N1235  Zn1247  2.007   .     S
N1236  Zn1248  2.007   .     S
O1237  Zn1247  1.999   .     S
O1239  Zn1248  1.999   .     S
O1240  Zn1247  1.999   .     S
O1241  Zn1248  1.999   .     S
O1242  Zn1247  2.012   .     S
O1243  Zn1248  2.012   .     S
O1244  Zn1247  2.013   .     S
O1245  Zn1248  2.013   .     S
C1249  O1319   1.281   .     A
C1249  C1250   1.419   .     S
C1249  O1315   1.281   .     A
C1250  C1283   1.397   .     A
C1250  C1280   1.397   .     A
C1251  H1312   1.082   .     S
C1251  N1314   1.366   .     A
C1252  N1313   1.366   .     A
C1252  H1286   1.082   .     S
C1252  C785    1.415   1_565 S
C1253  N1314   1.366   .     A
C1253  H1287   1.082   .     S
C1254  N1313   1.366   .     A
C1254  H1288   1.082   .     S
C1254  C783    1.415   1_565 S
C1255  O1320   1.284   .     A
C1255  O1323   1.284   .     A
C1255  C1261   1.430   .     S
C1256  O1322   1.283   .     A
C1256  C1259   1.428   .     S
C1256  O1321   1.284   .     A
C1257  C1268   1.393   .     A
C1257  H1285   1.081   .     S
C1257  C1259   1.387   .     A
C1258  C1269   1.394   .     A
C1258  H1296   1.080   .     S
C1258  C1261   1.388   .     A
C1259  C1262   1.385   .     A
C1260  O1317   1.281   .     A
C1260  C1284   1.419   .     S
C1260  O1318   1.281   .     A
C1261  C1263   1.385   .     A
C1262  H1306   1.084   .     S
C1262  C1264   1.387   .     A
C1263  C1265   1.386   .     A
C1263  H1307   1.084   .     S
C1264  C1270   1.409   .     A
C1264  C1266   1.417   .     A
C1265  C1267   1.416   .     A
C1265  C1272   1.409   .     A
C1266  C1268   1.423   .     A
C1266  C565    1.392   1_556 S
C1267  C1269   1.423   .     A
C1268  C1279   1.420   .     A
C1269  C1271   1.420   .     A
C1270  O1324   1.386   .     S
C1270  C569    1.406   1_556 S
C1271  C1275   1.526   .     S
C1272  O1316   1.386   .     S
C1273  H1291   1.112   .     S
C1273  H1289   1.112   .     S
C1273  H1290   1.109   .     S
C1273  O1324   1.412   .     S
C1274  H1292   1.111   .     S
C1274  H1293   1.111   .     S
C1274  O1316   1.413   .     S
C1274  H826    1.109   1_565 S
C1275  H1299   1.108   .     S
C1275  H1300   1.110   .     S
C1275  C1276   1.528   .     S
C1276  H1295   1.109   .     S
C1276  H1298   1.110   .     S
C1276  H1297   1.111   .     S
C1277  C1278   1.529   .     S
C1277  H1305   1.110   .     S
C1277  H1304   1.111   .     S
C1277  C1279   1.525   .     S
C1278  H1302   1.108   .     S
C1278  H1301   1.109   .     S
C1278  H1303   1.110   .     S
C1279  C570    1.404   1_556 S
C1280  H1308   1.084   .     S
C1281  C1284   1.397   .     A
C1281  H1309   1.084   .     S
C1281  C1361   1.370   .     S
C1282  H1310   1.084   .     S
C1282  C1284   1.397   .     A
C1282  C1358   1.370   .     S
C1283  H1311   1.084   .     S
N1313  Zn1325  2.007   .     S
N1314  Zn1326  2.007   .     S
O1315  Zn1325  1.999   .     S
O1317  Zn1326  1.999   .     S
O1318  Zn1325  1.999   .     S
O1319  Zn1326  1.999   .     S
O1320  Zn1325  2.012   .     S
O1321  Zn1326  2.012   .     S
O1322  Zn1325  2.013   .     S
O1323  Zn1326  2.013   .     S
C1327  O1397   1.281   .     A
C1327  C1328   1.419   .     S
C1327  O1393   1.281   .     A
C1328  C1361   1.397   .     A
C1328  C1358   1.397   .     A
C1329  H1390   1.082   .     S
C1329  N1392   1.366   .     A
C1330  N1391   1.366   .     A
C1330  H1364   1.082   .     S
C1330  C863    1.415   1_565 S
C1331  N1392   1.366   .     A
C1331  H1365   1.082   .     S
C1332  N1391   1.366   .     A
C1332  H1366   1.082   .     S
C1332  C861    1.415   1_565 S
C1333  O1398   1.284   .     A
C1333  O1401   1.284   .     A
C1333  C1339   1.430   .     S
C1334  O1400   1.283   .     A
C1334  C1337   1.428   .     S
C1334  O1399   1.284   .     A
C1335  C1346   1.393   .     A
C1335  H1363   1.081   .     S
C1335  C1337   1.387   .     A
C1336  C1347   1.394   .     A
C1336  H1374   1.080   .     S
C1336  C1339   1.388   .     A
C1337  C1340   1.385   .     A
C1338  O1395   1.281   .     A
C1338  C1362   1.419   .     S
C1338  O1396   1.281   .     A
C1339  C1341   1.385   .     A
C1340  H1384   1.084   .     S
C1340  C1342   1.387   .     A
C1341  C1343   1.386   .     A
C1341  H1385   1.084   .     S
C1342  C1348   1.409   .     A
C1342  C1344   1.417   .     A
C1343  C1345   1.416   .     A
C1343  C1350   1.409   .     A
C1344  C1346   1.423   .     A
C1344  C643    1.392   1_556 S
C1345  C1347   1.423   .     A
C1346  C1357   1.420   .     A
C1347  C1349   1.420   .     A
C1348  O1402   1.386   .     S
C1348  C647    1.406   1_556 S
C1349  C1353   1.526   .     S
C1350  O1394   1.386   .     S
C1351  H1369   1.112   .     S
C1351  H1367   1.112   .     S
C1351  H1368   1.109   .     S
C1351  O1402   1.412   .     S
C1352  H1370   1.111   .     S
C1352  H1371   1.111   .     S
C1352  O1394   1.413   .     S
C1352  H904    1.109   1_565 S
C1353  H1377   1.108   .     S
C1353  H1378   1.110   .     S
C1353  C1354   1.528   .     S
C1354  H1373   1.109   .     S
C1354  H1376   1.110   .     S
C1354  H1375   1.111   .     S
C1355  C1356   1.529   .     S
C1355  H1383   1.110   .     S
C1355  H1382   1.111   .     S
C1355  C1357   1.525   .     S
C1356  H1380   1.108   .     S
C1356  H1379   1.109   .     S
C1356  H1381   1.110   .     S
C1357  C648    1.404   1_556 S
C1358  H1386   1.084   .     S
C1359  C1362   1.397   .     A
C1359  H1387   1.084   .     S
C1359  C1205   1.370   1_655 S
C1360  H1388   1.084   .     S
C1360  C1362   1.397   .     A
C1360  C1202   1.370   1_655 S
C1361  H1389   1.084   .     S
N1391  Zn1403  2.007   .     S
N1392  Zn1404  2.007   .     S
O1393  Zn1403  1.999   .     S
O1395  Zn1404  1.999   .     S
O1396  Zn1403  1.999   .     S
O1397  Zn1404  1.999   .     S
O1398  Zn1403  2.012   .     S
O1399  Zn1404  2.012   .     S
O1400  Zn1403  2.013   .     S
O1401  Zn1404  2.013   .     S
