data_str_m1_o1_o2_pcu_sym.19
_audit_creation_date              2020-01-03
_audit_creation_method            'Materials Studio'
_symmetry_space_group_name_H-M    'P1'
_symmetry_Int_Tables_number       1
_symmetry_cell_setting            triclinic
loop_
_symmetry_equiv_pos_as_xyz
  x,y,z
_cell_length_a                    36.6936
_cell_length_b                    36.6843
_cell_length_c                    34.3791
_cell_angle_alpha                 90.0000
_cell_angle_beta                  89.9534
_cell_angle_gamma                 90.0000
loop_
_atom_site_label
_atom_site_type_symbol
_atom_site_fract_x
_atom_site_fract_y
_atom_site_fract_z
_atom_site_U_iso_or_equiv
_atom_site_adp_type
_atom_site_occupancy
C1     C     0.23705   0.46953   0.04169   0.00000  Uiso   1.00
C2     C     0.01295   0.21953   0.45831   0.00000  Uiso   1.00
C3     C     0.34821   0.40176   0.75000   0.00000  Uiso   1.00
C4     C     0.40228   0.15171   0.25030   0.00000  Uiso   1.00
C5     C     0.09823   0.34822   0.75000   0.00000  Uiso   1.00
C6     C     0.34772   0.40171   0.24970   0.00000  Uiso   1.00
C7     C     0.15177   0.09823   0.75000   0.00000  Uiso   1.00
C8     C     0.09802   0.15199   0.75000   0.00000  Uiso   1.00
C9     C     0.40091   0.34740   0.24938   0.00000  Uiso   1.00
C10    C     0.15198   0.40199   0.75000   0.00000  Uiso   1.00
C11    C     0.34909   0.09739   0.25062   0.00000  Uiso   1.00
C12    C     0.40200   0.34802   0.75000   0.00000  Uiso   1.00
C13    C     0.27876   0.48394   0.54143   0.00000  Uiso   1.00
C14    C     0.09834   0.15191   0.24988   0.00000  Uiso   1.00
C15    C     0.34800   0.09802   0.75000   0.00000  Uiso   1.00
C16    C     0.15166   0.40191   0.25012   0.00000  Uiso   1.00
C17    C     0.24996   0.00007   0.10268   0.00000  Uiso   1.00
C18    C     0.24991   0.49999   0.89742   0.00000  Uiso   1.00
C19    C     0.00014   0.24989   0.10267   0.00000  Uiso   1.00
C20    C     0.00006   0.24997   0.89742   0.00000  Uiso   1.00
C21    C     0.00009   0.24999   0.60258   0.00000  Uiso   1.00
C22    C     0.00004   0.25007   0.39732   0.00000  Uiso   1.00
C23    C     0.24994   0.49997   0.60258   0.00000  Uiso   1.00
C24    C     0.28025   0.01259   0.45842   0.00000  Uiso   1.00
C25    C     0.24986   0.49989   0.39733   0.00000  Uiso   1.00
C26    C     0.11209   0.44027   0.17567   0.00000  Uiso   1.00
C27    C     0.12401   0.46548   0.14265   0.00000  Uiso   1.00
C28    C     0.09624   0.49580   0.13581   0.00000  Uiso   1.00
C29    C     0.32971   0.10018   0.83738   0.00000  Uiso   1.00
C30    C     0.34070   0.12817   0.86821   0.00000  Uiso   1.00
C31    C     0.30807   0.13956   0.89294   0.00000  Uiso   1.00
C32    C     0.06198   0.11488   0.17188   0.00000  Uiso   1.00
C33    C     0.04143   0.12718   0.13553   0.00000  Uiso   1.00
C34    C     0.01028   0.10126   0.12574   0.00000  Uiso   1.00
C35    C     0.01637   0.27881   0.54150   0.00000  Uiso   1.00
C36    C     0.39979   0.32977   0.83737   0.00000  Uiso   1.00
C37    C     0.37178   0.34075   0.86821   0.00000  Uiso   1.00
C38    C     0.36040   0.30812   0.89293   0.00000  Uiso   1.00
C39    C     0.39379   0.04588   0.19382   0.00000  Uiso   1.00
C40    C     0.43196   0.05105   0.17665   0.00000  Uiso   1.00
C41    C     0.45321   0.01527   0.17613   0.00000  Uiso   1.00
C42    C     0.17022   0.39983   0.83735   0.00000  Uiso   1.00
C43    C     0.15925   0.37176   0.86813   0.00000  Uiso   1.00
C44    C     0.19187   0.36039   0.89282   0.00000  Uiso   1.00
C45    C     0.44673   0.39512   0.18565   0.00000  Uiso   1.00
C46    C     0.48786   0.28058   0.45850   0.00000  Uiso   1.00
C47    C     0.47550   0.38676   0.15474   0.00000  Uiso   1.00
C48    C     0.00572   0.41533   0.15469   0.00000  Uiso   1.00
C49    C     0.10008   0.17029   0.83735   0.00000  Uiso   1.00
C50    C     0.12806   0.15936   0.86819   0.00000  Uiso   1.00
C51    C     0.13937   0.19202   0.89288   0.00000  Uiso   1.00
C52    C     0.10930   0.05685   0.82078   0.00000  Uiso   1.00
C53    C     0.12045   0.03002   0.85263   0.00000  Uiso   1.00
C54    C     0.09290   0.49906   0.85655   0.00000  Uiso   1.00
C55    C     0.33412   0.40312   0.16121   0.00000  Uiso   1.00
C56    C     0.34697   0.37565   0.13060   0.00000  Uiso   1.00
C57    C     0.22091   0.01569   0.54150   0.00000  Uiso   1.00
C58    C     0.31586   0.36471   0.10357   0.00000  Uiso   1.00
C59    C     0.05683   0.39067   0.82080   0.00000  Uiso   1.00
C60    C     0.02998   0.37949   0.85265   0.00000  Uiso   1.00
C61    C     0.49906   0.40707   0.85660   0.00000  Uiso   1.00
C62    C     0.40352   0.16381   0.16147   0.00000  Uiso   1.00
C63    C     0.37860   0.14919   0.12940   0.00000  Uiso   1.00
C64    C     0.36664   0.17960   0.10194   0.00000  Uiso   1.00
C65    C     0.39065   0.44315   0.82076   0.00000  Uiso   1.00
C66    C     0.37945   0.47003   0.85258   0.00000  Uiso   1.00
C67    C     0.40707   0.00091   0.85655   0.00000  Uiso   1.00
C68    C     0.21941   0.48700   0.45840   0.00000  Uiso   1.00
C69    C     0.17440   0.10441   0.16388   0.00000  Uiso   1.00
C70    C     0.16461   0.13374   0.13397   0.00000  Uiso   1.00
C71    C     0.19810   0.14590   0.11104   0.00000  Uiso   1.00
C72    C     0.44311   0.10929   0.82075   0.00000  Uiso   1.00
C73    C     0.46991   0.12045   0.85261   0.00000  Uiso   1.00
C74    C     0.00084   0.09288   0.85653   0.00000  Uiso   1.00
C75    C     0.10364   0.32674   0.16351   0.00000  Uiso   1.00
C76    C     0.13288   0.33696   0.13367   0.00000  Uiso   1.00
C77    C     0.14526   0.30371   0.11047   0.00000  Uiso   1.00
C78    C     0.35936   0.19316   0.67925   0.00000  Uiso   1.00
C79    C     0.23724   0.46889   0.08231   0.00000  Uiso   1.00
C80    C     0.37054   0.22000   0.64740   0.00000  Uiso   1.00
C81    C     0.34297   0.25094   0.64348   0.00000  Uiso   1.00
C82    C     0.07559   0.35442   0.33612   0.00000  Uiso   1.00
C83    C     0.08538   0.38374   0.36603   0.00000  Uiso   1.00
C84    C     0.05190   0.39591   0.38896   0.00000  Uiso   1.00
C85    C     0.30689   0.35930   0.67925   0.00000  Uiso   1.00
C86    C     0.28009   0.37046   0.64739   0.00000  Uiso   1.00
C87    C     0.24917   0.34288   0.64347   0.00000  Uiso   1.00
C88    C     0.14636   0.07674   0.33649   0.00000  Uiso   1.00
C89    C     0.11712   0.08696   0.36634   0.00000  Uiso   1.00
C90    C     0.26579   0.47041   0.91796   0.00000  Uiso   1.00
C91    C     0.10474   0.05372   0.38953   0.00000  Uiso   1.00
C92    C     0.14069   0.30685   0.67922   0.00000  Uiso   1.00
C93    C     0.12957   0.28008   0.64729   0.00000  Uiso   1.00
C94    C     0.15710   0.24910   0.64338   0.00000  Uiso   1.00
C95    C     0.41588   0.15312   0.33879   0.00000  Uiso   1.00
C96    C     0.40303   0.12566   0.36940   0.00000  Uiso   1.00
C97    C     0.43414   0.11471   0.39644   0.00000  Uiso   1.00
C98    C     0.19317   0.14067   0.67921   0.00000  Uiso   1.00
C99    C     0.22002   0.12949   0.64735   0.00000  Uiso   1.00
C100   C     0.25095   0.15707   0.64340   0.00000  Uiso   1.00
C101   C     0.03126   0.23702   0.08223   0.00000  Uiso   1.00
C102   C     0.34648   0.41383   0.33853   0.00000  Uiso   1.00
C103   C     0.37146   0.39922   0.37056   0.00000  Uiso   1.00
C104   C     0.38341   0.42964   0.39802   0.00000  Uiso   1.00
C105   C     0.35621   0.29588   0.30619   0.00000  Uiso   1.00
C106   C     0.31804   0.30106   0.32336   0.00000  Uiso   1.00
C107   C     0.29680   0.26528   0.32389   0.00000  Uiso   1.00
C108   C     0.07978   0.14982   0.66265   0.00000  Uiso   1.00
C109   C     0.09075   0.12176   0.63187   0.00000  Uiso   1.00
C110   C     0.05813   0.11038   0.60719   0.00000  Uiso   1.00
C111   C     0.30327   0.14512   0.31435   0.00000  Uiso   1.00
C112   C     0.26564   0.47109   0.95858   0.00000  Uiso   1.00
C113   C     0.02973   0.26577   0.91788   0.00000  Uiso   1.00
C114   C     0.27450   0.13676   0.34525   0.00000  Uiso   1.00
C115   C     0.24429   0.16534   0.34532   0.00000  Uiso   1.00
C116   C     0.14992   0.42030   0.66265   0.00000  Uiso   1.00
C117   C     0.12194   0.40937   0.63181   0.00000  Uiso   1.00
C118   C     0.11064   0.44203   0.60712   0.00000  Uiso   1.00
C119   C     0.13793   0.19027   0.32433   0.00000  Uiso   1.00
C120   C     0.12598   0.21552   0.35731   0.00000  Uiso   1.00
C121   C     0.15377   0.24581   0.36417   0.00000  Uiso   1.00
C122   C     0.42030   0.35018   0.66262   0.00000  Uiso   1.00
C123   C     0.40931   0.37817   0.63179   0.00000  Uiso   1.00
C124   C     0.26231   0.03134   0.08214   0.00000  Uiso   1.00
C125   C     0.44194   0.38957   0.60707   0.00000  Uiso   1.00
C126   C     0.18802   0.36489   0.32812   0.00000  Uiso   1.00
C127   C     0.20857   0.37718   0.36447   0.00000  Uiso   1.00
C128   C     0.23972   0.35126   0.37426   0.00000  Uiso   1.00
C129   C     0.35020   0.07977   0.66263   0.00000  Uiso   1.00
C130   C     0.37821   0.09075   0.63179   0.00000  Uiso   1.00
C131   C     0.38959   0.05812   0.60707   0.00000  Uiso   1.00
C132   C     0.22450   0.43498   0.10208   0.00000  Uiso   1.00
C133   C     0.28198   0.43794   0.89840   0.00000  Uiso   1.00
C134   C     0.06513   0.22399   0.10190   0.00000  Uiso   1.00
C135   C     0.23383   0.02954   0.91788   0.00000  Uiso   1.00
C136   C     0.06224   0.28179   0.89823   0.00000  Uiso   1.00
C137   C     0.27481   0.06553   0.10165   0.00000  Uiso   1.00
C138   C     0.21781   0.06204   0.89825   0.00000  Uiso   1.00
C139   C     0.43503   0.27527   0.10184   0.00000  Uiso   1.00
C140   C     0.43791   0.21810   0.89841   0.00000  Uiso   1.00
C141   C     0.46801   0.18794   0.60160   0.00000  Uiso   1.00
C142   C     0.02551   0.18498   0.39792   0.00000  Uiso   1.00
C143   C     0.31209   0.46810   0.60159   0.00000  Uiso   1.00
C144   C     0.31498   0.02527   0.39817   0.00000  Uiso   1.00
C145   C     0.03220   0.31203   0.60175   0.00000  Uiso   1.00
C146   C     0.46903   0.26258   0.08220   0.00000  Uiso   1.00
C147   C     0.47518   0.31552   0.39835   0.00000  Uiso   1.00
C148   C     0.18776   0.03179   0.60177   0.00000  Uiso   1.00
C149   C     0.18487   0.47399   0.39810   0.00000  Uiso   1.00
C150   C     0.47047   0.23405   0.91796   0.00000  Uiso   1.00
C151   C     0.48420   0.22041   0.58204   0.00000  Uiso   1.00
C152   C     0.01277   0.21889   0.41769   0.00000  Uiso   1.00
C153   C     0.27953   0.48405   0.58204   0.00000  Uiso   1.00
C154   C     0.28097   0.01258   0.41780   0.00000  Uiso   1.00
C155   C     0.01617   0.27954   0.58211   0.00000  Uiso   1.00
C156   C     0.03059   0.23699   0.04160   0.00000  Uiso   1.00
C157   C     0.48768   0.28133   0.41786   0.00000  Uiso   1.00
C158   C     0.22027   0.01577   0.58212   0.00000  Uiso   1.00
C159   C     0.21874   0.48702   0.41777   0.00000  Uiso   1.00
C160   C     0.24957   0.00002   0.02138   0.00000  Uiso   1.00
C161   C     0.24957   0.49994   0.97877   0.00000  Uiso   1.00
C162   C     0.00019   0.24980   0.02137   0.00000  Uiso   1.00
C163   C     0.00019   0.24978   0.97876   0.00000  Uiso   1.00
C164   C     0.00043   0.24994   0.52123   0.00000  Uiso   1.00
C165   C     0.00043   0.25002   0.47862   0.00000  Uiso   1.00
C166   C     0.24981   0.49978   0.52124   0.00000  Uiso   1.00
C167   C     0.02910   0.26569   0.95850   0.00000  Uiso   1.00
C168   C     0.24981   0.49980   0.47863   0.00000  Uiso   1.00
C169   C     0.24994   0.49998   0.35503   0.00000  Uiso   1.00
C170   C     0.24999  -0.00000   0.64494   0.00000  Uiso   1.00
C171   C    -0.00000   0.25003   0.35502   0.00000  Uiso   1.00
C172   C     0.00002   0.24999   0.64494   0.00000  Uiso   1.00
C173   C     0.00001   0.25000   0.85506   0.00000  Uiso   1.00
C174   C     0.00006   0.24998   0.14497   0.00000  Uiso   1.00
C175   C     0.24998   0.49999   0.85506   0.00000  Uiso   1.00
C176   C     0.25000   0.00003   0.14498   0.00000  Uiso   1.00
C177   C     0.18000   0.07002   0.25001   0.00000  Uiso   1.00
C178   C     0.26214   0.03059   0.04150   0.00000  Uiso   1.00
C179   C     0.32009   0.42990   0.75000   0.00000  Uiso   1.00
C180   C     0.43000   0.17998   0.25002   0.00000  Uiso   1.00
C181   C     0.07010   0.32009   0.75000   0.00000  Uiso   1.00
C182   C     0.32000   0.42998   0.24999   0.00000  Uiso   1.00
C183   C     0.17990   0.07009   0.75000   0.00000  Uiso   1.00
C184   C     0.07000   0.32002   0.24999   0.00000  Uiso   1.00
C185   C     0.42992   0.17990   0.75000   0.00000  Uiso   1.00
C186   C     0.17999   0.42999   0.75000   0.00000  Uiso   1.00
C187   C     0.32031   0.06990   0.25019   0.00000  Uiso   1.00
C188   C     0.43000   0.32001   0.75000   0.00000  Uiso   1.00
C189   C     0.23364   0.02881   0.95850   0.00000  Uiso   1.00
C190   C     0.07013   0.17997   0.24993   0.00000  Uiso   1.00
C191   C     0.32000   0.07001   0.75000   0.00000  Uiso   1.00
C192   C     0.17987   0.42997   0.25007   0.00000  Uiso   1.00
C193   C     0.07001   0.17999   0.75000   0.00000  Uiso   1.00
C194   C     0.42969   0.31990   0.24981   0.00000  Uiso   1.00
C195   C     0.13171   0.39497   0.21587   0.00000  Uiso   1.00
C196   C     0.36771   0.10520   0.78436   0.00000  Uiso   1.00
C197   C     0.10556   0.13219   0.21553   0.00000  Uiso   1.00
C198   C     0.39478   0.36775   0.78436   0.00000  Uiso   1.00
C199   C     0.37349   0.10031   0.21886   0.00000  Uiso   1.00
C200   C     0.46975   0.26259   0.04158   0.00000  Uiso   1.00
C201   C     0.13225   0.39479   0.78436   0.00000  Uiso   1.00
C202   C     0.39769   0.37117   0.21727   0.00000  Uiso   1.00
C203   C     0.10519   0.13227   0.78437   0.00000  Uiso   1.00
C204   C     0.13032   0.10377   0.78356   0.00000  Uiso   1.00
C205   C     0.36915   0.39619   0.21614   0.00000  Uiso   1.00
C206   C     0.10375   0.36966   0.78356   0.00000  Uiso   1.00
C207   C     0.39742   0.12962   0.21717   0.00000  Uiso   1.00
C208   C     0.36964   0.39624   0.78355   0.00000  Uiso   1.00
C209   C     0.13395   0.10684   0.21503   0.00000  Uiso   1.00
C210   C     0.39622   0.13032   0.78355   0.00000  Uiso   1.00
C211   C     0.47124   0.23394   0.95857   0.00000  Uiso   1.00
C212   C     0.10654   0.36646   0.21521   0.00000  Uiso   1.00
C213   C     0.38036   0.14624   0.71645   0.00000  Uiso   1.00
C214   C     0.11605   0.35684   0.28497   0.00000  Uiso   1.00
C215   C     0.35378   0.38032   0.71645   0.00000  Uiso   1.00
C216   C     0.14346   0.11646   0.28479   0.00000  Uiso   1.00
C217   C     0.11968   0.35378   0.71644   0.00000  Uiso   1.00
C218   C     0.38085   0.14619   0.28386   0.00000  Uiso   1.00
C219   C     0.14625   0.11966   0.71644   0.00000  Uiso   1.00
C220   C     0.35259   0.37962   0.28283   0.00000  Uiso   1.00
C221   C     0.37652   0.35031   0.28115   0.00000  Uiso   1.00
C222   C     0.48435   0.22109   0.54142   0.00000  Uiso   1.00
C223   C     0.11776   0.14480   0.71564   0.00000  Uiso   1.00
C224   C     0.35231   0.12117   0.28273   0.00000  Uiso   1.00
C225   C     0.14481   0.38227   0.71563   0.00000  Uiso   1.00
C226   C     0.11829   0.14497   0.28413   0.00000  Uiso   1.00
C227   C     0.38229   0.35520   0.71564   0.00000  Uiso   1.00
C228   C     0.14444   0.38219   0.28448   0.00000  Uiso   1.00
C229   C     0.35522   0.11775   0.71564   0.00000  Uiso   1.00
C230   C     0.09797   0.34808   0.25003   0.00000  Uiso   1.00
C231   C     0.40179   0.15176   0.75000   0.00000  Uiso   1.00
C232   C     0.15203   0.09808   0.24997   0.00000  Uiso   1.00
H233   H     0.22738   0.44605   0.02557   0.00000  Uiso   1.00
H234   H     0.02263   0.19605   0.47443   0.00000  Uiso   1.00
H235   H     0.39073   0.19219   0.08766   0.00000  Uiso   1.00
H236   H     0.39438   0.45860   0.79306   0.00000  Uiso   1.00
H237   H     0.41702   0.43043   0.82910   0.00000  Uiso   1.00
H238   H     0.35241   0.48185   0.84542   0.00000  Uiso   1.00
H239   H     0.37714   0.45539   0.88078   0.00000  Uiso   1.00
H240   H     0.43427   0.48986   0.86445   0.00000  Uiso   1.00
H241   H     0.39807   0.02001   0.87970   0.00000  Uiso   1.00
H242   H     0.40926   0.01623   0.82878   0.00000  Uiso   1.00
H243   H     0.18899   0.08195   0.14877   0.00000  Uiso   1.00
H244   H     0.19385   0.11573   0.18572   0.00000  Uiso   1.00
H245   H     0.30102   0.47180   0.52522   0.00000  Uiso   1.00
H246   H     0.14391   0.12286   0.11342   0.00000  Uiso   1.00
H247   H     0.15288   0.15776   0.14913   0.00000  Uiso   1.00
H248   H     0.21918   0.15692   0.13101   0.00000  Uiso   1.00
H249   H     0.19023   0.16760   0.09014   0.00000  Uiso   1.00
H250   H     0.20969   0.12262   0.09448   0.00000  Uiso   1.00
H251   H     0.45860   0.10563   0.79305   0.00000  Uiso   1.00
H252   H     0.43040   0.08289   0.82903   0.00000  Uiso   1.00
H253   H     0.48169   0.14755   0.84553   0.00000  Uiso   1.00
H254   H     0.45523   0.12265   0.88081   0.00000  Uiso   1.00
H255   H     0.01623   0.09085   0.82878   0.00000  Uiso   1.00
H256   H     0.30364   0.02232   0.47463   0.00000  Uiso   1.00
H257   H     0.48983   0.06561   0.86429   0.00000  Uiso   1.00
H258   H     0.01986   0.10182   0.87975   0.00000  Uiso   1.00
H259   H     0.08111   0.31244   0.14824   0.00000  Uiso   1.00
H260   H     0.11496   0.30691   0.18497   0.00000  Uiso   1.00
H261   H     0.12186   0.35775   0.11330   0.00000  Uiso   1.00
H262   H     0.15681   0.34876   0.14891   0.00000  Uiso   1.00
H263   H     0.15656   0.28262   0.13027   0.00000  Uiso   1.00
H264   H     0.16679   0.31191   0.08950   0.00000  Uiso   1.00
H265   H     0.12202   0.29199   0.09398   0.00000  Uiso   1.00
H266   H     0.35567   0.20863   0.70695   0.00000  Uiso   1.00
H267   H     0.02864   0.30104   0.52536   0.00000  Uiso   1.00
H268   H     0.33297   0.18046   0.67096   0.00000  Uiso   1.00
H269   H     0.39762   0.23178   0.65448   0.00000  Uiso   1.00
H270   H     0.37276   0.20535   0.61919   0.00000  Uiso   1.00
H271   H     0.31572   0.23994   0.63570   0.00000  Uiso   1.00
H272   H     0.35193   0.26999   0.62026   0.00000  Uiso   1.00
H273   H     0.34091   0.26631   0.67124   0.00000  Uiso   1.00
H274   H     0.06101   0.33195   0.35123   0.00000  Uiso   1.00
H275   H     0.05615   0.36574   0.31427   0.00000  Uiso   1.00
H276   H     0.10609   0.37286   0.38658   0.00000  Uiso   1.00
H277   H     0.09712   0.40776   0.35087   0.00000  Uiso   1.00
H278   H     0.47836   0.30401   0.47482   0.00000  Uiso   1.00
H279   H     0.03082   0.40693   0.36898   0.00000  Uiso   1.00
H280   H     0.05977   0.41760   0.40985   0.00000  Uiso   1.00
H281   H     0.04030   0.37262   0.40552   0.00000  Uiso   1.00
H282   H     0.29141   0.35563   0.70694   0.00000  Uiso   1.00
H283   H     0.31960   0.33289   0.67097   0.00000  Uiso   1.00
H284   H     0.26832   0.39756   0.65447   0.00000  Uiso   1.00
H285   H     0.29477   0.37265   0.61919   0.00000  Uiso   1.00
H286   H     0.23377   0.34086   0.67122   0.00000  Uiso   1.00
H287   H     0.26017   0.31562   0.63570   0.00000  Uiso   1.00
H288   H     0.23015   0.35183   0.62024   0.00000  Uiso   1.00
H289   H     0.19860   0.02777   0.52535   0.00000  Uiso   1.00
H290   H     0.16890   0.06245   0.35176   0.00000  Uiso   1.00
H291   H     0.13504   0.05691   0.31503   0.00000  Uiso   1.00
H292   H     0.12814   0.10776   0.38670   0.00000  Uiso   1.00
H293   H     0.09319   0.09876   0.35109   0.00000  Uiso   1.00
H294   H     0.09344   0.03263   0.36973   0.00000  Uiso   1.00
H295   H     0.08321   0.06191   0.41050   0.00000  Uiso   1.00
H296   H     0.12798   0.04199   0.40602   0.00000  Uiso   1.00
H297   H     0.14428   0.29133   0.70689   0.00000  Uiso   1.00
H298   H     0.16712   0.31954   0.67100   0.00000  Uiso   1.00
H299   H     0.10244   0.26834   0.65429   0.00000  Uiso   1.00
H300   H     0.19604   0.47719   0.47462   0.00000  Uiso   1.00
H301   H     0.12748   0.29478   0.61911   0.00000  Uiso   1.00
H302   H     0.18440   0.26006   0.63572   0.00000  Uiso   1.00
H303   H     0.14820   0.23012   0.62009   0.00000  Uiso   1.00
H304   H     0.15900   0.23366   0.67110   0.00000  Uiso   1.00
H305   H     0.42867   0.17664   0.35390   0.00000  Uiso   1.00
H306   H     0.43763   0.14069   0.32034   0.00000  Uiso   1.00
H307   H     0.38065   0.13783   0.38692   0.00000  Uiso   1.00
H308   H     0.39247   0.10086   0.35469   0.00000  Uiso   1.00
H309   H     0.45665   0.10208   0.37953   0.00000  Uiso   1.00
H310   H     0.42408   0.09462   0.41809   0.00000  Uiso   1.00
H311   H     0.10749   0.45710   0.20228   0.00000  Uiso   1.00
H312   H     0.44470   0.13894   0.41221   0.00000  Uiso   1.00
H313   H     0.20862   0.14436   0.70690   0.00000  Uiso   1.00
H314   H     0.18047   0.16707   0.67090   0.00000  Uiso   1.00
H315   H     0.23180   0.10240   0.65446   0.00000  Uiso   1.00
H316   H     0.20538   0.12727   0.61916   0.00000  Uiso   1.00
H317   H     0.26630   0.15913   0.67114   0.00000  Uiso   1.00
H318   H     0.23995   0.18433   0.63561   0.00000  Uiso   1.00
H319   H     0.27000   0.14811   0.62018   0.00000  Uiso   1.00
H320   H     0.32311   0.42811   0.35236   0.00000  Uiso   1.00
H321   H     0.36122   0.43473   0.32087   0.00000  Uiso   1.00
H322   H     0.08605   0.42700   0.16724   0.00000  Uiso   1.00
H323   H     0.35684   0.37795   0.38751   0.00000  Uiso   1.00
H324   H     0.39602   0.38670   0.35719   0.00000  Uiso   1.00
H325   H     0.39857   0.45096   0.38173   0.00000  Uiso   1.00
H326   H     0.40154   0.41827   0.42083   0.00000  Uiso   1.00
H327   H     0.35933   0.44219   0.41234   0.00000  Uiso   1.00
H328   H     0.36945   0.27252   0.32114   0.00000  Uiso   1.00
H329   H     0.35412   0.28814   0.27484   0.00000  Uiso   1.00
H330   H     0.32025   0.31166   0.35356   0.00000  Uiso   1.00
H331   H     0.30275   0.32105   0.30545   0.00000  Uiso   1.00
H332   H     0.29419   0.25419   0.29395   0.00000  Uiso   1.00
H333   H     0.15072   0.47795   0.14998   0.00000  Uiso   1.00
H334   H     0.26907   0.27010   0.33578   0.00000  Uiso   1.00
H335   H     0.31081   0.24492   0.34255   0.00000  Uiso   1.00
H336   H     0.06603   0.17304   0.64796   0.00000  Uiso   1.00
H337   H     0.05928   0.13771   0.68289   0.00000  Uiso   1.00
H338   H     0.11209   0.13354   0.61264   0.00000  Uiso   1.00
H339   H     0.10209   0.09723   0.64644   0.00000  Uiso   1.00
H340   H     0.03660   0.09819   0.62582   0.00000  Uiso   1.00
H341   H     0.06689   0.08981   0.58541   0.00000  Uiso   1.00
H342   H     0.04674   0.13432   0.59156   0.00000  Uiso   1.00
H343   H     0.28949   0.14662   0.28545   0.00000  Uiso   1.00
H344   H     0.27781   0.44886   0.97479   0.00000  Uiso   1.00
H345   H     0.12731   0.44935   0.11550   0.00000  Uiso   1.00
H346   H     0.31582   0.17203   0.32100   0.00000  Uiso   1.00
H347   H     0.26231   0.10956   0.33945   0.00000  Uiso   1.00
H348   H     0.28759   0.13604   0.37440   0.00000  Uiso   1.00
H349   H     0.23049   0.16603   0.31658   0.00000  Uiso   1.00
H350   H     0.25566   0.19273   0.35184   0.00000  Uiso   1.00
H351   H     0.22383   0.15840   0.36795   0.00000  Uiso   1.00
H352   H     0.17317   0.43408   0.64802   0.00000  Uiso   1.00
H353   H     0.13776   0.44078   0.68288   0.00000  Uiso   1.00
H354   H     0.13377   0.38805   0.61259   0.00000  Uiso   1.00
H355   H     0.09738   0.39801   0.64632   0.00000  Uiso   1.00
H356   H     0.06930   0.48403   0.12811   0.00000  Uiso   1.00
H357   H     0.09840   0.46355   0.62574   0.00000  Uiso   1.00
H358   H     0.09012   0.43330   0.58529   0.00000  Uiso   1.00
H359   H     0.13461   0.45343   0.59154   0.00000  Uiso   1.00
H360   H     0.14257   0.20706   0.29771   0.00000  Uiso   1.00
H361   H     0.16395   0.17699   0.33281   0.00000  Uiso   1.00
H362   H     0.09930   0.22801   0.34992   0.00000  Uiso   1.00
H363   H     0.12262   0.19942   0.38447   0.00000  Uiso   1.00
H364   H     0.18069   0.23402   0.37194   0.00000  Uiso   1.00
H365   H     0.14441   0.26348   0.38843   0.00000  Uiso   1.00
H366   H     0.15671   0.26287   0.33765   0.00000  Uiso   1.00
H367   H     0.10558   0.01343   0.11151   0.00000  Uiso   1.00
H368   H     0.43411   0.32697   0.64797   0.00000  Uiso   1.00
H369   H     0.44075   0.36237   0.68283   0.00000  Uiso   1.00
H370   H     0.38802   0.36632   0.61259   0.00000  Uiso   1.00
H371   H     0.39791   0.40270   0.64631   0.00000  Uiso   1.00
H372   H     0.46343   0.40184   0.62567   0.00000  Uiso   1.00
H373   H     0.43317   0.41008   0.58525   0.00000  Uiso   1.00
H374   H     0.45339   0.36562   0.59149   0.00000  Uiso   1.00
H375   H     0.20784   0.36156   0.30378   0.00000  Uiso   1.00
H376   H     0.17505   0.33807   0.33428   0.00000  Uiso   1.00
H377   H     0.21990   0.40490   0.35966   0.00000  Uiso   1.00
H378   H     0.09337   0.01289   0.16231   0.00000  Uiso   1.00
H379   H     0.18936   0.37843   0.38946   0.00000  Uiso   1.00
H380   H     0.26004   0.35123   0.35035   0.00000  Uiso   1.00
H381   H     0.22925   0.32315   0.37873   0.00000  Uiso   1.00
H382   H     0.25340   0.36045   0.40133   0.00000  Uiso   1.00
H383   H     0.32699   0.06598   0.64799   0.00000  Uiso   1.00
H384   H     0.36236   0.05928   0.68283   0.00000  Uiso   1.00
H385   H     0.36638   0.11207   0.61258   0.00000  Uiso   1.00
H386   H     0.40273   0.10214   0.64629   0.00000  Uiso   1.00
H387   H     0.40183   0.03661   0.62567   0.00000  Uiso   1.00
H388   H     0.41012   0.06689   0.58524   0.00000  Uiso   1.00
H389   H     0.31590   0.07696   0.85203   0.00000  Uiso   1.00
H390   H     0.36565   0.04669   0.59150   0.00000  Uiso   1.00
H391   H     0.19377   0.38942   0.09904   0.00000  Uiso   1.00
H392   H     0.31775   0.39626   0.90145   0.00000  Uiso   1.00
H393   H     0.11110   0.19394   0.09817   0.00000  Uiso   1.00
H394   H     0.10410   0.31735   0.90119   0.00000  Uiso   1.00
H395   H     0.30259   0.11285   0.09706   0.00000  Uiso   1.00
H396   H     0.18199   0.10369   0.90107   0.00000  Uiso   1.00
H397   H     0.38908   0.30536   0.09831   0.00000  Uiso   1.00
H398   H     0.39610   0.18246   0.90138   0.00000  Uiso   1.00
H399   H     0.43222   0.14628   0.59856   0.00000  Uiso   1.00
H400   H     0.30925   0.11236   0.81718   0.00000  Uiso   1.00
H401   H     0.05625   0.13942   0.40096   0.00000  Uiso   1.00
H402   H     0.35390   0.43246   0.59862   0.00000  Uiso   1.00
H403   H     0.36092   0.05535   0.40169   0.00000  Uiso   1.00
H404   H     0.06803   0.35368   0.59893   0.00000  Uiso   1.00
H405   H     0.44737   0.36282   0.40293   0.00000  Uiso   1.00
H406   H     0.14590   0.06736   0.59881   0.00000  Uiso   1.00
H407   H     0.13889   0.44394   0.40184   0.00000  Uiso   1.00
H408   H     0.36199   0.11631   0.88741   0.00000  Uiso   1.00
H409   H     0.35210   0.15270   0.85369   0.00000  Uiso   1.00
H410   H     0.28658   0.15183   0.87434   0.00000  Uiso   1.00
H411   H     0.31684   0.16007   0.91476   0.00000  Uiso   1.00
H412   H     0.05396   0.22718   0.02538   0.00000  Uiso   1.00
H413   H     0.29662   0.11561   0.90852   0.00000  Uiso   1.00
H414   H     0.04216   0.11156   0.19623   0.00000  Uiso   1.00
H415   H     0.07495   0.08807   0.16572   0.00000  Uiso   1.00
H416   H     0.03010   0.15490   0.14034   0.00000  Uiso   1.00
H417   H     0.06064   0.12843   0.11055   0.00000  Uiso   1.00
H418   H     0.48996   0.10123   0.14966   0.00000  Uiso   1.00
H419   H     0.02074   0.07315   0.12128   0.00000  Uiso   1.00
H420   H     0.49659   0.11045   0.09868   0.00000  Uiso   1.00
H421   H     0.42300   0.31597   0.85201   0.00000  Uiso   1.00
H422   H     0.38763   0.30928   0.81716   0.00000  Uiso   1.00
H423   H     0.05140   0.27777   0.97465   0.00000  Uiso   1.00
H424   H     0.38361   0.36207   0.88742   0.00000  Uiso   1.00
H425   H     0.34726   0.35214   0.85370   0.00000  Uiso   1.00
H426   H     0.34816   0.28661   0.87432   0.00000  Uiso   1.00
H427   H     0.33987   0.31689   0.91475   0.00000  Uiso   1.00
H428   H     0.38434   0.29669   0.90850   0.00000  Uiso   1.00
H429   H     0.38055   0.02251   0.17887   0.00000  Uiso   1.00
H430   H     0.39588   0.03814   0.22517   0.00000  Uiso   1.00
H431   H     0.42976   0.06165   0.14645   0.00000  Uiso   1.00
H432   H     0.44725   0.07104   0.19456   0.00000  Uiso   1.00
H433   H     0.45582   0.00418   0.20607   0.00000  Uiso   1.00
H434   H     0.27163   0.05402   0.02518   0.00000  Uiso   1.00
H435   H     0.48094   0.02009   0.16424   0.00000  Uiso   1.00
H436   H     0.43920   0.49491   0.15747   0.00000  Uiso   1.00
H437   H     0.18397   0.42304   0.85204   0.00000  Uiso   1.00
H438   H     0.19072   0.38771   0.81711   0.00000  Uiso   1.00
H439   H     0.13791   0.38354   0.88736   0.00000  Uiso   1.00
H440   H     0.14791   0.34724   0.85357   0.00000  Uiso   1.00
H441   H     0.21340   0.34819   0.87418   0.00000  Uiso   1.00
H442   H     0.18311   0.33982   0.91460   0.00000  Uiso   1.00
H443   H     0.20326   0.38433   0.90844   0.00000  Uiso   1.00
H444   H     0.46051   0.39661   0.21455   0.00000  Uiso   1.00
H445   H     0.22137   0.05104   0.97464   0.00000  Uiso   1.00
H446   H     0.43419   0.42203   0.17901   0.00000  Uiso   1.00
H447   H     0.48768   0.35955   0.16054   0.00000  Uiso   1.00
H448   H     0.46241   0.38606   0.12560   0.00000  Uiso   1.00
H449   H     0.49436   0.44272   0.14819   0.00000  Uiso   1.00
H450   H     0.02618   0.40839   0.13206   0.00000  Uiso   1.00
H451   H     0.01952   0.41601   0.18343   0.00000  Uiso   1.00
H452   H     0.07683   0.18407   0.85199   0.00000  Uiso   1.00
H453   H     0.11224   0.19078   0.81713   0.00000  Uiso   1.00
H454   H     0.11624   0.13804   0.88741   0.00000  Uiso   1.00
H455   H     0.15262   0.14801   0.85368   0.00000  Uiso   1.00
H456   H     0.44637   0.27232   0.02537   0.00000  Uiso   1.00
H457   H     0.15160   0.21355   0.87426   0.00000  Uiso   1.00
H458   H     0.15988   0.18329   0.91470   0.00000  Uiso   1.00
H459   H     0.11539   0.20342   0.90846   0.00000  Uiso   1.00
H460   H     0.10565   0.04137   0.79308   0.00000  Uiso   1.00
H461   H     0.08289   0.06954   0.82907   0.00000  Uiso   1.00
H462   H     0.14755   0.01826   0.84556   0.00000  Uiso   1.00
H463   H     0.12261   0.04468   0.88084   0.00000  Uiso   1.00
H464   H     0.06563   0.01004   0.86432   0.00000  Uiso   1.00
H465   H     0.10184   0.48002   0.87977   0.00000  Uiso   1.00
H466   H     0.09091   0.48368   0.82880   0.00000  Uiso   1.00
H467   H     0.44898   0.22180   0.97478   0.00000  Uiso   1.00
H468   H     0.32133   0.42664   0.14610   0.00000  Uiso   1.00
H469   H     0.31236   0.39069   0.17967   0.00000  Uiso   1.00
H470   H     0.36934   0.38783   0.11308   0.00000  Uiso   1.00
H471   H     0.35752   0.35086   0.14532   0.00000  Uiso   1.00
H472   H     0.29335   0.35208   0.12047   0.00000  Uiso   1.00
H473   H     0.32591   0.34462   0.08191   0.00000  Uiso   1.00
H474   H     0.30529   0.38894   0.08779   0.00000  Uiso   1.00
H475   H     0.04138   0.39436   0.79310   0.00000  Uiso   1.00
H476   H     0.06953   0.41707   0.82910   0.00000  Uiso   1.00
H477   H     0.01820   0.35240   0.84554   0.00000  Uiso   1.00
H478   H     0.47218   0.19886   0.52521   0.00000  Uiso   1.00
H479   H     0.04462   0.37726   0.88085   0.00000  Uiso   1.00
H480   H     0.48370   0.40913   0.82886   0.00000  Uiso   1.00
H481   H     0.01006   0.43433   0.86440   0.00000  Uiso   1.00
H482   H     0.48000   0.39811   0.87982   0.00000  Uiso   1.00
H483   H     0.42689   0.17813   0.14768   0.00000  Uiso   1.00
H484   H     0.38874   0.18469   0.17911   0.00000  Uiso   1.00
H485   H     0.39327   0.12794   0.11246   0.00000  Uiso   1.00
H486   H     0.35404   0.13663   0.14273   0.00000  Uiso   1.00
H487   H     0.35143   0.20090   0.11821   0.00000  Uiso   1.00
H488   H     0.34856   0.16822   0.07909   0.00000  Uiso   1.00
O489   O     0.25000   0.00000   0.25000   0.00000  Uiso   1.00
O490   O     0.25000   0.46964   0.66317   0.00000  Uiso   1.00
O491   O     0.41776   0.19096   0.91725   0.00000  Uiso   1.00
O492   O     0.47877   0.17809   0.63358   0.00000  Uiso   1.00
O493   O     0.44090   0.16787   0.58267   0.00000  Uiso   1.00
O494   O     0.01449   0.17691   0.36548   0.00000  Uiso   1.00
O495   O     0.04970   0.16162   0.41708   0.00000  Uiso   1.00
O496   O     0.32195   0.47907   0.63349   0.00000  Uiso   1.00
O497   O     0.33224   0.44096   0.58275   0.00000  Uiso   1.00
O498   O     0.32296   0.01452   0.36558   0.00000  Uiso   1.00
O499   O     0.33857   0.04899   0.41766   0.00000  Uiso   1.00
O500   O     0.02115   0.32195   0.63361   0.00000  Uiso   1.00
O501   O     0.46964   0.25000   0.33683   0.00000  Uiso   1.00
O502   O     0.05950   0.33206   0.58301   0.00000  Uiso   1.00
O503   O     0.48415   0.32250   0.36490   0.00000  Uiso   1.00
O504   O     0.45366   0.34045   0.41889   0.00000  Uiso   1.00
O505   O     0.17803   0.02098   0.63378   0.00000  Uiso   1.00
O506   O     0.16752   0.05881   0.58288   0.00000  Uiso   1.00
O507   O     0.17732   0.48385   0.36510   0.00000  Uiso   1.00
O508   O     0.16096   0.45083   0.41798   0.00000  Uiso   1.00
O509   O     0.03036   0.25000   0.66317   0.00000  Uiso   1.00
O510   O     0.00000   0.21964   0.83683   0.00000  Uiso   1.00
O511   O     0.00000   0.28036   0.16317   0.00000  Uiso   1.00
O512   O     0.28036   0.00000   0.83683   0.00000  Uiso   1.00
O513   O     0.21964   0.00000   0.16317   0.00000  Uiso   1.00
O514   O     0.00000   0.28036   0.83683   0.00000  Uiso   1.00
O515   O     0.00000   0.21964   0.16317   0.00000  Uiso   1.00
O516   O     0.21964   0.00000   0.83683   0.00000  Uiso   1.00
O517   O     0.25000   0.00000   0.75000   0.00000  Uiso   1.00
O518   O     0.28036   0.00000   0.16317   0.00000  Uiso   1.00
O519   O     0.20726   0.07307   0.27282   0.00000  Uiso   1.00
O520   O     0.29275   0.42693   0.72718   0.00000  Uiso   1.00
O521   O     0.42693   0.20726   0.27282   0.00000  Uiso   1.00
O522   O     0.07307   0.29275   0.72718   0.00000  Uiso   1.00
O523   O     0.29275   0.42693   0.27282   0.00000  Uiso   1.00
O524   O     0.20726   0.07307   0.72718   0.00000  Uiso   1.00
O525   O     0.07307   0.29275   0.27282   0.00000  Uiso   1.00
O526   O     0.42693   0.20726   0.72718   0.00000  Uiso   1.00
O527   O     0.20726   0.42693   0.72718   0.00000  Uiso   1.00
O528   O     0.00000   0.25000   0.25000   0.00000  Uiso   1.00
O529   O     0.29275   0.07307   0.27282   0.00000  Uiso   1.00
O530   O     0.42693   0.29275   0.72718   0.00000  Uiso   1.00
O531   O     0.07307   0.20726   0.27282   0.00000  Uiso   1.00
O532   O     0.29275   0.07307   0.72718   0.00000  Uiso   1.00
O533   O     0.20726   0.42693   0.27282   0.00000  Uiso   1.00
O534   O     0.07307   0.20726   0.72718   0.00000  Uiso   1.00
O535   O     0.42693   0.29275   0.27282   0.00000  Uiso   1.00
O536   O     0.45726   0.32307   0.77282   0.00000  Uiso   1.00
O537   O     0.04275   0.17693   0.22718   0.00000  Uiso   1.00
O538   O     0.17693   0.45726   0.77282   0.00000  Uiso   1.00
O539   O     0.00000   0.25000   0.75000   0.00000  Uiso   1.00
O540   O     0.32307   0.04275   0.22718   0.00000  Uiso   1.00
O541   O     0.04275   0.17693   0.77282   0.00000  Uiso   1.00
O542   O     0.45726   0.32307   0.22718   0.00000  Uiso   1.00
O543   O     0.32307   0.04275   0.77282   0.00000  Uiso   1.00
O544   O     0.17693   0.45726   0.22718   0.00000  Uiso   1.00
O545   O     0.45726   0.17693   0.22718   0.00000  Uiso   1.00
O546   O     0.04275   0.32307   0.77282   0.00000  Uiso   1.00
O547   O     0.17693   0.04275   0.22718   0.00000  Uiso   1.00
O548   O     0.32307   0.45726   0.77282   0.00000  Uiso   1.00
O549   O     0.04275   0.32307   0.22718   0.00000  Uiso   1.00
O550   O     0.25000   0.46964   0.33683   0.00000  Uiso   1.00
O551   O     0.45726   0.17693   0.77282   0.00000  Uiso   1.00
O552   O     0.32307   0.45726   0.22718   0.00000  Uiso   1.00
O553   O     0.17693   0.04275   0.77282   0.00000  Uiso   1.00
O554   O     0.13942   0.41374   0.18187   0.00000  Uiso   1.00
O555   O     0.36103   0.08614   0.81846   0.00000  Uiso   1.00
O556   O     0.08844   0.14151   0.18104   0.00000  Uiso   1.00
O557   O     0.41381   0.36109   0.81846   0.00000  Uiso   1.00
O558   O     0.37167   0.07700   0.18717   0.00000  Uiso   1.00
O559   O     0.13889   0.41384   0.81848   0.00000  Uiso   1.00
O560   O     0.42002   0.36735   0.18503   0.00000  Uiso   1.00
O561   O     0.25000   0.03036   0.66317   0.00000  Uiso   1.00
O562   O     0.08612   0.13894   0.81848   0.00000  Uiso   1.00
O563   O     0.13662   0.08381   0.81708   0.00000  Uiso   1.00
O564   O     0.36413   0.41671   0.18270   0.00000  Uiso   1.00
O565   O     0.08377   0.36332   0.81708   0.00000  Uiso   1.00
O566   O     0.41789   0.13464   0.18368   0.00000  Uiso   1.00
O567   O     0.36330   0.41622   0.81707   0.00000  Uiso   1.00
O568   O     0.14240   0.08935   0.18042   0.00000  Uiso   1.00
O569   O     0.41617   0.13664   0.81707   0.00000  Uiso   1.00
O570   O     0.08871   0.35851   0.18069   0.00000  Uiso   1.00
O571   O     0.38670   0.16622   0.68293   0.00000  Uiso   1.00
O572   O     0.03036   0.25000   0.33683   0.00000  Uiso   1.00
O573   O     0.10760   0.33935   0.31958   0.00000  Uiso   1.00
O574   O     0.33383   0.38664   0.68293   0.00000  Uiso   1.00
O575   O     0.16129   0.10851   0.31931   0.00000  Uiso   1.00
O576   O     0.11337   0.33381   0.68291   0.00000  Uiso   1.00
O577   O     0.38587   0.16671   0.31730   0.00000  Uiso   1.00
O578   O     0.16623   0.11332   0.68292   0.00000  Uiso   1.00
O579   O     0.33212   0.38465   0.31632   0.00000  Uiso   1.00
O580   O     0.37834   0.32701   0.31284   0.00000  Uiso   1.00
O581   O     0.11111   0.16384   0.68152   0.00000  Uiso   1.00
O582   O     0.32998   0.11735   0.31497   0.00000  Uiso   1.00
O583   O     0.46964   0.25000   0.66317   0.00000  Uiso   1.00
O584   O     0.16388   0.38894   0.68152   0.00000  Uiso   1.00
O585   O     0.11058   0.16374   0.31812   0.00000  Uiso   1.00
O586   O     0.38898   0.33615   0.68153   0.00000  Uiso   1.00
O587   O     0.16156   0.39151   0.31896   0.00000  Uiso   1.00
O588   O     0.33619   0.11110   0.68154   0.00000  Uiso   1.00
O589   O     0.23553   0.42691   0.13452   0.00000  Uiso   1.00
O590   O     0.20031   0.41162   0.08292   0.00000  Uiso   1.00
O591   O     0.27122   0.42809   0.86642   0.00000  Uiso   1.00
O592   O     0.30909   0.41786   0.91733   0.00000  Uiso   1.00
O593   O     0.07268   0.23385   0.13490   0.00000  Uiso   1.00
O594   O     0.25000   0.03036   0.33683   0.00000  Uiso   1.00
O595   O     0.08904   0.20083   0.08202   0.00000  Uiso   1.00
O596   O     0.07197   0.27098   0.86622   0.00000  Uiso   1.00
O597   O     0.08248   0.30880   0.91713   0.00000  Uiso   1.00
O598   O     0.26586   0.07249   0.13511   0.00000  Uiso   1.00
O599   O     0.29630   0.09048   0.08110   0.00000  Uiso   1.00
O600   O     0.22886   0.07195   0.86639   0.00000  Uiso   1.00
O601   O     0.19052   0.08207   0.91699   0.00000  Uiso   1.00
O602   O     0.42704   0.26453   0.13442   0.00000  Uiso   1.00
O603   O     0.41143   0.29900   0.08234   0.00000  Uiso   1.00
O604   O     0.42805   0.22908   0.86651   0.00000  Uiso   1.00
Zn605  Zn    0.20660   0.00000   0.21760   0.00000  Uiso   1.00
Zn606  Zn    0.04340   0.25000   0.28240   0.00000  Uiso   1.00
Zn607  Zn    0.25000   0.45660   0.71760   0.00000  Uiso   1.00
Zn608  Zn    0.25000   0.04340   0.28240   0.00000  Uiso   1.00
Zn609  Zn    0.04340   0.25000   0.71760   0.00000  Uiso   1.00
Zn610  Zn    0.45660   0.25000   0.28240   0.00000  Uiso   1.00
Zn611  Zn    0.25000   0.04340   0.71760   0.00000  Uiso   1.00
Zn612  Zn    0.25000   0.45660   0.28240   0.00000  Uiso   1.00
Zn613  Zn    0.29340   0.00000   0.78240   0.00000  Uiso   1.00
Zn614  Zn    0.00000   0.20660   0.21760   0.00000  Uiso   1.00
Zn615  Zn    0.00000   0.29340   0.78240   0.00000  Uiso   1.00
Zn616  Zn    0.29340   0.00000   0.21760   0.00000  Uiso   1.00
Zn617  Zn    0.20660   0.00000   0.78240   0.00000  Uiso   1.00
Zn618  Zn    0.00000   0.29340   0.21760   0.00000  Uiso   1.00
Zn619  Zn    0.00000   0.20660   0.78240   0.00000  Uiso   1.00
Zn620  Zn    0.45660   0.25000   0.71760   0.00000  Uiso   1.00
C621   C     0.73705   0.46953   0.04169   0.00000  Uiso   1.00
C622   C     0.51295   0.21953   0.45831   0.00000  Uiso   1.00
C623   C     0.84821   0.40176   0.75000   0.00000  Uiso   1.00
C624   C     0.90228   0.15171   0.25030   0.00000  Uiso   1.00
C625   C     0.59823   0.34822   0.75000   0.00000  Uiso   1.00
C626   C     0.84772   0.40171   0.24970   0.00000  Uiso   1.00
C627   C     0.65177   0.09823   0.75000   0.00000  Uiso   1.00
C628   C     0.59802   0.15199   0.75000   0.00000  Uiso   1.00
C629   C     0.90091   0.34740   0.24938   0.00000  Uiso   1.00
C630   C     0.65198   0.40199   0.75000   0.00000  Uiso   1.00
C631   C     0.84909   0.09739   0.25062   0.00000  Uiso   1.00
C632   C     0.90200   0.34802   0.75000   0.00000  Uiso   1.00
C633   C     0.77876   0.48394   0.54143   0.00000  Uiso   1.00
C634   C     0.59834   0.15191   0.24988   0.00000  Uiso   1.00
C635   C     0.84800   0.09802   0.75000   0.00000  Uiso   1.00
C636   C     0.65166   0.40191   0.25012   0.00000  Uiso   1.00
C637   C     0.74996   0.00007   0.10268   0.00000  Uiso   1.00
C638   C     0.74991   0.49999   0.89742   0.00000  Uiso   1.00
C639   C     0.50014   0.24989   0.10267   0.00000  Uiso   1.00
C640   C     0.50006   0.24997   0.89742   0.00000  Uiso   1.00
C641   C     0.50009   0.24999   0.60258   0.00000  Uiso   1.00
C642   C     0.50004   0.25007   0.39732   0.00000  Uiso   1.00
C643   C     0.74994   0.49997   0.60258   0.00000  Uiso   1.00
C644   C     0.78025   0.01259   0.45842   0.00000  Uiso   1.00
C645   C     0.74986   0.49989   0.39733   0.00000  Uiso   1.00
C646   C     0.61209   0.44027   0.17567   0.00000  Uiso   1.00
C647   C     0.62401   0.46548   0.14265   0.00000  Uiso   1.00
C648   C     0.59624   0.49580   0.13581   0.00000  Uiso   1.00
C649   C     0.82971   0.10018   0.83738   0.00000  Uiso   1.00
C650   C     0.84070   0.12817   0.86821   0.00000  Uiso   1.00
C651   C     0.80807   0.13956   0.89294   0.00000  Uiso   1.00
C652   C     0.56198   0.11488   0.17188   0.00000  Uiso   1.00
C653   C     0.54143   0.12718   0.13553   0.00000  Uiso   1.00
C654   C     0.51028   0.10126   0.12574   0.00000  Uiso   1.00
C655   C     0.51637   0.27881   0.54150   0.00000  Uiso   1.00
C656   C     0.89979   0.32977   0.83737   0.00000  Uiso   1.00
C657   C     0.87178   0.34075   0.86821   0.00000  Uiso   1.00
C658   C     0.86040   0.30812   0.89293   0.00000  Uiso   1.00
C659   C     0.89379   0.04588   0.19382   0.00000  Uiso   1.00
C660   C     0.93196   0.05105   0.17665   0.00000  Uiso   1.00
C661   C     0.95321   0.01527   0.17613   0.00000  Uiso   1.00
C662   C     0.67022   0.39983   0.83735   0.00000  Uiso   1.00
C663   C     0.65925   0.37176   0.86813   0.00000  Uiso   1.00
C664   C     0.69187   0.36039   0.89282   0.00000  Uiso   1.00
C665   C     0.94673   0.39512   0.18565   0.00000  Uiso   1.00
C666   C     0.98786   0.28058   0.45850   0.00000  Uiso   1.00
C667   C     0.97550   0.38676   0.15474   0.00000  Uiso   1.00
C668   C     0.50572   0.41533   0.15469   0.00000  Uiso   1.00
C669   C     0.60008   0.17029   0.83735   0.00000  Uiso   1.00
C670   C     0.62806   0.15936   0.86819   0.00000  Uiso   1.00
C671   C     0.63937   0.19202   0.89288   0.00000  Uiso   1.00
C672   C     0.60930   0.05685   0.82078   0.00000  Uiso   1.00
C673   C     0.62045   0.03002   0.85263   0.00000  Uiso   1.00
C674   C     0.59290   0.49906   0.85655   0.00000  Uiso   1.00
C675   C     0.83412   0.40312   0.16121   0.00000  Uiso   1.00
C676   C     0.84697   0.37565   0.13060   0.00000  Uiso   1.00
C677   C     0.72091   0.01569   0.54150   0.00000  Uiso   1.00
C678   C     0.81586   0.36471   0.10357   0.00000  Uiso   1.00
C679   C     0.55683   0.39067   0.82080   0.00000  Uiso   1.00
C680   C     0.52998   0.37949   0.85265   0.00000  Uiso   1.00
C681   C     0.99906   0.40707   0.85660   0.00000  Uiso   1.00
C682   C     0.90352   0.16381   0.16147   0.00000  Uiso   1.00
C683   C     0.87860   0.14919   0.12940   0.00000  Uiso   1.00
C684   C     0.86664   0.17960   0.10194   0.00000  Uiso   1.00
C685   C     0.89065   0.44315   0.82076   0.00000  Uiso   1.00
C686   C     0.87945   0.47003   0.85258   0.00000  Uiso   1.00
C687   C     0.90707   0.00091   0.85655   0.00000  Uiso   1.00
C688   C     0.71941   0.48700   0.45840   0.00000  Uiso   1.00
C689   C     0.67440   0.10441   0.16388   0.00000  Uiso   1.00
C690   C     0.66461   0.13374   0.13397   0.00000  Uiso   1.00
C691   C     0.69810   0.14590   0.11104   0.00000  Uiso   1.00
C692   C     0.94311   0.10929   0.82075   0.00000  Uiso   1.00
C693   C     0.96991   0.12045   0.85261   0.00000  Uiso   1.00
C694   C     0.50084   0.09288   0.85653   0.00000  Uiso   1.00
C695   C     0.60364   0.32674   0.16351   0.00000  Uiso   1.00
C696   C     0.63288   0.33696   0.13367   0.00000  Uiso   1.00
C697   C     0.64526   0.30371   0.11047   0.00000  Uiso   1.00
C698   C     0.85936   0.19316   0.67925   0.00000  Uiso   1.00
C699   C     0.73724   0.46889   0.08231   0.00000  Uiso   1.00
C700   C     0.87054   0.22000   0.64740   0.00000  Uiso   1.00
C701   C     0.84297   0.25094   0.64348   0.00000  Uiso   1.00
C702   C     0.57559   0.35442   0.33612   0.00000  Uiso   1.00
C703   C     0.58538   0.38374   0.36603   0.00000  Uiso   1.00
C704   C     0.55190   0.39591   0.38896   0.00000  Uiso   1.00
C705   C     0.80689   0.35930   0.67925   0.00000  Uiso   1.00
C706   C     0.78009   0.37046   0.64739   0.00000  Uiso   1.00
C707   C     0.74917   0.34288   0.64347   0.00000  Uiso   1.00
C708   C     0.64636   0.07674   0.33649   0.00000  Uiso   1.00
C709   C     0.61712   0.08696   0.36634   0.00000  Uiso   1.00
C710   C     0.76579   0.47041   0.91796   0.00000  Uiso   1.00
C711   C     0.60474   0.05372   0.38953   0.00000  Uiso   1.00
C712   C     0.64069   0.30685   0.67922   0.00000  Uiso   1.00
C713   C     0.62957   0.28008   0.64729   0.00000  Uiso   1.00
C714   C     0.65710   0.24910   0.64338   0.00000  Uiso   1.00
C715   C     0.91588   0.15312   0.33879   0.00000  Uiso   1.00
C716   C     0.90303   0.12566   0.36940   0.00000  Uiso   1.00
C717   C     0.93414   0.11471   0.39644   0.00000  Uiso   1.00
C718   C     0.69317   0.14067   0.67921   0.00000  Uiso   1.00
C719   C     0.72002   0.12949   0.64735   0.00000  Uiso   1.00
C720   C     0.75095   0.15707   0.64340   0.00000  Uiso   1.00
C721   C     0.53126   0.23702   0.08223   0.00000  Uiso   1.00
C722   C     0.84648   0.41383   0.33853   0.00000  Uiso   1.00
C723   C     0.87146   0.39922   0.37056   0.00000  Uiso   1.00
C724   C     0.88341   0.42964   0.39802   0.00000  Uiso   1.00
C725   C     0.85621   0.29588   0.30619   0.00000  Uiso   1.00
C726   C     0.81804   0.30106   0.32336   0.00000  Uiso   1.00
C727   C     0.79680   0.26528   0.32389   0.00000  Uiso   1.00
C728   C     0.57978   0.14982   0.66265   0.00000  Uiso   1.00
C729   C     0.59075   0.12176   0.63187   0.00000  Uiso   1.00
C730   C     0.55813   0.11038   0.60719   0.00000  Uiso   1.00
C731   C     0.80327   0.14512   0.31435   0.00000  Uiso   1.00
C732   C     0.76564   0.47109   0.95858   0.00000  Uiso   1.00
C733   C     0.52973   0.26577   0.91788   0.00000  Uiso   1.00
C734   C     0.77450   0.13676   0.34525   0.00000  Uiso   1.00
C735   C     0.74429   0.16534   0.34532   0.00000  Uiso   1.00
C736   C     0.64992   0.42030   0.66265   0.00000  Uiso   1.00
C737   C     0.62194   0.40937   0.63181   0.00000  Uiso   1.00
C738   C     0.61064   0.44203   0.60712   0.00000  Uiso   1.00
C739   C     0.63793   0.19027   0.32433   0.00000  Uiso   1.00
C740   C     0.62598   0.21552   0.35731   0.00000  Uiso   1.00
C741   C     0.65377   0.24581   0.36417   0.00000  Uiso   1.00
C742   C     0.92030   0.35018   0.66262   0.00000  Uiso   1.00
C743   C     0.90931   0.37817   0.63179   0.00000  Uiso   1.00
C744   C     0.76231   0.03134   0.08214   0.00000  Uiso   1.00
C745   C     0.94194   0.38957   0.60707   0.00000  Uiso   1.00
C746   C     0.68802   0.36489   0.32812   0.00000  Uiso   1.00
C747   C     0.70857   0.37718   0.36447   0.00000  Uiso   1.00
C748   C     0.73972   0.35126   0.37426   0.00000  Uiso   1.00
C749   C     0.85020   0.07977   0.66263   0.00000  Uiso   1.00
C750   C     0.87821   0.09075   0.63179   0.00000  Uiso   1.00
C751   C     0.88959   0.05812   0.60707   0.00000  Uiso   1.00
C752   C     0.72450   0.43498   0.10208   0.00000  Uiso   1.00
C753   C     0.78198   0.43794   0.89840   0.00000  Uiso   1.00
C754   C     0.56513   0.22399   0.10190   0.00000  Uiso   1.00
C755   C     0.73383   0.02954   0.91788   0.00000  Uiso   1.00
C756   C     0.56224   0.28179   0.89823   0.00000  Uiso   1.00
C757   C     0.77481   0.06553   0.10165   0.00000  Uiso   1.00
C758   C     0.71781   0.06204   0.89825   0.00000  Uiso   1.00
C759   C     0.93503   0.27527   0.10184   0.00000  Uiso   1.00
C760   C     0.93791   0.21810   0.89841   0.00000  Uiso   1.00
C761   C     0.96801   0.18794   0.60160   0.00000  Uiso   1.00
C762   C     0.52551   0.18498   0.39792   0.00000  Uiso   1.00
C763   C     0.81209   0.46810   0.60159   0.00000  Uiso   1.00
C764   C     0.81498   0.02527   0.39817   0.00000  Uiso   1.00
C765   C     0.53220   0.31203   0.60175   0.00000  Uiso   1.00
C766   C     0.96903   0.26258   0.08220   0.00000  Uiso   1.00
C767   C     0.97518   0.31552   0.39835   0.00000  Uiso   1.00
C768   C     0.68776   0.03179   0.60177   0.00000  Uiso   1.00
C769   C     0.68487   0.47399   0.39810   0.00000  Uiso   1.00
C770   C     0.97047   0.23405   0.91796   0.00000  Uiso   1.00
C771   C     0.98420   0.22041   0.58204   0.00000  Uiso   1.00
C772   C     0.51277   0.21889   0.41769   0.00000  Uiso   1.00
C773   C     0.77953   0.48405   0.58204   0.00000  Uiso   1.00
C774   C     0.78097   0.01258   0.41780   0.00000  Uiso   1.00
C775   C     0.51617   0.27954   0.58211   0.00000  Uiso   1.00
C776   C     0.53059   0.23699   0.04160   0.00000  Uiso   1.00
C777   C     0.98768   0.28133   0.41786   0.00000  Uiso   1.00
C778   C     0.72027   0.01577   0.58212   0.00000  Uiso   1.00
C779   C     0.71874   0.48702   0.41777   0.00000  Uiso   1.00
C780   C     0.74957   0.00002   0.02138   0.00000  Uiso   1.00
C781   C     0.74957   0.49994   0.97877   0.00000  Uiso   1.00
C782   C     0.50019   0.24980   0.02137   0.00000  Uiso   1.00
C783   C     0.50019   0.24978   0.97876   0.00000  Uiso   1.00
C784   C     0.50043   0.24994   0.52123   0.00000  Uiso   1.00
C785   C     0.50043   0.25002   0.47862   0.00000  Uiso   1.00
C786   C     0.74981   0.49978   0.52124   0.00000  Uiso   1.00
C787   C     0.52910   0.26569   0.95850   0.00000  Uiso   1.00
C788   C     0.74981   0.49980   0.47863   0.00000  Uiso   1.00
C789   C     0.74994   0.49998   0.35503   0.00000  Uiso   1.00
C790   C     0.74999  -0.00000   0.64494   0.00000  Uiso   1.00
C791   C     0.50000   0.25003   0.35502   0.00000  Uiso   1.00
C792   C     0.50002   0.24999   0.64494   0.00000  Uiso   1.00
C793   C     0.50001   0.25000   0.85506   0.00000  Uiso   1.00
C794   C     0.50006   0.24998   0.14497   0.00000  Uiso   1.00
C795   C     0.74998   0.49999   0.85506   0.00000  Uiso   1.00
C796   C     0.75000   0.00003   0.14498   0.00000  Uiso   1.00
C797   C     0.68000   0.07002   0.25001   0.00000  Uiso   1.00
C798   C     0.76214   0.03059   0.04150   0.00000  Uiso   1.00
C799   C     0.82009   0.42990   0.75000   0.00000  Uiso   1.00
C800   C     0.93000   0.17998   0.25002   0.00000  Uiso   1.00
C801   C     0.57010   0.32009   0.75000   0.00000  Uiso   1.00
C802   C     0.82000   0.42998   0.24999   0.00000  Uiso   1.00
C803   C     0.67990   0.07009   0.75000   0.00000  Uiso   1.00
C804   C     0.57000   0.32002   0.24999   0.00000  Uiso   1.00
C805   C     0.92992   0.17990   0.75000   0.00000  Uiso   1.00
C806   C     0.67999   0.42999   0.75000   0.00000  Uiso   1.00
C807   C     0.82031   0.06990   0.25019   0.00000  Uiso   1.00
C808   C     0.93000   0.32001   0.75000   0.00000  Uiso   1.00
C809   C     0.73364   0.02881   0.95850   0.00000  Uiso   1.00
C810   C     0.57013   0.17997   0.24993   0.00000  Uiso   1.00
C811   C     0.82000   0.07001   0.75000   0.00000  Uiso   1.00
C812   C     0.67987   0.42997   0.25007   0.00000  Uiso   1.00
C813   C     0.57001   0.17999   0.75000   0.00000  Uiso   1.00
C814   C     0.92969   0.31990   0.24981   0.00000  Uiso   1.00
C815   C     0.63171   0.39497   0.21587   0.00000  Uiso   1.00
C816   C     0.86771   0.10520   0.78436   0.00000  Uiso   1.00
C817   C     0.60556   0.13219   0.21553   0.00000  Uiso   1.00
C818   C     0.89478   0.36775   0.78436   0.00000  Uiso   1.00
C819   C     0.87349   0.10031   0.21886   0.00000  Uiso   1.00
C820   C     0.96975   0.26259   0.04158   0.00000  Uiso   1.00
C821   C     0.63225   0.39479   0.78436   0.00000  Uiso   1.00
C822   C     0.89769   0.37117   0.21727   0.00000  Uiso   1.00
C823   C     0.60519   0.13227   0.78437   0.00000  Uiso   1.00
C824   C     0.63032   0.10377   0.78356   0.00000  Uiso   1.00
C825   C     0.86915   0.39619   0.21614   0.00000  Uiso   1.00
C826   C     0.60375   0.36966   0.78356   0.00000  Uiso   1.00
C827   C     0.89742   0.12962   0.21717   0.00000  Uiso   1.00
C828   C     0.86964   0.39624   0.78355   0.00000  Uiso   1.00
C829   C     0.63395   0.10684   0.21503   0.00000  Uiso   1.00
C830   C     0.89622   0.13032   0.78355   0.00000  Uiso   1.00
C831   C     0.97124   0.23394   0.95857   0.00000  Uiso   1.00
C832   C     0.60654   0.36646   0.21521   0.00000  Uiso   1.00
C833   C     0.88036   0.14624   0.71645   0.00000  Uiso   1.00
C834   C     0.61605   0.35684   0.28497   0.00000  Uiso   1.00
C835   C     0.85378   0.38032   0.71645   0.00000  Uiso   1.00
C836   C     0.64346   0.11646   0.28479   0.00000  Uiso   1.00
C837   C     0.61968   0.35378   0.71644   0.00000  Uiso   1.00
C838   C     0.88085   0.14619   0.28386   0.00000  Uiso   1.00
C839   C     0.64625   0.11966   0.71644   0.00000  Uiso   1.00
C840   C     0.85259   0.37962   0.28283   0.00000  Uiso   1.00
C841   C     0.87652   0.35031   0.28115   0.00000  Uiso   1.00
C842   C     0.98435   0.22109   0.54142   0.00000  Uiso   1.00
C843   C     0.61776   0.14480   0.71564   0.00000  Uiso   1.00
C844   C     0.85231   0.12117   0.28273   0.00000  Uiso   1.00
C845   C     0.64481   0.38227   0.71563   0.00000  Uiso   1.00
C846   C     0.61829   0.14497   0.28413   0.00000  Uiso   1.00
C847   C     0.88229   0.35520   0.71564   0.00000  Uiso   1.00
C848   C     0.64444   0.38219   0.28448   0.00000  Uiso   1.00
C849   C     0.85522   0.11775   0.71564   0.00000  Uiso   1.00
C850   C     0.59797   0.34808   0.25003   0.00000  Uiso   1.00
C851   C     0.90179   0.15176   0.75000   0.00000  Uiso   1.00
C852   C     0.65203   0.09808   0.24997   0.00000  Uiso   1.00
H853   H     0.72738   0.44605   0.02557   0.00000  Uiso   1.00
H854   H     0.52263   0.19605   0.47443   0.00000  Uiso   1.00
H855   H     0.89073   0.19219   0.08766   0.00000  Uiso   1.00
H856   H     0.89438   0.45860   0.79306   0.00000  Uiso   1.00
H857   H     0.91702   0.43043   0.82910   0.00000  Uiso   1.00
H858   H     0.85241   0.48185   0.84542   0.00000  Uiso   1.00
H859   H     0.87714   0.45539   0.88078   0.00000  Uiso   1.00
H860   H     0.93427   0.48986   0.86445   0.00000  Uiso   1.00
H861   H     0.89807   0.02001   0.87970   0.00000  Uiso   1.00
H862   H     0.90926   0.01623   0.82878   0.00000  Uiso   1.00
H863   H     0.68899   0.08195   0.14877   0.00000  Uiso   1.00
H864   H     0.69385   0.11573   0.18572   0.00000  Uiso   1.00
H865   H     0.80102   0.47180   0.52522   0.00000  Uiso   1.00
H866   H     0.64391   0.12286   0.11342   0.00000  Uiso   1.00
H867   H     0.65288   0.15776   0.14913   0.00000  Uiso   1.00
H868   H     0.71918   0.15692   0.13101   0.00000  Uiso   1.00
H869   H     0.69023   0.16760   0.09014   0.00000  Uiso   1.00
H870   H     0.70969   0.12262   0.09448   0.00000  Uiso   1.00
H871   H     0.95860   0.10563   0.79305   0.00000  Uiso   1.00
H872   H     0.93040   0.08289   0.82903   0.00000  Uiso   1.00
H873   H     0.98169   0.14755   0.84553   0.00000  Uiso   1.00
H874   H     0.95523   0.12265   0.88081   0.00000  Uiso   1.00
H875   H     0.51623   0.09085   0.82878   0.00000  Uiso   1.00
H876   H     0.80364   0.02232   0.47463   0.00000  Uiso   1.00
H877   H     0.98983   0.06561   0.86429   0.00000  Uiso   1.00
H878   H     0.51986   0.10182   0.87975   0.00000  Uiso   1.00
H879   H     0.58111   0.31244   0.14824   0.00000  Uiso   1.00
H880   H     0.61496   0.30691   0.18497   0.00000  Uiso   1.00
H881   H     0.62186   0.35775   0.11330   0.00000  Uiso   1.00
H882   H     0.65681   0.34876   0.14891   0.00000  Uiso   1.00
H883   H     0.65656   0.28262   0.13027   0.00000  Uiso   1.00
H884   H     0.66679   0.31191   0.08950   0.00000  Uiso   1.00
H885   H     0.62202   0.29199   0.09398   0.00000  Uiso   1.00
H886   H     0.85567   0.20863   0.70695   0.00000  Uiso   1.00
H887   H     0.52864   0.30104   0.52536   0.00000  Uiso   1.00
H888   H     0.83297   0.18046   0.67096   0.00000  Uiso   1.00
H889   H     0.89762   0.23178   0.65448   0.00000  Uiso   1.00
H890   H     0.87276   0.20535   0.61919   0.00000  Uiso   1.00
H891   H     0.81572   0.23994   0.63570   0.00000  Uiso   1.00
H892   H     0.85193   0.26999   0.62026   0.00000  Uiso   1.00
H893   H     0.84091   0.26631   0.67124   0.00000  Uiso   1.00
H894   H     0.56101   0.33195   0.35123   0.00000  Uiso   1.00
H895   H     0.55615   0.36574   0.31427   0.00000  Uiso   1.00
H896   H     0.60609   0.37286   0.38658   0.00000  Uiso   1.00
H897   H     0.59712   0.40776   0.35087   0.00000  Uiso   1.00
H898   H     0.97836   0.30401   0.47482   0.00000  Uiso   1.00
H899   H     0.53082   0.40693   0.36898   0.00000  Uiso   1.00
H900   H     0.55977   0.41760   0.40985   0.00000  Uiso   1.00
H901   H     0.54030   0.37262   0.40552   0.00000  Uiso   1.00
H902   H     0.79141   0.35563   0.70694   0.00000  Uiso   1.00
H903   H     0.81960   0.33289   0.67097   0.00000  Uiso   1.00
H904   H     0.76832   0.39756   0.65447   0.00000  Uiso   1.00
H905   H     0.79477   0.37265   0.61919   0.00000  Uiso   1.00
H906   H     0.73377   0.34086   0.67122   0.00000  Uiso   1.00
H907   H     0.76017   0.31562   0.63570   0.00000  Uiso   1.00
H908   H     0.73015   0.35183   0.62024   0.00000  Uiso   1.00
H909   H     0.69860   0.02777   0.52535   0.00000  Uiso   1.00
H910   H     0.66890   0.06245   0.35176   0.00000  Uiso   1.00
H911   H     0.63504   0.05691   0.31503   0.00000  Uiso   1.00
H912   H     0.62814   0.10776   0.38670   0.00000  Uiso   1.00
H913   H     0.59319   0.09876   0.35109   0.00000  Uiso   1.00
H914   H     0.59344   0.03263   0.36973   0.00000  Uiso   1.00
H915   H     0.58321   0.06191   0.41050   0.00000  Uiso   1.00
H916   H     0.62798   0.04199   0.40602   0.00000  Uiso   1.00
H917   H     0.64428   0.29133   0.70689   0.00000  Uiso   1.00
H918   H     0.66712   0.31954   0.67100   0.00000  Uiso   1.00
H919   H     0.60244   0.26834   0.65429   0.00000  Uiso   1.00
H920   H     0.69604   0.47719   0.47462   0.00000  Uiso   1.00
H921   H     0.62748   0.29478   0.61911   0.00000  Uiso   1.00
H922   H     0.68440   0.26006   0.63572   0.00000  Uiso   1.00
H923   H     0.64820   0.23012   0.62009   0.00000  Uiso   1.00
H924   H     0.65900   0.23366   0.67110   0.00000  Uiso   1.00
H925   H     0.92867   0.17664   0.35390   0.00000  Uiso   1.00
H926   H     0.93763   0.14069   0.32034   0.00000  Uiso   1.00
H927   H     0.88065   0.13783   0.38692   0.00000  Uiso   1.00
H928   H     0.89247   0.10086   0.35469   0.00000  Uiso   1.00
H929   H     0.95665   0.10208   0.37953   0.00000  Uiso   1.00
H930   H     0.92408   0.09462   0.41809   0.00000  Uiso   1.00
H931   H     0.60749   0.45710   0.20228   0.00000  Uiso   1.00
H932   H     0.94470   0.13894   0.41221   0.00000  Uiso   1.00
H933   H     0.70862   0.14436   0.70690   0.00000  Uiso   1.00
H934   H     0.68047   0.16707   0.67090   0.00000  Uiso   1.00
H935   H     0.73180   0.10240   0.65446   0.00000  Uiso   1.00
H936   H     0.70538   0.12727   0.61916   0.00000  Uiso   1.00
H937   H     0.76630   0.15913   0.67114   0.00000  Uiso   1.00
H938   H     0.73995   0.18433   0.63561   0.00000  Uiso   1.00
H939   H     0.77000   0.14811   0.62018   0.00000  Uiso   1.00
H940   H     0.82311   0.42811   0.35236   0.00000  Uiso   1.00
H941   H     0.86122   0.43473   0.32087   0.00000  Uiso   1.00
H942   H     0.58605   0.42700   0.16724   0.00000  Uiso   1.00
H943   H     0.85684   0.37795   0.38751   0.00000  Uiso   1.00
H944   H     0.89602   0.38670   0.35719   0.00000  Uiso   1.00
H945   H     0.89857   0.45096   0.38173   0.00000  Uiso   1.00
H946   H     0.90154   0.41827   0.42083   0.00000  Uiso   1.00
H947   H     0.85933   0.44219   0.41234   0.00000  Uiso   1.00
H948   H     0.86945   0.27252   0.32114   0.00000  Uiso   1.00
H949   H     0.85412   0.28814   0.27484   0.00000  Uiso   1.00
H950   H     0.82025   0.31166   0.35356   0.00000  Uiso   1.00
H951   H     0.80275   0.32105   0.30545   0.00000  Uiso   1.00
H952   H     0.79419   0.25419   0.29395   0.00000  Uiso   1.00
H953   H     0.65072   0.47795   0.14998   0.00000  Uiso   1.00
H954   H     0.76907   0.27010   0.33578   0.00000  Uiso   1.00
H955   H     0.81081   0.24492   0.34255   0.00000  Uiso   1.00
H956   H     0.56603   0.17304   0.64796   0.00000  Uiso   1.00
H957   H     0.55928   0.13771   0.68289   0.00000  Uiso   1.00
H958   H     0.61209   0.13354   0.61264   0.00000  Uiso   1.00
H959   H     0.60209   0.09723   0.64644   0.00000  Uiso   1.00
H960   H     0.53660   0.09819   0.62582   0.00000  Uiso   1.00
H961   H     0.56689   0.08981   0.58541   0.00000  Uiso   1.00
H962   H     0.54674   0.13432   0.59156   0.00000  Uiso   1.00
H963   H     0.78949   0.14662   0.28545   0.00000  Uiso   1.00
H964   H     0.77781   0.44886   0.97479   0.00000  Uiso   1.00
H965   H     0.62731   0.44935   0.11550   0.00000  Uiso   1.00
H966   H     0.81582   0.17203   0.32100   0.00000  Uiso   1.00
H967   H     0.76231   0.10956   0.33945   0.00000  Uiso   1.00
H968   H     0.78759   0.13604   0.37440   0.00000  Uiso   1.00
H969   H     0.73049   0.16603   0.31658   0.00000  Uiso   1.00
H970   H     0.75566   0.19273   0.35184   0.00000  Uiso   1.00
H971   H     0.72383   0.15840   0.36795   0.00000  Uiso   1.00
H972   H     0.67317   0.43408   0.64802   0.00000  Uiso   1.00
H973   H     0.63776   0.44078   0.68288   0.00000  Uiso   1.00
H974   H     0.63377   0.38805   0.61259   0.00000  Uiso   1.00
H975   H     0.59738   0.39801   0.64632   0.00000  Uiso   1.00
H976   H     0.56930   0.48403   0.12811   0.00000  Uiso   1.00
H977   H     0.59840   0.46355   0.62574   0.00000  Uiso   1.00
H978   H     0.59012   0.43330   0.58529   0.00000  Uiso   1.00
H979   H     0.63461   0.45343   0.59154   0.00000  Uiso   1.00
H980   H     0.64257   0.20706   0.29771   0.00000  Uiso   1.00
H981   H     0.66395   0.17699   0.33281   0.00000  Uiso   1.00
H982   H     0.59930   0.22801   0.34992   0.00000  Uiso   1.00
H983   H     0.62262   0.19942   0.38447   0.00000  Uiso   1.00
H984   H     0.68069   0.23402   0.37194   0.00000  Uiso   1.00
H985   H     0.64441   0.26348   0.38843   0.00000  Uiso   1.00
H986   H     0.65671   0.26287   0.33765   0.00000  Uiso   1.00
H987   H     0.60558   0.01343   0.11151   0.00000  Uiso   1.00
H988   H     0.93411   0.32697   0.64797   0.00000  Uiso   1.00
H989   H     0.94075   0.36237   0.68283   0.00000  Uiso   1.00
H990   H     0.88802   0.36632   0.61259   0.00000  Uiso   1.00
H991   H     0.89791   0.40270   0.64631   0.00000  Uiso   1.00
H992   H     0.96343   0.40184   0.62567   0.00000  Uiso   1.00
H993   H     0.93317   0.41008   0.58525   0.00000  Uiso   1.00
H994   H     0.95339   0.36562   0.59149   0.00000  Uiso   1.00
H995   H     0.70784   0.36156   0.30378   0.00000  Uiso   1.00
H996   H     0.67505   0.33807   0.33428   0.00000  Uiso   1.00
H997   H     0.71990   0.40490   0.35966   0.00000  Uiso   1.00
H998   H     0.59337   0.01289   0.16231   0.00000  Uiso   1.00
H999   H     0.68936   0.37843   0.38946   0.00000  Uiso   1.00
H1000  H     0.76004   0.35123   0.35035   0.00000  Uiso   1.00
H1001  H     0.72925   0.32315   0.37873   0.00000  Uiso   1.00
H1002  H     0.75340   0.36045   0.40133   0.00000  Uiso   1.00
H1003  H     0.82699   0.06598   0.64799   0.00000  Uiso   1.00
H1004  H     0.86236   0.05928   0.68283   0.00000  Uiso   1.00
H1005  H     0.86638   0.11207   0.61258   0.00000  Uiso   1.00
H1006  H     0.90273   0.10214   0.64629   0.00000  Uiso   1.00
H1007  H     0.90183   0.03661   0.62567   0.00000  Uiso   1.00
H1008  H     0.91012   0.06689   0.58524   0.00000  Uiso   1.00
H1009  H     0.81590   0.07696   0.85203   0.00000  Uiso   1.00
H1010  H     0.86565   0.04669   0.59150   0.00000  Uiso   1.00
H1011  H     0.69377   0.38942   0.09904   0.00000  Uiso   1.00
H1012  H     0.81775   0.39626   0.90145   0.00000  Uiso   1.00
H1013  H     0.61110   0.19394   0.09817   0.00000  Uiso   1.00
H1014  H     0.60410   0.31735   0.90119   0.00000  Uiso   1.00
H1015  H     0.80259   0.11285   0.09706   0.00000  Uiso   1.00
H1016  H     0.68199   0.10369   0.90107   0.00000  Uiso   1.00
H1017  H     0.88908   0.30536   0.09831   0.00000  Uiso   1.00
H1018  H     0.89610   0.18246   0.90138   0.00000  Uiso   1.00
H1019  H     0.93222   0.14628   0.59856   0.00000  Uiso   1.00
H1020  H     0.80925   0.11236   0.81718   0.00000  Uiso   1.00
H1021  H     0.55625   0.13942   0.40096   0.00000  Uiso   1.00
H1022  H     0.85390   0.43246   0.59862   0.00000  Uiso   1.00
H1023  H     0.86092   0.05535   0.40169   0.00000  Uiso   1.00
H1024  H     0.56803   0.35368   0.59893   0.00000  Uiso   1.00
H1025  H     0.94737   0.36282   0.40293   0.00000  Uiso   1.00
H1026  H     0.64590   0.06736   0.59881   0.00000  Uiso   1.00
H1027  H     0.63889   0.44394   0.40184   0.00000  Uiso   1.00
H1028  H     0.86199   0.11631   0.88741   0.00000  Uiso   1.00
H1029  H     0.85210   0.15270   0.85369   0.00000  Uiso   1.00
H1030  H     0.78658   0.15183   0.87434   0.00000  Uiso   1.00
H1031  H     0.81684   0.16007   0.91476   0.00000  Uiso   1.00
H1032  H     0.55396   0.22718   0.02538   0.00000  Uiso   1.00
H1033  H     0.79662   0.11561   0.90852   0.00000  Uiso   1.00
H1034  H     0.54216   0.11156   0.19623   0.00000  Uiso   1.00
H1035  H     0.57495   0.08807   0.16572   0.00000  Uiso   1.00
H1036  H     0.53010   0.15490   0.14034   0.00000  Uiso   1.00
H1037  H     0.56064   0.12843   0.11055   0.00000  Uiso   1.00
H1038  H     0.98996   0.10123   0.14966   0.00000  Uiso   1.00
H1039  H     0.52074   0.07315   0.12128   0.00000  Uiso   1.00
H1040  H     0.99659   0.11045   0.09868   0.00000  Uiso   1.00
H1041  H     0.92300   0.31597   0.85201   0.00000  Uiso   1.00
H1042  H     0.88763   0.30928   0.81716   0.00000  Uiso   1.00
H1043  H     0.55140   0.27777   0.97465   0.00000  Uiso   1.00
H1044  H     0.88361   0.36207   0.88742   0.00000  Uiso   1.00
H1045  H     0.84726   0.35214   0.85370   0.00000  Uiso   1.00
H1046  H     0.84816   0.28661   0.87432   0.00000  Uiso   1.00
H1047  H     0.83987   0.31689   0.91475   0.00000  Uiso   1.00
H1048  H     0.88434   0.29669   0.90850   0.00000  Uiso   1.00
H1049  H     0.88055   0.02251   0.17887   0.00000  Uiso   1.00
H1050  H     0.89588   0.03814   0.22517   0.00000  Uiso   1.00
H1051  H     0.92976   0.06165   0.14645   0.00000  Uiso   1.00
H1052  H     0.94725   0.07104   0.19456   0.00000  Uiso   1.00
H1053  H     0.95582   0.00418   0.20607   0.00000  Uiso   1.00
H1054  H     0.77163   0.05402   0.02518   0.00000  Uiso   1.00
H1055  H     0.98094   0.02009   0.16424   0.00000  Uiso   1.00
H1056  H     0.93920   0.49491   0.15747   0.00000  Uiso   1.00
H1057  H     0.68397   0.42304   0.85204   0.00000  Uiso   1.00
H1058  H     0.69072   0.38771   0.81711   0.00000  Uiso   1.00
H1059  H     0.63791   0.38354   0.88736   0.00000  Uiso   1.00
H1060  H     0.64791   0.34724   0.85357   0.00000  Uiso   1.00
H1061  H     0.71340   0.34819   0.87418   0.00000  Uiso   1.00
H1062  H     0.68311   0.33982   0.91460   0.00000  Uiso   1.00
H1063  H     0.70326   0.38433   0.90844   0.00000  Uiso   1.00
H1064  H     0.96051   0.39661   0.21455   0.00000  Uiso   1.00
H1065  H     0.72137   0.05104   0.97464   0.00000  Uiso   1.00
H1066  H     0.93419   0.42203   0.17901   0.00000  Uiso   1.00
H1067  H     0.98768   0.35955   0.16054   0.00000  Uiso   1.00
H1068  H     0.96241   0.38606   0.12560   0.00000  Uiso   1.00
H1069  H     0.99436   0.44272   0.14819   0.00000  Uiso   1.00
H1070  H     0.52618   0.40839   0.13206   0.00000  Uiso   1.00
H1071  H     0.51952   0.41601   0.18343   0.00000  Uiso   1.00
H1072  H     0.57683   0.18407   0.85199   0.00000  Uiso   1.00
H1073  H     0.61224   0.19078   0.81713   0.00000  Uiso   1.00
H1074  H     0.61624   0.13804   0.88741   0.00000  Uiso   1.00
H1075  H     0.65262   0.14801   0.85368   0.00000  Uiso   1.00
H1076  H     0.94637   0.27232   0.02537   0.00000  Uiso   1.00
H1077  H     0.65160   0.21355   0.87426   0.00000  Uiso   1.00
H1078  H     0.65988   0.18329   0.91470   0.00000  Uiso   1.00
H1079  H     0.61539   0.20342   0.90846   0.00000  Uiso   1.00
H1080  H     0.60565   0.04137   0.79308   0.00000  Uiso   1.00
H1081  H     0.58289   0.06954   0.82907   0.00000  Uiso   1.00
H1082  H     0.64755   0.01826   0.84556   0.00000  Uiso   1.00
H1083  H     0.62261   0.04468   0.88084   0.00000  Uiso   1.00
H1084  H     0.56563   0.01004   0.86432   0.00000  Uiso   1.00
H1085  H     0.60184   0.48002   0.87977   0.00000  Uiso   1.00
H1086  H     0.59091   0.48368   0.82880   0.00000  Uiso   1.00
H1087  H     0.94898   0.22180   0.97478   0.00000  Uiso   1.00
H1088  H     0.82133   0.42664   0.14610   0.00000  Uiso   1.00
H1089  H     0.81236   0.39069   0.17967   0.00000  Uiso   1.00
H1090  H     0.86934   0.38783   0.11308   0.00000  Uiso   1.00
H1091  H     0.85752   0.35086   0.14532   0.00000  Uiso   1.00
H1092  H     0.79335   0.35208   0.12047   0.00000  Uiso   1.00
H1093  H     0.82591   0.34462   0.08191   0.00000  Uiso   1.00
H1094  H     0.80529   0.38894   0.08779   0.00000  Uiso   1.00
H1095  H     0.54138   0.39436   0.79310   0.00000  Uiso   1.00
H1096  H     0.56953   0.41707   0.82910   0.00000  Uiso   1.00
H1097  H     0.51820   0.35240   0.84554   0.00000  Uiso   1.00
H1098  H     0.97218   0.19886   0.52521   0.00000  Uiso   1.00
H1099  H     0.54462   0.37726   0.88085   0.00000  Uiso   1.00
H1100  H     0.98370   0.40913   0.82886   0.00000  Uiso   1.00
H1101  H     0.51006   0.43433   0.86440   0.00000  Uiso   1.00
H1102  H     0.98000   0.39811   0.87982   0.00000  Uiso   1.00
H1103  H     0.92689   0.17813   0.14768   0.00000  Uiso   1.00
H1104  H     0.88874   0.18469   0.17911   0.00000  Uiso   1.00
H1105  H     0.89327   0.12794   0.11246   0.00000  Uiso   1.00
H1106  H     0.85404   0.13663   0.14273   0.00000  Uiso   1.00
H1107  H     0.85143   0.20090   0.11821   0.00000  Uiso   1.00
H1108  H     0.84856   0.16822   0.07909   0.00000  Uiso   1.00
O1109  O     0.75000   0.00000   0.25000   0.00000  Uiso   1.00
O1110  O     0.75000   0.46964   0.66317   0.00000  Uiso   1.00
O1111  O     0.91776   0.19096   0.91725   0.00000  Uiso   1.00
O1112  O     0.97877   0.17809   0.63358   0.00000  Uiso   1.00
O1113  O     0.94090   0.16787   0.58267   0.00000  Uiso   1.00
O1114  O     0.51449   0.17691   0.36548   0.00000  Uiso   1.00
O1115  O     0.54970   0.16162   0.41708   0.00000  Uiso   1.00
O1116  O     0.82195   0.47907   0.63349   0.00000  Uiso   1.00
O1117  O     0.83224   0.44096   0.58275   0.00000  Uiso   1.00
O1118  O     0.82296   0.01452   0.36558   0.00000  Uiso   1.00
O1119  O     0.83857   0.04899   0.41766   0.00000  Uiso   1.00
O1120  O     0.52115   0.32195   0.63361   0.00000  Uiso   1.00
O1121  O     0.96964   0.25000   0.33683   0.00000  Uiso   1.00
O1122  O     0.55950   0.33206   0.58301   0.00000  Uiso   1.00
O1123  O     0.98415   0.32250   0.36490   0.00000  Uiso   1.00
O1124  O     0.95366   0.34045   0.41889   0.00000  Uiso   1.00
O1125  O     0.67803   0.02098   0.63378   0.00000  Uiso   1.00
O1126  O     0.66752   0.05881   0.58288   0.00000  Uiso   1.00
O1127  O     0.67732   0.48385   0.36510   0.00000  Uiso   1.00
O1128  O     0.66096   0.45083   0.41798   0.00000  Uiso   1.00
O1129  O     0.53036   0.25000   0.66317   0.00000  Uiso   1.00
O1130  O     0.50000   0.21964   0.83683   0.00000  Uiso   1.00
O1131  O     0.50000   0.28036   0.16317   0.00000  Uiso   1.00
O1132  O     0.78036   0.00000   0.83683   0.00000  Uiso   1.00
O1133  O     0.71964   0.00000   0.16317   0.00000  Uiso   1.00
O1134  O     0.50000   0.28036   0.83683   0.00000  Uiso   1.00
O1135  O     0.50000   0.21964   0.16317   0.00000  Uiso   1.00
O1136  O     0.71964   0.00000   0.83683   0.00000  Uiso   1.00
O1137  O     0.75000   0.00000   0.75000   0.00000  Uiso   1.00
O1138  O     0.78036   0.00000   0.16317   0.00000  Uiso   1.00
O1139  O     0.70726   0.07307   0.27282   0.00000  Uiso   1.00
O1140  O     0.79275   0.42693   0.72718   0.00000  Uiso   1.00
O1141  O     0.92693   0.20726   0.27282   0.00000  Uiso   1.00
O1142  O     0.57307   0.29275   0.72718   0.00000  Uiso   1.00
O1143  O     0.79275   0.42693   0.27282   0.00000  Uiso   1.00
O1144  O     0.70726   0.07307   0.72718   0.00000  Uiso   1.00
O1145  O     0.57307   0.29275   0.27282   0.00000  Uiso   1.00
O1146  O     0.92693   0.20726   0.72718   0.00000  Uiso   1.00
O1147  O     0.70726   0.42693   0.72718   0.00000  Uiso   1.00
O1148  O     0.50000   0.25000   0.25000   0.00000  Uiso   1.00
O1149  O     0.79275   0.07307   0.27282   0.00000  Uiso   1.00
O1150  O     0.92693   0.29275   0.72718   0.00000  Uiso   1.00
O1151  O     0.57307   0.20726   0.27282   0.00000  Uiso   1.00
O1152  O     0.79275   0.07307   0.72718   0.00000  Uiso   1.00
O1153  O     0.70726   0.42693   0.27282   0.00000  Uiso   1.00
O1154  O     0.57307   0.20726   0.72718   0.00000  Uiso   1.00
O1155  O     0.92693   0.29275   0.27282   0.00000  Uiso   1.00
O1156  O     0.95726   0.32307   0.77282   0.00000  Uiso   1.00
O1157  O     0.54275   0.17693   0.22718   0.00000  Uiso   1.00
O1158  O     0.67693   0.45726   0.77282   0.00000  Uiso   1.00
O1159  O     0.50000   0.25000   0.75000   0.00000  Uiso   1.00
O1160  O     0.82307   0.04275   0.22718   0.00000  Uiso   1.00
O1161  O     0.54275   0.17693   0.77282   0.00000  Uiso   1.00
O1162  O     0.95726   0.32307   0.22718   0.00000  Uiso   1.00
O1163  O     0.82307   0.04275   0.77282   0.00000  Uiso   1.00
O1164  O     0.67693   0.45726   0.22718   0.00000  Uiso   1.00
O1165  O     0.95726   0.17693   0.22718   0.00000  Uiso   1.00
O1166  O     0.54275   0.32307   0.77282   0.00000  Uiso   1.00
O1167  O     0.67693   0.04275   0.22718   0.00000  Uiso   1.00
O1168  O     0.82307   0.45726   0.77282   0.00000  Uiso   1.00
O1169  O     0.54275   0.32307   0.22718   0.00000  Uiso   1.00
O1170  O     0.75000   0.46964   0.33683   0.00000  Uiso   1.00
O1171  O     0.95726   0.17693   0.77282   0.00000  Uiso   1.00
O1172  O     0.82307   0.45726   0.22718   0.00000  Uiso   1.00
O1173  O     0.67693   0.04275   0.77282   0.00000  Uiso   1.00
O1174  O     0.63942   0.41374   0.18187   0.00000  Uiso   1.00
O1175  O     0.86103   0.08614   0.81846   0.00000  Uiso   1.00
O1176  O     0.58844   0.14151   0.18104   0.00000  Uiso   1.00
O1177  O     0.91381   0.36109   0.81846   0.00000  Uiso   1.00
O1178  O     0.87167   0.07700   0.18717   0.00000  Uiso   1.00
O1179  O     0.63889   0.41384   0.81848   0.00000  Uiso   1.00
O1180  O     0.92002   0.36735   0.18503   0.00000  Uiso   1.00
O1181  O     0.75000   0.03036   0.66317   0.00000  Uiso   1.00
O1182  O     0.58612   0.13894   0.81848   0.00000  Uiso   1.00
O1183  O     0.63662   0.08381   0.81708   0.00000  Uiso   1.00
O1184  O     0.86413   0.41671   0.18270   0.00000  Uiso   1.00
O1185  O     0.58377   0.36332   0.81708   0.00000  Uiso   1.00
O1186  O     0.91789   0.13464   0.18368   0.00000  Uiso   1.00
O1187  O     0.86330   0.41622   0.81707   0.00000  Uiso   1.00
O1188  O     0.64240   0.08935   0.18042   0.00000  Uiso   1.00
O1189  O     0.91617   0.13664   0.81707   0.00000  Uiso   1.00
O1190  O     0.58871   0.35851   0.18069   0.00000  Uiso   1.00
O1191  O     0.88670   0.16622   0.68293   0.00000  Uiso   1.00
O1192  O     0.53036   0.25000   0.33683   0.00000  Uiso   1.00
O1193  O     0.60760   0.33935   0.31958   0.00000  Uiso   1.00
O1194  O     0.83383   0.38664   0.68293   0.00000  Uiso   1.00
O1195  O     0.66129   0.10851   0.31931   0.00000  Uiso   1.00
O1196  O     0.61337   0.33381   0.68291   0.00000  Uiso   1.00
O1197  O     0.88587   0.16671   0.31730   0.00000  Uiso   1.00
O1198  O     0.66623   0.11332   0.68292   0.00000  Uiso   1.00
O1199  O     0.83212   0.38465   0.31632   0.00000  Uiso   1.00
O1200  O     0.87834   0.32701   0.31284   0.00000  Uiso   1.00
O1201  O     0.61111   0.16384   0.68152   0.00000  Uiso   1.00
O1202  O     0.82998   0.11735   0.31497   0.00000  Uiso   1.00
O1203  O     0.96964   0.25000   0.66317   0.00000  Uiso   1.00
O1204  O     0.66388   0.38894   0.68152   0.00000  Uiso   1.00
O1205  O     0.61058   0.16374   0.31812   0.00000  Uiso   1.00
O1206  O     0.88898   0.33615   0.68153   0.00000  Uiso   1.00
O1207  O     0.66156   0.39151   0.31896   0.00000  Uiso   1.00
O1208  O     0.83619   0.11110   0.68154   0.00000  Uiso   1.00
O1209  O     0.73553   0.42691   0.13452   0.00000  Uiso   1.00
O1210  O     0.70031   0.41162   0.08292   0.00000  Uiso   1.00
O1211  O     0.77122   0.42809   0.86642   0.00000  Uiso   1.00
O1212  O     0.80909   0.41786   0.91733   0.00000  Uiso   1.00
O1213  O     0.57268   0.23385   0.13490   0.00000  Uiso   1.00
O1214  O     0.75000   0.03036   0.33683   0.00000  Uiso   1.00
O1215  O     0.58904   0.20083   0.08202   0.00000  Uiso   1.00
O1216  O     0.57197   0.27098   0.86622   0.00000  Uiso   1.00
O1217  O     0.58248   0.30880   0.91713   0.00000  Uiso   1.00
O1218  O     0.76586   0.07249   0.13511   0.00000  Uiso   1.00
O1219  O     0.79630   0.09048   0.08110   0.00000  Uiso   1.00
O1220  O     0.72886   0.07195   0.86639   0.00000  Uiso   1.00
O1221  O     0.69052   0.08207   0.91699   0.00000  Uiso   1.00
O1222  O     0.92704   0.26453   0.13442   0.00000  Uiso   1.00
O1223  O     0.91143   0.29900   0.08234   0.00000  Uiso   1.00
O1224  O     0.92805   0.22908   0.86651   0.00000  Uiso   1.00
Zn1225 Zn    0.70660   0.00000   0.21760   0.00000  Uiso   1.00
Zn1226 Zn    0.54340   0.25000   0.28240   0.00000  Uiso   1.00
Zn1227 Zn    0.75000   0.45660   0.71760   0.00000  Uiso   1.00
Zn1228 Zn    0.75000   0.04340   0.28240   0.00000  Uiso   1.00
Zn1229 Zn    0.54340   0.25000   0.71760   0.00000  Uiso   1.00
Zn1230 Zn    0.95660   0.25000   0.28240   0.00000  Uiso   1.00
Zn1231 Zn    0.75000   0.04340   0.71760   0.00000  Uiso   1.00
Zn1232 Zn    0.75000   0.45660   0.28240   0.00000  Uiso   1.00
Zn1233 Zn    0.79340   0.00000   0.78240   0.00000  Uiso   1.00
Zn1234 Zn    0.50000   0.20660   0.21760   0.00000  Uiso   1.00
Zn1235 Zn    0.50000   0.29340   0.78240   0.00000  Uiso   1.00
Zn1236 Zn    0.79340   0.00000   0.21760   0.00000  Uiso   1.00
Zn1237 Zn    0.70660   0.00000   0.78240   0.00000  Uiso   1.00
Zn1238 Zn    0.50000   0.29340   0.21760   0.00000  Uiso   1.00
Zn1239 Zn    0.50000   0.20660   0.78240   0.00000  Uiso   1.00
Zn1240 Zn    0.95660   0.25000   0.71760   0.00000  Uiso   1.00
C1241  C     0.23705   0.96953   0.04169   0.00000  Uiso   1.00
C1242  C     0.01295   0.71953   0.45831   0.00000  Uiso   1.00
C1243  C     0.34821   0.90176   0.75000   0.00000  Uiso   1.00
C1244  C     0.40228   0.65171   0.25030   0.00000  Uiso   1.00
C1245  C     0.09823   0.84822   0.75000   0.00000  Uiso   1.00
C1246  C     0.34772   0.90171   0.24970   0.00000  Uiso   1.00
C1247  C     0.15177   0.59823   0.75000   0.00000  Uiso   1.00
C1248  C     0.09802   0.65199   0.75000   0.00000  Uiso   1.00
C1249  C     0.40091   0.84740   0.24938   0.00000  Uiso   1.00
C1250  C     0.15198   0.90199   0.75000   0.00000  Uiso   1.00
C1251  C     0.34909   0.59739   0.25062   0.00000  Uiso   1.00
C1252  C     0.40200   0.84802   0.75000   0.00000  Uiso   1.00
C1253  C     0.27876   0.98394   0.54143   0.00000  Uiso   1.00
C1254  C     0.09834   0.65191   0.24988   0.00000  Uiso   1.00
C1255  C     0.34800   0.59802   0.75000   0.00000  Uiso   1.00
C1256  C     0.15166   0.90191   0.25012   0.00000  Uiso   1.00
C1257  C     0.24996   0.50007   0.10268   0.00000  Uiso   1.00
C1258  C     0.24991   0.99999   0.89742   0.00000  Uiso   1.00
C1259  C     0.00014   0.74989   0.10267   0.00000  Uiso   1.00
C1260  C     0.00006   0.74997   0.89742   0.00000  Uiso   1.00
C1261  C     0.00009   0.74999   0.60258   0.00000  Uiso   1.00
C1262  C     0.00004   0.75007   0.39732   0.00000  Uiso   1.00
C1263  C     0.24994   0.99997   0.60258   0.00000  Uiso   1.00
C1264  C     0.28025   0.51259   0.45842   0.00000  Uiso   1.00
C1265  C     0.24986   0.99989   0.39733   0.00000  Uiso   1.00
C1266  C     0.11209   0.94027   0.17567   0.00000  Uiso   1.00
C1267  C     0.12401   0.96548   0.14265   0.00000  Uiso   1.00
C1268  C     0.09624   0.99580   0.13581   0.00000  Uiso   1.00
C1269  C     0.32971   0.60018   0.83738   0.00000  Uiso   1.00
C1270  C     0.34070   0.62817   0.86821   0.00000  Uiso   1.00
C1271  C     0.30807   0.63956   0.89294   0.00000  Uiso   1.00
C1272  C     0.06198   0.61488   0.17188   0.00000  Uiso   1.00
C1273  C     0.04143   0.62718   0.13553   0.00000  Uiso   1.00
C1274  C     0.01028   0.60126   0.12574   0.00000  Uiso   1.00
C1275  C     0.01637   0.77881   0.54150   0.00000  Uiso   1.00
C1276  C     0.39979   0.82977   0.83737   0.00000  Uiso   1.00
C1277  C     0.37178   0.84075   0.86821   0.00000  Uiso   1.00
C1278  C     0.36040   0.80812   0.89293   0.00000  Uiso   1.00
C1279  C     0.39379   0.54588   0.19382   0.00000  Uiso   1.00
C1280  C     0.43196   0.55105   0.17665   0.00000  Uiso   1.00
C1281  C     0.45321   0.51527   0.17613   0.00000  Uiso   1.00
C1282  C     0.17022   0.89983   0.83735   0.00000  Uiso   1.00
C1283  C     0.15925   0.87176   0.86813   0.00000  Uiso   1.00
C1284  C     0.19187   0.86039   0.89282   0.00000  Uiso   1.00
C1285  C     0.44673   0.89512   0.18565   0.00000  Uiso   1.00
C1286  C     0.48786   0.78058   0.45850   0.00000  Uiso   1.00
C1287  C     0.47550   0.88676   0.15474   0.00000  Uiso   1.00
C1288  C     0.00572   0.91533   0.15469   0.00000  Uiso   1.00
C1289  C     0.10008   0.67029   0.83735   0.00000  Uiso   1.00
C1290  C     0.12806   0.65936   0.86819   0.00000  Uiso   1.00
C1291  C     0.13937   0.69202   0.89288   0.00000  Uiso   1.00
C1292  C     0.10930   0.55685   0.82078   0.00000  Uiso   1.00
C1293  C     0.12045   0.53002   0.85263   0.00000  Uiso   1.00
C1294  C     0.09290   0.99906   0.85655   0.00000  Uiso   1.00
C1295  C     0.33412   0.90312   0.16121   0.00000  Uiso   1.00
C1296  C     0.34697   0.87565   0.13060   0.00000  Uiso   1.00
C1297  C     0.22091   0.51569   0.54150   0.00000  Uiso   1.00
C1298  C     0.31586   0.86471   0.10357   0.00000  Uiso   1.00
C1299  C     0.05683   0.89067   0.82080   0.00000  Uiso   1.00
C1300  C     0.02998   0.87949   0.85265   0.00000  Uiso   1.00
C1301  C     0.49906   0.90707   0.85660   0.00000  Uiso   1.00
C1302  C     0.40352   0.66381   0.16147   0.00000  Uiso   1.00
C1303  C     0.37860   0.64919   0.12940   0.00000  Uiso   1.00
C1304  C     0.36664   0.67960   0.10194   0.00000  Uiso   1.00
C1305  C     0.39065   0.94315   0.82076   0.00000  Uiso   1.00
C1306  C     0.37945   0.97003   0.85258   0.00000  Uiso   1.00
C1307  C     0.40707   0.50091   0.85655   0.00000  Uiso   1.00
C1308  C     0.21941   0.98700   0.45840   0.00000  Uiso   1.00
C1309  C     0.17440   0.60441   0.16388   0.00000  Uiso   1.00
C1310  C     0.16461   0.63374   0.13397   0.00000  Uiso   1.00
C1311  C     0.19810   0.64590   0.11104   0.00000  Uiso   1.00
C1312  C     0.44311   0.60929   0.82075   0.00000  Uiso   1.00
C1313  C     0.46991   0.62045   0.85261   0.00000  Uiso   1.00
C1314  C     0.00084   0.59288   0.85653   0.00000  Uiso   1.00
C1315  C     0.10364   0.82674   0.16351   0.00000  Uiso   1.00
C1316  C     0.13288   0.83696   0.13367   0.00000  Uiso   1.00
C1317  C     0.14526   0.80371   0.11047   0.00000  Uiso   1.00
C1318  C     0.35936   0.69316   0.67925   0.00000  Uiso   1.00
C1319  C     0.23724   0.96889   0.08231   0.00000  Uiso   1.00
C1320  C     0.37054   0.72000   0.64740   0.00000  Uiso   1.00
C1321  C     0.34297   0.75094   0.64348   0.00000  Uiso   1.00
C1322  C     0.07559   0.85442   0.33612   0.00000  Uiso   1.00
C1323  C     0.08538   0.88374   0.36603   0.00000  Uiso   1.00
C1324  C     0.05190   0.89591   0.38896   0.00000  Uiso   1.00
C1325  C     0.30689   0.85930   0.67925   0.00000  Uiso   1.00
C1326  C     0.28009   0.87046   0.64739   0.00000  Uiso   1.00
C1327  C     0.24917   0.84288   0.64347   0.00000  Uiso   1.00
C1328  C     0.14636   0.57674   0.33649   0.00000  Uiso   1.00
C1329  C     0.11712   0.58696   0.36634   0.00000  Uiso   1.00
C1330  C     0.26579   0.97041   0.91796   0.00000  Uiso   1.00
C1331  C     0.10474   0.55372   0.38953   0.00000  Uiso   1.00
C1332  C     0.14069   0.80685   0.67922   0.00000  Uiso   1.00
C1333  C     0.12957   0.78008   0.64729   0.00000  Uiso   1.00
C1334  C     0.15710   0.74910   0.64338   0.00000  Uiso   1.00
C1335  C     0.41588   0.65312   0.33879   0.00000  Uiso   1.00
C1336  C     0.40303   0.62566   0.36940   0.00000  Uiso   1.00
C1337  C     0.43414   0.61471   0.39644   0.00000  Uiso   1.00
C1338  C     0.19317   0.64067   0.67921   0.00000  Uiso   1.00
C1339  C     0.22002   0.62949   0.64735   0.00000  Uiso   1.00
C1340  C     0.25095   0.65707   0.64340   0.00000  Uiso   1.00
C1341  C     0.03126   0.73702   0.08223   0.00000  Uiso   1.00
C1342  C     0.34648   0.91383   0.33853   0.00000  Uiso   1.00
C1343  C     0.37146   0.89922   0.37056   0.00000  Uiso   1.00
C1344  C     0.38341   0.92964   0.39802   0.00000  Uiso   1.00
C1345  C     0.35621   0.79588   0.30619   0.00000  Uiso   1.00
C1346  C     0.31804   0.80106   0.32336   0.00000  Uiso   1.00
C1347  C     0.29680   0.76528   0.32389   0.00000  Uiso   1.00
C1348  C     0.07978   0.64982   0.66265   0.00000  Uiso   1.00
C1349  C     0.09075   0.62176   0.63187   0.00000  Uiso   1.00
C1350  C     0.05813   0.61038   0.60719   0.00000  Uiso   1.00
C1351  C     0.30327   0.64512   0.31435   0.00000  Uiso   1.00
C1352  C     0.26564   0.97109   0.95858   0.00000  Uiso   1.00
C1353  C     0.02973   0.76577   0.91788   0.00000  Uiso   1.00
C1354  C     0.27450   0.63676   0.34525   0.00000  Uiso   1.00
C1355  C     0.24429   0.66534   0.34532   0.00000  Uiso   1.00
C1356  C     0.14992   0.92030   0.66265   0.00000  Uiso   1.00
C1357  C     0.12194   0.90937   0.63181   0.00000  Uiso   1.00
C1358  C     0.11064   0.94203   0.60712   0.00000  Uiso   1.00
C1359  C     0.13793   0.69027   0.32433   0.00000  Uiso   1.00
C1360  C     0.12598   0.71552   0.35731   0.00000  Uiso   1.00
C1361  C     0.15377   0.74581   0.36417   0.00000  Uiso   1.00
C1362  C     0.42030   0.85018   0.66262   0.00000  Uiso   1.00
C1363  C     0.40931   0.87817   0.63179   0.00000  Uiso   1.00
C1364  C     0.26231   0.53134   0.08214   0.00000  Uiso   1.00
C1365  C     0.44194   0.88957   0.60707   0.00000  Uiso   1.00
C1366  C     0.18802   0.86489   0.32812   0.00000  Uiso   1.00
C1367  C     0.20857   0.87718   0.36447   0.00000  Uiso   1.00
C1368  C     0.23972   0.85126   0.37426   0.00000  Uiso   1.00
C1369  C     0.35020   0.57977   0.66263   0.00000  Uiso   1.00
C1370  C     0.37821   0.59075   0.63179   0.00000  Uiso   1.00
C1371  C     0.38959   0.55812   0.60707   0.00000  Uiso   1.00
C1372  C     0.22450   0.93498   0.10208   0.00000  Uiso   1.00
C1373  C     0.28198   0.93794   0.89840   0.00000  Uiso   1.00
C1374  C     0.06513   0.72399   0.10190   0.00000  Uiso   1.00
C1375  C     0.23383   0.52954   0.91788   0.00000  Uiso   1.00
C1376  C     0.06224   0.78179   0.89823   0.00000  Uiso   1.00
C1377  C     0.27481   0.56553   0.10165   0.00000  Uiso   1.00
C1378  C     0.21781   0.56204   0.89825   0.00000  Uiso   1.00
C1379  C     0.43503   0.77527   0.10184   0.00000  Uiso   1.00
C1380  C     0.43791   0.71810   0.89841   0.00000  Uiso   1.00
C1381  C     0.46801   0.68794   0.60160   0.00000  Uiso   1.00
C1382  C     0.02551   0.68498   0.39792   0.00000  Uiso   1.00
C1383  C     0.31209   0.96810   0.60159   0.00000  Uiso   1.00
C1384  C     0.31498   0.52527   0.39817   0.00000  Uiso   1.00
C1385  C     0.03220   0.81203   0.60175   0.00000  Uiso   1.00
C1386  C     0.46903   0.76258   0.08220   0.00000  Uiso   1.00
C1387  C     0.47518   0.81552   0.39835   0.00000  Uiso   1.00
C1388  C     0.18776   0.53179   0.60177   0.00000  Uiso   1.00
C1389  C     0.18487   0.97399   0.39810   0.00000  Uiso   1.00
C1390  C     0.47047   0.73405   0.91796   0.00000  Uiso   1.00
C1391  C     0.48420   0.72041   0.58204   0.00000  Uiso   1.00
C1392  C     0.01277   0.71889   0.41769   0.00000  Uiso   1.00
C1393  C     0.27953   0.98405   0.58204   0.00000  Uiso   1.00
C1394  C     0.28097   0.51258   0.41780   0.00000  Uiso   1.00
C1395  C     0.01617   0.77954   0.58211   0.00000  Uiso   1.00
C1396  C     0.03059   0.73699   0.04160   0.00000  Uiso   1.00
C1397  C     0.48768   0.78133   0.41786   0.00000  Uiso   1.00
C1398  C     0.22027   0.51577   0.58212   0.00000  Uiso   1.00
C1399  C     0.21874   0.98702   0.41777   0.00000  Uiso   1.00
C1400  C     0.24957   0.50002   0.02138   0.00000  Uiso   1.00
C1401  C     0.24957   0.99994   0.97877   0.00000  Uiso   1.00
C1402  C     0.00019   0.74980   0.02137   0.00000  Uiso   1.00
C1403  C     0.00019   0.74978   0.97876   0.00000  Uiso   1.00
C1404  C     0.00043   0.74994   0.52123   0.00000  Uiso   1.00
C1405  C     0.00043   0.75002   0.47862   0.00000  Uiso   1.00
C1406  C     0.24981   0.99978   0.52124   0.00000  Uiso   1.00
C1407  C     0.02910   0.76569   0.95850   0.00000  Uiso   1.00
C1408  C     0.24981   0.99980   0.47863   0.00000  Uiso   1.00
C1409  C     0.24994   0.99998   0.35503   0.00000  Uiso   1.00
C1410  C     0.24999   0.50000   0.64494   0.00000  Uiso   1.00
C1411  C    -0.00000   0.75003   0.35502   0.00000  Uiso   1.00
C1412  C     0.00002   0.74999   0.64494   0.00000  Uiso   1.00
C1413  C     0.00001   0.75000   0.85506   0.00000  Uiso   1.00
C1414  C     0.00006   0.74998   0.14497   0.00000  Uiso   1.00
C1415  C     0.24998   0.99999   0.85506   0.00000  Uiso   1.00
C1416  C     0.25000   0.50003   0.14498   0.00000  Uiso   1.00
C1417  C     0.18000   0.57002   0.25001   0.00000  Uiso   1.00
C1418  C     0.26214   0.53059   0.04150   0.00000  Uiso   1.00
C1419  C     0.32009   0.92990   0.75000   0.00000  Uiso   1.00
C1420  C     0.43000   0.67998   0.25002   0.00000  Uiso   1.00
C1421  C     0.07010   0.82009   0.75000   0.00000  Uiso   1.00
C1422  C     0.32000   0.92998   0.24999   0.00000  Uiso   1.00
C1423  C     0.17990   0.57009   0.75000   0.00000  Uiso   1.00
C1424  C     0.07000   0.82002   0.24999   0.00000  Uiso   1.00
C1425  C     0.42992   0.67990   0.75000   0.00000  Uiso   1.00
C1426  C     0.17999   0.92999   0.75000   0.00000  Uiso   1.00
C1427  C     0.32031   0.56990   0.25019   0.00000  Uiso   1.00
C1428  C     0.43000   0.82001   0.75000   0.00000  Uiso   1.00
C1429  C     0.23364   0.52881   0.95850   0.00000  Uiso   1.00
C1430  C     0.07013   0.67997   0.24993   0.00000  Uiso   1.00
C1431  C     0.32000   0.57001   0.75000   0.00000  Uiso   1.00
C1432  C     0.17987   0.92997   0.25007   0.00000  Uiso   1.00
C1433  C     0.07001   0.67999   0.75000   0.00000  Uiso   1.00
C1434  C     0.42969   0.81990   0.24981   0.00000  Uiso   1.00
C1435  C     0.13171   0.89497   0.21587   0.00000  Uiso   1.00
C1436  C     0.36771   0.60520   0.78436   0.00000  Uiso   1.00
C1437  C     0.10556   0.63219   0.21553   0.00000  Uiso   1.00
C1438  C     0.39478   0.86775   0.78436   0.00000  Uiso   1.00
C1439  C     0.37349   0.60031   0.21886   0.00000  Uiso   1.00
C1440  C     0.46975   0.76259   0.04158   0.00000  Uiso   1.00
C1441  C     0.13225   0.89479   0.78436   0.00000  Uiso   1.00
C1442  C     0.39769   0.87117   0.21727   0.00000  Uiso   1.00
C1443  C     0.10519   0.63227   0.78437   0.00000  Uiso   1.00
C1444  C     0.13032   0.60377   0.78356   0.00000  Uiso   1.00
C1445  C     0.36915   0.89619   0.21614   0.00000  Uiso   1.00
C1446  C     0.10375   0.86966   0.78356   0.00000  Uiso   1.00
C1447  C     0.39742   0.62962   0.21717   0.00000  Uiso   1.00
C1448  C     0.36964   0.89624   0.78355   0.00000  Uiso   1.00
C1449  C     0.13395   0.60684   0.21503   0.00000  Uiso   1.00
C1450  C     0.39622   0.63032   0.78355   0.00000  Uiso   1.00
C1451  C     0.47124   0.73394   0.95857   0.00000  Uiso   1.00
C1452  C     0.10654   0.86646   0.21521   0.00000  Uiso   1.00
C1453  C     0.38036   0.64624   0.71645   0.00000  Uiso   1.00
C1454  C     0.11605   0.85684   0.28497   0.00000  Uiso   1.00
C1455  C     0.35378   0.88032   0.71645   0.00000  Uiso   1.00
C1456  C     0.14346   0.61646   0.28479   0.00000  Uiso   1.00
C1457  C     0.11968   0.85378   0.71644   0.00000  Uiso   1.00
C1458  C     0.38085   0.64619   0.28386   0.00000  Uiso   1.00
C1459  C     0.14625   0.61966   0.71644   0.00000  Uiso   1.00
C1460  C     0.35259   0.87962   0.28283   0.00000  Uiso   1.00
C1461  C     0.37652   0.85031   0.28115   0.00000  Uiso   1.00
C1462  C     0.48435   0.72109   0.54142   0.00000  Uiso   1.00
C1463  C     0.11776   0.64480   0.71564   0.00000  Uiso   1.00
C1464  C     0.35231   0.62117   0.28273   0.00000  Uiso   1.00
C1465  C     0.14481   0.88227   0.71563   0.00000  Uiso   1.00
C1466  C     0.11829   0.64497   0.28413   0.00000  Uiso   1.00
C1467  C     0.38229   0.85520   0.71564   0.00000  Uiso   1.00
C1468  C     0.14444   0.88219   0.28448   0.00000  Uiso   1.00
C1469  C     0.35522   0.61775   0.71564   0.00000  Uiso   1.00
C1470  C     0.09797   0.84808   0.25003   0.00000  Uiso   1.00
C1471  C     0.40179   0.65176   0.75000   0.00000  Uiso   1.00
C1472  C     0.15203   0.59808   0.24997   0.00000  Uiso   1.00
H1473  H     0.22738   0.94605   0.02557   0.00000  Uiso   1.00
H1474  H     0.02263   0.69605   0.47443   0.00000  Uiso   1.00
H1475  H     0.39073   0.69219   0.08766   0.00000  Uiso   1.00
H1476  H     0.39438   0.95860   0.79306   0.00000  Uiso   1.00
H1477  H     0.41702   0.93043   0.82910   0.00000  Uiso   1.00
H1478  H     0.35241   0.98185   0.84542   0.00000  Uiso   1.00
H1479  H     0.37714   0.95539   0.88078   0.00000  Uiso   1.00
H1480  H     0.43427   0.98986   0.86445   0.00000  Uiso   1.00
H1481  H     0.39807   0.52001   0.87970   0.00000  Uiso   1.00
H1482  H     0.40926   0.51623   0.82878   0.00000  Uiso   1.00
H1483  H     0.18899   0.58195   0.14877   0.00000  Uiso   1.00
H1484  H     0.19385   0.61573   0.18572   0.00000  Uiso   1.00
H1485  H     0.30102   0.97180   0.52522   0.00000  Uiso   1.00
H1486  H     0.14391   0.62286   0.11342   0.00000  Uiso   1.00
H1487  H     0.15288   0.65776   0.14913   0.00000  Uiso   1.00
H1488  H     0.21918   0.65692   0.13101   0.00000  Uiso   1.00
H1489  H     0.19023   0.66760   0.09014   0.00000  Uiso   1.00
H1490  H     0.20969   0.62262   0.09448   0.00000  Uiso   1.00
H1491  H     0.45860   0.60563   0.79305   0.00000  Uiso   1.00
H1492  H     0.43040   0.58289   0.82903   0.00000  Uiso   1.00
H1493  H     0.48169   0.64755   0.84553   0.00000  Uiso   1.00
H1494  H     0.45523   0.62265   0.88081   0.00000  Uiso   1.00
H1495  H     0.01623   0.59085   0.82878   0.00000  Uiso   1.00
H1496  H     0.30364   0.52232   0.47463   0.00000  Uiso   1.00
H1497  H     0.48983   0.56561   0.86429   0.00000  Uiso   1.00
H1498  H     0.01986   0.60182   0.87975   0.00000  Uiso   1.00
H1499  H     0.08111   0.81244   0.14824   0.00000  Uiso   1.00
H1500  H     0.11496   0.80691   0.18497   0.00000  Uiso   1.00
H1501  H     0.12186   0.85775   0.11330   0.00000  Uiso   1.00
H1502  H     0.15681   0.84876   0.14891   0.00000  Uiso   1.00
H1503  H     0.15656   0.78262   0.13027   0.00000  Uiso   1.00
H1504  H     0.16679   0.81191   0.08950   0.00000  Uiso   1.00
H1505  H     0.12202   0.79199   0.09398   0.00000  Uiso   1.00
H1506  H     0.35567   0.70863   0.70695   0.00000  Uiso   1.00
H1507  H     0.02864   0.80104   0.52536   0.00000  Uiso   1.00
H1508  H     0.33297   0.68046   0.67096   0.00000  Uiso   1.00
H1509  H     0.39762   0.73178   0.65448   0.00000  Uiso   1.00
H1510  H     0.37276   0.70535   0.61919   0.00000  Uiso   1.00
H1511  H     0.31572   0.73994   0.63570   0.00000  Uiso   1.00
H1512  H     0.35193   0.76999   0.62026   0.00000  Uiso   1.00
H1513  H     0.34091   0.76631   0.67124   0.00000  Uiso   1.00
H1514  H     0.06101   0.83195   0.35123   0.00000  Uiso   1.00
H1515  H     0.05615   0.86574   0.31427   0.00000  Uiso   1.00
H1516  H     0.10609   0.87286   0.38658   0.00000  Uiso   1.00
H1517  H     0.09712   0.90776   0.35087   0.00000  Uiso   1.00
H1518  H     0.47836   0.80401   0.47482   0.00000  Uiso   1.00
H1519  H     0.03082   0.90693   0.36898   0.00000  Uiso   1.00
H1520  H     0.05977   0.91760   0.40985   0.00000  Uiso   1.00
H1521  H     0.04030   0.87262   0.40552   0.00000  Uiso   1.00
H1522  H     0.29141   0.85563   0.70694   0.00000  Uiso   1.00
H1523  H     0.31960   0.83289   0.67097   0.00000  Uiso   1.00
H1524  H     0.26832   0.89756   0.65447   0.00000  Uiso   1.00
H1525  H     0.29477   0.87265   0.61919   0.00000  Uiso   1.00
H1526  H     0.23377   0.84086   0.67122   0.00000  Uiso   1.00
H1527  H     0.26017   0.81562   0.63570   0.00000  Uiso   1.00
H1528  H     0.23015   0.85183   0.62024   0.00000  Uiso   1.00
H1529  H     0.19860   0.52777   0.52535   0.00000  Uiso   1.00
H1530  H     0.16890   0.56245   0.35176   0.00000  Uiso   1.00
H1531  H     0.13504   0.55691   0.31503   0.00000  Uiso   1.00
H1532  H     0.12814   0.60776   0.38670   0.00000  Uiso   1.00
H1533  H     0.09319   0.59876   0.35109   0.00000  Uiso   1.00
H1534  H     0.09344   0.53263   0.36973   0.00000  Uiso   1.00
H1535  H     0.08321   0.56191   0.41050   0.00000  Uiso   1.00
H1536  H     0.12798   0.54199   0.40602   0.00000  Uiso   1.00
H1537  H     0.14428   0.79133   0.70689   0.00000  Uiso   1.00
H1538  H     0.16712   0.81954   0.67100   0.00000  Uiso   1.00
H1539  H     0.10244   0.76834   0.65429   0.00000  Uiso   1.00
H1540  H     0.19604   0.97719   0.47462   0.00000  Uiso   1.00
H1541  H     0.12748   0.79478   0.61911   0.00000  Uiso   1.00
H1542  H     0.18440   0.76006   0.63572   0.00000  Uiso   1.00
H1543  H     0.14820   0.73012   0.62009   0.00000  Uiso   1.00
H1544  H     0.15900   0.73366   0.67110   0.00000  Uiso   1.00
H1545  H     0.42867   0.67664   0.35390   0.00000  Uiso   1.00
H1546  H     0.43763   0.64069   0.32034   0.00000  Uiso   1.00
H1547  H     0.38065   0.63783   0.38692   0.00000  Uiso   1.00
H1548  H     0.39247   0.60086   0.35469   0.00000  Uiso   1.00
H1549  H     0.45665   0.60208   0.37953   0.00000  Uiso   1.00
H1550  H     0.42408   0.59462   0.41809   0.00000  Uiso   1.00
H1551  H     0.10749   0.95710   0.20228   0.00000  Uiso   1.00
H1552  H     0.44470   0.63894   0.41221   0.00000  Uiso   1.00
H1553  H     0.20862   0.64436   0.70690   0.00000  Uiso   1.00
H1554  H     0.18047   0.66707   0.67090   0.00000  Uiso   1.00
H1555  H     0.23180   0.60240   0.65446   0.00000  Uiso   1.00
H1556  H     0.20538   0.62727   0.61916   0.00000  Uiso   1.00
H1557  H     0.26630   0.65913   0.67114   0.00000  Uiso   1.00
H1558  H     0.23995   0.68433   0.63561   0.00000  Uiso   1.00
H1559  H     0.27000   0.64811   0.62018   0.00000  Uiso   1.00
H1560  H     0.32311   0.92811   0.35236   0.00000  Uiso   1.00
H1561  H     0.36122   0.93473   0.32087   0.00000  Uiso   1.00
H1562  H     0.08605   0.92700   0.16724   0.00000  Uiso   1.00
H1563  H     0.35684   0.87795   0.38751   0.00000  Uiso   1.00
H1564  H     0.39602   0.88670   0.35719   0.00000  Uiso   1.00
H1565  H     0.39857   0.95096   0.38173   0.00000  Uiso   1.00
H1566  H     0.40154   0.91827   0.42083   0.00000  Uiso   1.00
H1567  H     0.35933   0.94219   0.41234   0.00000  Uiso   1.00
H1568  H     0.36945   0.77252   0.32114   0.00000  Uiso   1.00
H1569  H     0.35412   0.78814   0.27484   0.00000  Uiso   1.00
H1570  H     0.32025   0.81166   0.35356   0.00000  Uiso   1.00
H1571  H     0.30275   0.82105   0.30545   0.00000  Uiso   1.00
H1572  H     0.29419   0.75419   0.29395   0.00000  Uiso   1.00
H1573  H     0.15072   0.97795   0.14998   0.00000  Uiso   1.00
H1574  H     0.26907   0.77010   0.33578   0.00000  Uiso   1.00
H1575  H     0.31081   0.74492   0.34255   0.00000  Uiso   1.00
H1576  H     0.06603   0.67304   0.64796   0.00000  Uiso   1.00
H1577  H     0.05928   0.63771   0.68289   0.00000  Uiso   1.00
H1578  H     0.11209   0.63354   0.61264   0.00000  Uiso   1.00
H1579  H     0.10209   0.59723   0.64644   0.00000  Uiso   1.00
H1580  H     0.03660   0.59819   0.62582   0.00000  Uiso   1.00
H1581  H     0.06689   0.58981   0.58541   0.00000  Uiso   1.00
H1582  H     0.04674   0.63432   0.59156   0.00000  Uiso   1.00
H1583  H     0.28949   0.64662   0.28545   0.00000  Uiso   1.00
H1584  H     0.27781   0.94886   0.97479   0.00000  Uiso   1.00
H1585  H     0.12731   0.94935   0.11550   0.00000  Uiso   1.00
H1586  H     0.31582   0.67203   0.32100   0.00000  Uiso   1.00
H1587  H     0.26231   0.60956   0.33945   0.00000  Uiso   1.00
H1588  H     0.28759   0.63604   0.37440   0.00000  Uiso   1.00
H1589  H     0.23049   0.66603   0.31658   0.00000  Uiso   1.00
H1590  H     0.25566   0.69273   0.35184   0.00000  Uiso   1.00
H1591  H     0.22383   0.65840   0.36795   0.00000  Uiso   1.00
H1592  H     0.17317   0.93408   0.64802   0.00000  Uiso   1.00
H1593  H     0.13776   0.94078   0.68288   0.00000  Uiso   1.00
H1594  H     0.13377   0.88805   0.61259   0.00000  Uiso   1.00
H1595  H     0.09738   0.89801   0.64632   0.00000  Uiso   1.00
H1596  H     0.06930   0.98403   0.12811   0.00000  Uiso   1.00
H1597  H     0.09840   0.96355   0.62574   0.00000  Uiso   1.00
H1598  H     0.09012   0.93330   0.58529   0.00000  Uiso   1.00
H1599  H     0.13461   0.95343   0.59154   0.00000  Uiso   1.00
H1600  H     0.14257   0.70706   0.29771   0.00000  Uiso   1.00
H1601  H     0.16395   0.67699   0.33281   0.00000  Uiso   1.00
H1602  H     0.09930   0.72801   0.34992   0.00000  Uiso   1.00
H1603  H     0.12262   0.69942   0.38447   0.00000  Uiso   1.00
H1604  H     0.18069   0.73402   0.37194   0.00000  Uiso   1.00
H1605  H     0.14441   0.76348   0.38843   0.00000  Uiso   1.00
H1606  H     0.15671   0.76287   0.33765   0.00000  Uiso   1.00
H1607  H     0.10558   0.51343   0.11151   0.00000  Uiso   1.00
H1608  H     0.43411   0.82697   0.64797   0.00000  Uiso   1.00
H1609  H     0.44075   0.86237   0.68283   0.00000  Uiso   1.00
H1610  H     0.38802   0.86632   0.61259   0.00000  Uiso   1.00
H1611  H     0.39791   0.90270   0.64631   0.00000  Uiso   1.00
H1612  H     0.46343   0.90184   0.62567   0.00000  Uiso   1.00
H1613  H     0.43317   0.91008   0.58525   0.00000  Uiso   1.00
H1614  H     0.45339   0.86562   0.59149   0.00000  Uiso   1.00
H1615  H     0.20784   0.86156   0.30378   0.00000  Uiso   1.00
H1616  H     0.17505   0.83807   0.33428   0.00000  Uiso   1.00
H1617  H     0.21990   0.90490   0.35966   0.00000  Uiso   1.00
H1618  H     0.09337   0.51289   0.16231   0.00000  Uiso   1.00
H1619  H     0.18936   0.87843   0.38946   0.00000  Uiso   1.00
H1620  H     0.26004   0.85123   0.35035   0.00000  Uiso   1.00
H1621  H     0.22925   0.82315   0.37873   0.00000  Uiso   1.00
H1622  H     0.25340   0.86045   0.40133   0.00000  Uiso   1.00
H1623  H     0.32699   0.56598   0.64799   0.00000  Uiso   1.00
H1624  H     0.36236   0.55928   0.68283   0.00000  Uiso   1.00
H1625  H     0.36638   0.61207   0.61258   0.00000  Uiso   1.00
H1626  H     0.40273   0.60214   0.64629   0.00000  Uiso   1.00
H1627  H     0.40183   0.53661   0.62567   0.00000  Uiso   1.00
H1628  H     0.41012   0.56689   0.58524   0.00000  Uiso   1.00
H1629  H     0.31590   0.57696   0.85203   0.00000  Uiso   1.00
H1630  H     0.36565   0.54669   0.59150   0.00000  Uiso   1.00
H1631  H     0.19377   0.88942   0.09904   0.00000  Uiso   1.00
H1632  H     0.31775   0.89626   0.90145   0.00000  Uiso   1.00
H1633  H     0.11110   0.69394   0.09817   0.00000  Uiso   1.00
H1634  H     0.10410   0.81735   0.90119   0.00000  Uiso   1.00
H1635  H     0.30259   0.61285   0.09706   0.00000  Uiso   1.00
H1636  H     0.18199   0.60369   0.90107   0.00000  Uiso   1.00
H1637  H     0.38908   0.80536   0.09831   0.00000  Uiso   1.00
H1638  H     0.39610   0.68246   0.90138   0.00000  Uiso   1.00
H1639  H     0.43222   0.64628   0.59856   0.00000  Uiso   1.00
H1640  H     0.30925   0.61236   0.81718   0.00000  Uiso   1.00
H1641  H     0.05625   0.63942   0.40096   0.00000  Uiso   1.00
H1642  H     0.35390   0.93246   0.59862   0.00000  Uiso   1.00
H1643  H     0.36092   0.55535   0.40169   0.00000  Uiso   1.00
H1644  H     0.06803   0.85368   0.59893   0.00000  Uiso   1.00
H1645  H     0.44737   0.86282   0.40293   0.00000  Uiso   1.00
H1646  H     0.14590   0.56736   0.59881   0.00000  Uiso   1.00
H1647  H     0.13889   0.94394   0.40184   0.00000  Uiso   1.00
H1648  H     0.36199   0.61631   0.88741   0.00000  Uiso   1.00
H1649  H     0.35210   0.65270   0.85369   0.00000  Uiso   1.00
H1650  H     0.28658   0.65183   0.87434   0.00000  Uiso   1.00
H1651  H     0.31684   0.66007   0.91476   0.00000  Uiso   1.00
H1652  H     0.05396   0.72718   0.02538   0.00000  Uiso   1.00
H1653  H     0.29662   0.61561   0.90852   0.00000  Uiso   1.00
H1654  H     0.04216   0.61156   0.19623   0.00000  Uiso   1.00
H1655  H     0.07495   0.58807   0.16572   0.00000  Uiso   1.00
H1656  H     0.03010   0.65490   0.14034   0.00000  Uiso   1.00
H1657  H     0.06064   0.62843   0.11055   0.00000  Uiso   1.00
H1658  H     0.48996   0.60123   0.14966   0.00000  Uiso   1.00
H1659  H     0.02074   0.57315   0.12128   0.00000  Uiso   1.00
H1660  H     0.49659   0.61045   0.09868   0.00000  Uiso   1.00
H1661  H     0.42300   0.81597   0.85201   0.00000  Uiso   1.00
H1662  H     0.38763   0.80928   0.81716   0.00000  Uiso   1.00
H1663  H     0.05140   0.77777   0.97465   0.00000  Uiso   1.00
H1664  H     0.38361   0.86207   0.88742   0.00000  Uiso   1.00
H1665  H     0.34726   0.85214   0.85370   0.00000  Uiso   1.00
H1666  H     0.34816   0.78661   0.87432   0.00000  Uiso   1.00
H1667  H     0.33987   0.81689   0.91475   0.00000  Uiso   1.00
H1668  H     0.38434   0.79669   0.90850   0.00000  Uiso   1.00
H1669  H     0.38055   0.52251   0.17887   0.00000  Uiso   1.00
H1670  H     0.39588   0.53814   0.22517   0.00000  Uiso   1.00
H1671  H     0.42976   0.56165   0.14645   0.00000  Uiso   1.00
H1672  H     0.44725   0.57104   0.19456   0.00000  Uiso   1.00
H1673  H     0.45582   0.50418   0.20607   0.00000  Uiso   1.00
H1674  H     0.27163   0.55402   0.02518   0.00000  Uiso   1.00
H1675  H     0.48094   0.52009   0.16424   0.00000  Uiso   1.00
H1676  H     0.43920   0.99491   0.15747   0.00000  Uiso   1.00
H1677  H     0.18397   0.92304   0.85204   0.00000  Uiso   1.00
H1678  H     0.19072   0.88771   0.81711   0.00000  Uiso   1.00
H1679  H     0.13791   0.88354   0.88736   0.00000  Uiso   1.00
H1680  H     0.14791   0.84724   0.85357   0.00000  Uiso   1.00
H1681  H     0.21340   0.84819   0.87418   0.00000  Uiso   1.00
H1682  H     0.18311   0.83982   0.91460   0.00000  Uiso   1.00
H1683  H     0.20326   0.88433   0.90844   0.00000  Uiso   1.00
H1684  H     0.46051   0.89661   0.21455   0.00000  Uiso   1.00
H1685  H     0.22137   0.55104   0.97464   0.00000  Uiso   1.00
H1686  H     0.43419   0.92203   0.17901   0.00000  Uiso   1.00
H1687  H     0.48768   0.85955   0.16054   0.00000  Uiso   1.00
H1688  H     0.46241   0.88606   0.12560   0.00000  Uiso   1.00
H1689  H     0.49436   0.94272   0.14819   0.00000  Uiso   1.00
H1690  H     0.02618   0.90839   0.13206   0.00000  Uiso   1.00
H1691  H     0.01952   0.91601   0.18343   0.00000  Uiso   1.00
H1692  H     0.07683   0.68407   0.85199   0.00000  Uiso   1.00
H1693  H     0.11224   0.69078   0.81713   0.00000  Uiso   1.00
H1694  H     0.11624   0.63804   0.88741   0.00000  Uiso   1.00
H1695  H     0.15262   0.64801   0.85368   0.00000  Uiso   1.00
H1696  H     0.44637   0.77232   0.02537   0.00000  Uiso   1.00
H1697  H     0.15160   0.71355   0.87426   0.00000  Uiso   1.00
H1698  H     0.15988   0.68329   0.91470   0.00000  Uiso   1.00
H1699  H     0.11539   0.70342   0.90846   0.00000  Uiso   1.00
H1700  H     0.10565   0.54137   0.79308   0.00000  Uiso   1.00
H1701  H     0.08289   0.56954   0.82907   0.00000  Uiso   1.00
H1702  H     0.14755   0.51826   0.84556   0.00000  Uiso   1.00
H1703  H     0.12261   0.54468   0.88084   0.00000  Uiso   1.00
H1704  H     0.06563   0.51004   0.86432   0.00000  Uiso   1.00
H1705  H     0.10184   0.98002   0.87977   0.00000  Uiso   1.00
H1706  H     0.09091   0.98368   0.82880   0.00000  Uiso   1.00
H1707  H     0.44898   0.72180   0.97478   0.00000  Uiso   1.00
H1708  H     0.32133   0.92664   0.14610   0.00000  Uiso   1.00
H1709  H     0.31236   0.89069   0.17967   0.00000  Uiso   1.00
H1710  H     0.36934   0.88783   0.11308   0.00000  Uiso   1.00
H1711  H     0.35752   0.85086   0.14532   0.00000  Uiso   1.00
H1712  H     0.29335   0.85208   0.12047   0.00000  Uiso   1.00
H1713  H     0.32591   0.84462   0.08191   0.00000  Uiso   1.00
H1714  H     0.30529   0.88894   0.08779   0.00000  Uiso   1.00
H1715  H     0.04138   0.89436   0.79310   0.00000  Uiso   1.00
H1716  H     0.06953   0.91707   0.82910   0.00000  Uiso   1.00
H1717  H     0.01820   0.85240   0.84554   0.00000  Uiso   1.00
H1718  H     0.47218   0.69886   0.52521   0.00000  Uiso   1.00
H1719  H     0.04462   0.87726   0.88085   0.00000  Uiso   1.00
H1720  H     0.48370   0.90913   0.82886   0.00000  Uiso   1.00
H1721  H     0.01006   0.93433   0.86440   0.00000  Uiso   1.00
H1722  H     0.48000   0.89811   0.87982   0.00000  Uiso   1.00
H1723  H     0.42689   0.67813   0.14768   0.00000  Uiso   1.00
H1724  H     0.38874   0.68469   0.17911   0.00000  Uiso   1.00
H1725  H     0.39327   0.62794   0.11246   0.00000  Uiso   1.00
H1726  H     0.35404   0.63663   0.14273   0.00000  Uiso   1.00
H1727  H     0.35143   0.70090   0.11821   0.00000  Uiso   1.00
H1728  H     0.34856   0.66822   0.07909   0.00000  Uiso   1.00
O1729  O     0.25000   0.50000   0.25000   0.00000  Uiso   1.00
O1730  O     0.25000   0.96964   0.66317   0.00000  Uiso   1.00
O1731  O     0.41776   0.69096   0.91725   0.00000  Uiso   1.00
O1732  O     0.47877   0.67809   0.63358   0.00000  Uiso   1.00
O1733  O     0.44090   0.66787   0.58267   0.00000  Uiso   1.00
O1734  O     0.01449   0.67691   0.36548   0.00000  Uiso   1.00
O1735  O     0.04970   0.66162   0.41708   0.00000  Uiso   1.00
O1736  O     0.32195   0.97907   0.63349   0.00000  Uiso   1.00
O1737  O     0.33224   0.94096   0.58275   0.00000  Uiso   1.00
O1738  O     0.32296   0.51452   0.36558   0.00000  Uiso   1.00
O1739  O     0.33857   0.54899   0.41766   0.00000  Uiso   1.00
O1740  O     0.02115   0.82195   0.63361   0.00000  Uiso   1.00
O1741  O     0.46964   0.75000   0.33683   0.00000  Uiso   1.00
O1742  O     0.05950   0.83206   0.58301   0.00000  Uiso   1.00
O1743  O     0.48415   0.82250   0.36490   0.00000  Uiso   1.00
O1744  O     0.45366   0.84045   0.41889   0.00000  Uiso   1.00
O1745  O     0.17803   0.52098   0.63378   0.00000  Uiso   1.00
O1746  O     0.16752   0.55881   0.58288   0.00000  Uiso   1.00
O1747  O     0.17732   0.98385   0.36510   0.00000  Uiso   1.00
O1748  O     0.16096   0.95083   0.41798   0.00000  Uiso   1.00
O1749  O     0.03036   0.75000   0.66317   0.00000  Uiso   1.00
O1750  O     0.00000   0.71964   0.83683   0.00000  Uiso   1.00
O1751  O     0.00000   0.78036   0.16317   0.00000  Uiso   1.00
O1752  O     0.28036   0.50000   0.83683   0.00000  Uiso   1.00
O1753  O     0.21964   0.50000   0.16317   0.00000  Uiso   1.00
O1754  O     0.00000   0.78036   0.83683   0.00000  Uiso   1.00
O1755  O     0.00000   0.71964   0.16317   0.00000  Uiso   1.00
O1756  O     0.21964   0.50000   0.83683   0.00000  Uiso   1.00
O1757  O     0.25000   0.50000   0.75000   0.00000  Uiso   1.00
O1758  O     0.28036   0.50000   0.16317   0.00000  Uiso   1.00
O1759  O     0.20726   0.57307   0.27282   0.00000  Uiso   1.00
O1760  O     0.29275   0.92693   0.72718   0.00000  Uiso   1.00
O1761  O     0.42693   0.70726   0.27282   0.00000  Uiso   1.00
O1762  O     0.07307   0.79275   0.72718   0.00000  Uiso   1.00
O1763  O     0.29275   0.92693   0.27282   0.00000  Uiso   1.00
O1764  O     0.20726   0.57307   0.72718   0.00000  Uiso   1.00
O1765  O     0.07307   0.79275   0.27282   0.00000  Uiso   1.00
O1766  O     0.42693   0.70726   0.72718   0.00000  Uiso   1.00
O1767  O     0.20726   0.92693   0.72718   0.00000  Uiso   1.00
O1768  O     0.00000   0.75000   0.25000   0.00000  Uiso   1.00
O1769  O     0.29275   0.57307   0.27282   0.00000  Uiso   1.00
O1770  O     0.42693   0.79275   0.72718   0.00000  Uiso   1.00
O1771  O     0.07307   0.70726   0.27282   0.00000  Uiso   1.00
O1772  O     0.29275   0.57307   0.72718   0.00000  Uiso   1.00
O1773  O     0.20726   0.92693   0.27282   0.00000  Uiso   1.00
O1774  O     0.07307   0.70726   0.72718   0.00000  Uiso   1.00
O1775  O     0.42693   0.79275   0.27282   0.00000  Uiso   1.00
O1776  O     0.45726   0.82307   0.77282   0.00000  Uiso   1.00
O1777  O     0.04275   0.67693   0.22718   0.00000  Uiso   1.00
O1778  O     0.17693   0.95726   0.77282   0.00000  Uiso   1.00
O1779  O     0.00000   0.75000   0.75000   0.00000  Uiso   1.00
O1780  O     0.32307   0.54275   0.22718   0.00000  Uiso   1.00
O1781  O     0.04275   0.67693   0.77282   0.00000  Uiso   1.00
O1782  O     0.45726   0.82307   0.22718   0.00000  Uiso   1.00
O1783  O     0.32307   0.54275   0.77282   0.00000  Uiso   1.00
O1784  O     0.17693   0.95726   0.22718   0.00000  Uiso   1.00
O1785  O     0.45726   0.67693   0.22718   0.00000  Uiso   1.00
O1786  O     0.04275   0.82307   0.77282   0.00000  Uiso   1.00
O1787  O     0.17693   0.54275   0.22718   0.00000  Uiso   1.00
O1788  O     0.32307   0.95726   0.77282   0.00000  Uiso   1.00
O1789  O     0.04275   0.82307   0.22718   0.00000  Uiso   1.00
O1790  O     0.25000   0.96964   0.33683   0.00000  Uiso   1.00
O1791  O     0.45726   0.67693   0.77282   0.00000  Uiso   1.00
O1792  O     0.32307   0.95726   0.22718   0.00000  Uiso   1.00
O1793  O     0.17693   0.54275   0.77282   0.00000  Uiso   1.00
O1794  O     0.13942   0.91374   0.18187   0.00000  Uiso   1.00
O1795  O     0.36103   0.58614   0.81846   0.00000  Uiso   1.00
O1796  O     0.08844   0.64151   0.18104   0.00000  Uiso   1.00
O1797  O     0.41381   0.86109   0.81846   0.00000  Uiso   1.00
O1798  O     0.37167   0.57700   0.18717   0.00000  Uiso   1.00
O1799  O     0.13889   0.91384   0.81848   0.00000  Uiso   1.00
O1800  O     0.42002   0.86735   0.18503   0.00000  Uiso   1.00
O1801  O     0.25000   0.53036   0.66317   0.00000  Uiso   1.00
O1802  O     0.08612   0.63894   0.81848   0.00000  Uiso   1.00
O1803  O     0.13662   0.58381   0.81708   0.00000  Uiso   1.00
O1804  O     0.36413   0.91671   0.18270   0.00000  Uiso   1.00
O1805  O     0.08377   0.86332   0.81708   0.00000  Uiso   1.00
O1806  O     0.41789   0.63464   0.18368   0.00000  Uiso   1.00
O1807  O     0.36330   0.91622   0.81707   0.00000  Uiso   1.00
O1808  O     0.14240   0.58935   0.18042   0.00000  Uiso   1.00
O1809  O     0.41617   0.63664   0.81707   0.00000  Uiso   1.00
O1810  O     0.08871   0.85851   0.18069   0.00000  Uiso   1.00
O1811  O     0.38670   0.66622   0.68293   0.00000  Uiso   1.00
O1812  O     0.03036   0.75000   0.33683   0.00000  Uiso   1.00
O1813  O     0.10760   0.83935   0.31958   0.00000  Uiso   1.00
O1814  O     0.33383   0.88664   0.68293   0.00000  Uiso   1.00
O1815  O     0.16129   0.60851   0.31931   0.00000  Uiso   1.00
O1816  O     0.11337   0.83381   0.68291   0.00000  Uiso   1.00
O1817  O     0.38587   0.66671   0.31730   0.00000  Uiso   1.00
O1818  O     0.16623   0.61332   0.68292   0.00000  Uiso   1.00
O1819  O     0.33212   0.88465   0.31632   0.00000  Uiso   1.00
O1820  O     0.37834   0.82701   0.31284   0.00000  Uiso   1.00
O1821  O     0.11111   0.66384   0.68152   0.00000  Uiso   1.00
O1822  O     0.32998   0.61735   0.31497   0.00000  Uiso   1.00
O1823  O     0.46964   0.75000   0.66317   0.00000  Uiso   1.00
O1824  O     0.16388   0.88894   0.68152   0.00000  Uiso   1.00
O1825  O     0.11058   0.66374   0.31812   0.00000  Uiso   1.00
O1826  O     0.38898   0.83615   0.68153   0.00000  Uiso   1.00
O1827  O     0.16156   0.89151   0.31896   0.00000  Uiso   1.00
O1828  O     0.33619   0.61110   0.68154   0.00000  Uiso   1.00
O1829  O     0.23553   0.92691   0.13452   0.00000  Uiso   1.00
O1830  O     0.20031   0.91162   0.08292   0.00000  Uiso   1.00
O1831  O     0.27122   0.92809   0.86642   0.00000  Uiso   1.00
O1832  O     0.30909   0.91786   0.91733   0.00000  Uiso   1.00
O1833  O     0.07268   0.73385   0.13490   0.00000  Uiso   1.00
O1834  O     0.25000   0.53036   0.33683   0.00000  Uiso   1.00
O1835  O     0.08904   0.70083   0.08202   0.00000  Uiso   1.00
O1836  O     0.07197   0.77098   0.86622   0.00000  Uiso   1.00
O1837  O     0.08248   0.80880   0.91713   0.00000  Uiso   1.00
O1838  O     0.26586   0.57249   0.13511   0.00000  Uiso   1.00
O1839  O     0.29630   0.59048   0.08110   0.00000  Uiso   1.00
O1840  O     0.22886   0.57195   0.86639   0.00000  Uiso   1.00
O1841  O     0.19052   0.58207   0.91699   0.00000  Uiso   1.00
O1842  O     0.42704   0.76453   0.13442   0.00000  Uiso   1.00
O1843  O     0.41143   0.79900   0.08234   0.00000  Uiso   1.00
O1844  O     0.42805   0.72908   0.86651   0.00000  Uiso   1.00
Zn1845 Zn    0.20660   0.50000   0.21760   0.00000  Uiso   1.00
Zn1846 Zn    0.04340   0.75000   0.28240   0.00000  Uiso   1.00
Zn1847 Zn    0.25000   0.95660   0.71760   0.00000  Uiso   1.00
Zn1848 Zn    0.25000   0.54340   0.28240   0.00000  Uiso   1.00
Zn1849 Zn    0.04340   0.75000   0.71760   0.00000  Uiso   1.00
Zn1850 Zn    0.45660   0.75000   0.28240   0.00000  Uiso   1.00
Zn1851 Zn    0.25000   0.54340   0.71760   0.00000  Uiso   1.00
Zn1852 Zn    0.25000   0.95660   0.28240   0.00000  Uiso   1.00
Zn1853 Zn    0.29340   0.50000   0.78240   0.00000  Uiso   1.00
Zn1854 Zn    0.00000   0.70660   0.21760   0.00000  Uiso   1.00
Zn1855 Zn    0.00000   0.79340   0.78240   0.00000  Uiso   1.00
Zn1856 Zn    0.29340   0.50000   0.21760   0.00000  Uiso   1.00
Zn1857 Zn    0.20660   0.50000   0.78240   0.00000  Uiso   1.00
Zn1858 Zn    0.00000   0.79340   0.21760   0.00000  Uiso   1.00
Zn1859 Zn    0.00000   0.70660   0.78240   0.00000  Uiso   1.00
Zn1860 Zn    0.45660   0.75000   0.71760   0.00000  Uiso   1.00
C1861  C     0.73705   0.96953   0.04169   0.00000  Uiso   1.00
C1862  C     0.51295   0.71953   0.45831   0.00000  Uiso   1.00
C1863  C     0.84821   0.90176   0.75000   0.00000  Uiso   1.00
C1864  C     0.90228   0.65171   0.25030   0.00000  Uiso   1.00
C1865  C     0.59823   0.84822   0.75000   0.00000  Uiso   1.00
C1866  C     0.84772   0.90171   0.24970   0.00000  Uiso   1.00
C1867  C     0.65177   0.59823   0.75000   0.00000  Uiso   1.00
C1868  C     0.59802   0.65199   0.75000   0.00000  Uiso   1.00
C1869  C     0.90091   0.84740   0.24938   0.00000  Uiso   1.00
C1870  C     0.65198   0.90199   0.75000   0.00000  Uiso   1.00
C1871  C     0.84909   0.59739   0.25062   0.00000  Uiso   1.00
C1872  C     0.90200   0.84802   0.75000   0.00000  Uiso   1.00
C1873  C     0.77876   0.98394   0.54143   0.00000  Uiso   1.00
C1874  C     0.59834   0.65191   0.24988   0.00000  Uiso   1.00
C1875  C     0.84800   0.59802   0.75000   0.00000  Uiso   1.00
C1876  C     0.65166   0.90191   0.25012   0.00000  Uiso   1.00
C1877  C     0.74996   0.50007   0.10268   0.00000  Uiso   1.00
C1878  C     0.74991   0.99999   0.89742   0.00000  Uiso   1.00
C1879  C     0.50014   0.74989   0.10267   0.00000  Uiso   1.00
C1880  C     0.50006   0.74997   0.89742   0.00000  Uiso   1.00
C1881  C     0.50009   0.74999   0.60258   0.00000  Uiso   1.00
C1882  C     0.50004   0.75007   0.39732   0.00000  Uiso   1.00
C1883  C     0.74994   0.99997   0.60258   0.00000  Uiso   1.00
C1884  C     0.78025   0.51259   0.45842   0.00000  Uiso   1.00
C1885  C     0.74986   0.99989   0.39733   0.00000  Uiso   1.00
C1886  C     0.61209   0.94027   0.17567   0.00000  Uiso   1.00
C1887  C     0.62401   0.96548   0.14265   0.00000  Uiso   1.00
C1888  C     0.59624   0.99580   0.13581   0.00000  Uiso   1.00
C1889  C     0.82971   0.60018   0.83738   0.00000  Uiso   1.00
C1890  C     0.84070   0.62817   0.86821   0.00000  Uiso   1.00
C1891  C     0.80807   0.63956   0.89294   0.00000  Uiso   1.00
C1892  C     0.56198   0.61488   0.17188   0.00000  Uiso   1.00
C1893  C     0.54143   0.62718   0.13553   0.00000  Uiso   1.00
C1894  C     0.51028   0.60126   0.12574   0.00000  Uiso   1.00
C1895  C     0.51637   0.77881   0.54150   0.00000  Uiso   1.00
C1896  C     0.89979   0.82977   0.83737   0.00000  Uiso   1.00
C1897  C     0.87178   0.84075   0.86821   0.00000  Uiso   1.00
C1898  C     0.86040   0.80812   0.89293   0.00000  Uiso   1.00
C1899  C     0.89379   0.54588   0.19382   0.00000  Uiso   1.00
C1900  C     0.93196   0.55105   0.17665   0.00000  Uiso   1.00
C1901  C     0.95321   0.51527   0.17613   0.00000  Uiso   1.00
C1902  C     0.67022   0.89983   0.83735   0.00000  Uiso   1.00
C1903  C     0.65925   0.87176   0.86813   0.00000  Uiso   1.00
C1904  C     0.69187   0.86039   0.89282   0.00000  Uiso   1.00
C1905  C     0.94673   0.89512   0.18565   0.00000  Uiso   1.00
C1906  C     0.98786   0.78058   0.45850   0.00000  Uiso   1.00
C1907  C     0.97550   0.88676   0.15474   0.00000  Uiso   1.00
C1908  C     0.50572   0.91533   0.15469   0.00000  Uiso   1.00
C1909  C     0.60008   0.67029   0.83735   0.00000  Uiso   1.00
C1910  C     0.62806   0.65936   0.86819   0.00000  Uiso   1.00
C1911  C     0.63937   0.69202   0.89288   0.00000  Uiso   1.00
C1912  C     0.60930   0.55685   0.82078   0.00000  Uiso   1.00
C1913  C     0.62045   0.53002   0.85263   0.00000  Uiso   1.00
C1914  C     0.59290   0.99906   0.85655   0.00000  Uiso   1.00
C1915  C     0.83412   0.90312   0.16121   0.00000  Uiso   1.00
C1916  C     0.84697   0.87565   0.13060   0.00000  Uiso   1.00
C1917  C     0.72091   0.51569   0.54150   0.00000  Uiso   1.00
C1918  C     0.81586   0.86471   0.10357   0.00000  Uiso   1.00
C1919  C     0.55683   0.89067   0.82080   0.00000  Uiso   1.00
C1920  C     0.52998   0.87949   0.85265   0.00000  Uiso   1.00
C1921  C     0.99906   0.90707   0.85660   0.00000  Uiso   1.00
C1922  C     0.90352   0.66381   0.16147   0.00000  Uiso   1.00
C1923  C     0.87860   0.64919   0.12940   0.00000  Uiso   1.00
C1924  C     0.86664   0.67960   0.10194   0.00000  Uiso   1.00
C1925  C     0.89065   0.94315   0.82076   0.00000  Uiso   1.00
C1926  C     0.87945   0.97003   0.85258   0.00000  Uiso   1.00
C1927  C     0.90707   0.50091   0.85655   0.00000  Uiso   1.00
C1928  C     0.71941   0.98700   0.45840   0.00000  Uiso   1.00
C1929  C     0.67440   0.60441   0.16388   0.00000  Uiso   1.00
C1930  C     0.66461   0.63374   0.13397   0.00000  Uiso   1.00
C1931  C     0.69810   0.64590   0.11104   0.00000  Uiso   1.00
C1932  C     0.94311   0.60929   0.82075   0.00000  Uiso   1.00
C1933  C     0.96991   0.62045   0.85261   0.00000  Uiso   1.00
C1934  C     0.50084   0.59288   0.85653   0.00000  Uiso   1.00
C1935  C     0.60364   0.82674   0.16351   0.00000  Uiso   1.00
C1936  C     0.63288   0.83696   0.13367   0.00000  Uiso   1.00
C1937  C     0.64526   0.80371   0.11047   0.00000  Uiso   1.00
C1938  C     0.85936   0.69316   0.67925   0.00000  Uiso   1.00
C1939  C     0.73724   0.96889   0.08231   0.00000  Uiso   1.00
C1940  C     0.87054   0.72000   0.64740   0.00000  Uiso   1.00
C1941  C     0.84297   0.75094   0.64348   0.00000  Uiso   1.00
C1942  C     0.57559   0.85442   0.33612   0.00000  Uiso   1.00
C1943  C     0.58538   0.88374   0.36603   0.00000  Uiso   1.00
C1944  C     0.55190   0.89591   0.38896   0.00000  Uiso   1.00
C1945  C     0.80689   0.85930   0.67925   0.00000  Uiso   1.00
C1946  C     0.78009   0.87046   0.64739   0.00000  Uiso   1.00
C1947  C     0.74917   0.84288   0.64347   0.00000  Uiso   1.00
C1948  C     0.64636   0.57674   0.33649   0.00000  Uiso   1.00
C1949  C     0.61712   0.58696   0.36634   0.00000  Uiso   1.00
C1950  C     0.76579   0.97041   0.91796   0.00000  Uiso   1.00
C1951  C     0.60474   0.55372   0.38953   0.00000  Uiso   1.00
C1952  C     0.64069   0.80685   0.67922   0.00000  Uiso   1.00
C1953  C     0.62957   0.78008   0.64729   0.00000  Uiso   1.00
C1954  C     0.65710   0.74910   0.64338   0.00000  Uiso   1.00
C1955  C     0.91588   0.65312   0.33879   0.00000  Uiso   1.00
C1956  C     0.90303   0.62566   0.36940   0.00000  Uiso   1.00
C1957  C     0.93414   0.61471   0.39644   0.00000  Uiso   1.00
C1958  C     0.69317   0.64067   0.67921   0.00000  Uiso   1.00
C1959  C     0.72002   0.62949   0.64735   0.00000  Uiso   1.00
C1960  C     0.75095   0.65707   0.64340   0.00000  Uiso   1.00
C1961  C     0.53126   0.73702   0.08223   0.00000  Uiso   1.00
C1962  C     0.84648   0.91383   0.33853   0.00000  Uiso   1.00
C1963  C     0.87146   0.89922   0.37056   0.00000  Uiso   1.00
C1964  C     0.88341   0.92964   0.39802   0.00000  Uiso   1.00
C1965  C     0.85621   0.79588   0.30619   0.00000  Uiso   1.00
C1966  C     0.81804   0.80106   0.32336   0.00000  Uiso   1.00
C1967  C     0.79680   0.76528   0.32389   0.00000  Uiso   1.00
C1968  C     0.57978   0.64982   0.66265   0.00000  Uiso   1.00
C1969  C     0.59075   0.62176   0.63187   0.00000  Uiso   1.00
C1970  C     0.55813   0.61038   0.60719   0.00000  Uiso   1.00
C1971  C     0.80327   0.64512   0.31435   0.00000  Uiso   1.00
C1972  C     0.76564   0.97109   0.95858   0.00000  Uiso   1.00
C1973  C     0.52973   0.76577   0.91788   0.00000  Uiso   1.00
C1974  C     0.77450   0.63676   0.34525   0.00000  Uiso   1.00
C1975  C     0.74429   0.66534   0.34532   0.00000  Uiso   1.00
C1976  C     0.64992   0.92030   0.66265   0.00000  Uiso   1.00
C1977  C     0.62194   0.90937   0.63181   0.00000  Uiso   1.00
C1978  C     0.61064   0.94203   0.60712   0.00000  Uiso   1.00
C1979  C     0.63793   0.69027   0.32433   0.00000  Uiso   1.00
C1980  C     0.62598   0.71552   0.35731   0.00000  Uiso   1.00
C1981  C     0.65377   0.74581   0.36417   0.00000  Uiso   1.00
C1982  C     0.92030   0.85018   0.66262   0.00000  Uiso   1.00
C1983  C     0.90931   0.87817   0.63179   0.00000  Uiso   1.00
C1984  C     0.76231   0.53134   0.08214   0.00000  Uiso   1.00
C1985  C     0.94194   0.88957   0.60707   0.00000  Uiso   1.00
C1986  C     0.68802   0.86489   0.32812   0.00000  Uiso   1.00
C1987  C     0.70857   0.87718   0.36447   0.00000  Uiso   1.00
C1988  C     0.73972   0.85126   0.37426   0.00000  Uiso   1.00
C1989  C     0.85020   0.57977   0.66263   0.00000  Uiso   1.00
C1990  C     0.87821   0.59075   0.63179   0.00000  Uiso   1.00
C1991  C     0.88959   0.55812   0.60707   0.00000  Uiso   1.00
C1992  C     0.72450   0.93498   0.10208   0.00000  Uiso   1.00
C1993  C     0.78198   0.93794   0.89840   0.00000  Uiso   1.00
C1994  C     0.56513   0.72399   0.10190   0.00000  Uiso   1.00
C1995  C     0.73383   0.52954   0.91788   0.00000  Uiso   1.00
C1996  C     0.56224   0.78179   0.89823   0.00000  Uiso   1.00
C1997  C     0.77481   0.56553   0.10165   0.00000  Uiso   1.00
C1998  C     0.71781   0.56204   0.89825   0.00000  Uiso   1.00
C1999  C     0.93503   0.77527   0.10184   0.00000  Uiso   1.00
C2000  C     0.93791   0.71810   0.89841   0.00000  Uiso   1.00
C2001  C     0.96801   0.68794   0.60160   0.00000  Uiso   1.00
C2002  C     0.52551   0.68498   0.39792   0.00000  Uiso   1.00
C2003  C     0.81209   0.96810   0.60159   0.00000  Uiso   1.00
C2004  C     0.81498   0.52527   0.39817   0.00000  Uiso   1.00
C2005  C     0.53220   0.81203   0.60175   0.00000  Uiso   1.00
C2006  C     0.96903   0.76258   0.08220   0.00000  Uiso   1.00
C2007  C     0.97518   0.81552   0.39835   0.00000  Uiso   1.00
C2008  C     0.68776   0.53179   0.60177   0.00000  Uiso   1.00
C2009  C     0.68487   0.97399   0.39810   0.00000  Uiso   1.00
C2010  C     0.97047   0.73405   0.91796   0.00000  Uiso   1.00
C2011  C     0.98420   0.72041   0.58204   0.00000  Uiso   1.00
C2012  C     0.51277   0.71889   0.41769   0.00000  Uiso   1.00
C2013  C     0.77953   0.98405   0.58204   0.00000  Uiso   1.00
C2014  C     0.78097   0.51258   0.41780   0.00000  Uiso   1.00
C2015  C     0.51617   0.77954   0.58211   0.00000  Uiso   1.00
C2016  C     0.53059   0.73699   0.04160   0.00000  Uiso   1.00
C2017  C     0.98768   0.78133   0.41786   0.00000  Uiso   1.00
C2018  C     0.72027   0.51577   0.58212   0.00000  Uiso   1.00
C2019  C     0.71874   0.98702   0.41777   0.00000  Uiso   1.00
C2020  C     0.74957   0.50002   0.02138   0.00000  Uiso   1.00
C2021  C     0.74957   0.99994   0.97877   0.00000  Uiso   1.00
C2022  C     0.50019   0.74980   0.02137   0.00000  Uiso   1.00
C2023  C     0.50019   0.74978   0.97876   0.00000  Uiso   1.00
C2024  C     0.50043   0.74994   0.52123   0.00000  Uiso   1.00
C2025  C     0.50043   0.75002   0.47862   0.00000  Uiso   1.00
C2026  C     0.74981   0.99978   0.52124   0.00000  Uiso   1.00
C2027  C     0.52910   0.76569   0.95850   0.00000  Uiso   1.00
C2028  C     0.74981   0.99980   0.47863   0.00000  Uiso   1.00
C2029  C     0.74994   0.99998   0.35503   0.00000  Uiso   1.00
C2030  C     0.74999   0.50000   0.64494   0.00000  Uiso   1.00
C2031  C     0.50000   0.75003   0.35502   0.00000  Uiso   1.00
C2032  C     0.50002   0.74999   0.64494   0.00000  Uiso   1.00
C2033  C     0.50001   0.75000   0.85506   0.00000  Uiso   1.00
C2034  C     0.50006   0.74998   0.14497   0.00000  Uiso   1.00
C2035  C     0.74998   0.99999   0.85506   0.00000  Uiso   1.00
C2036  C     0.75000   0.50003   0.14498   0.00000  Uiso   1.00
C2037  C     0.68000   0.57002   0.25001   0.00000  Uiso   1.00
C2038  C     0.76214   0.53059   0.04150   0.00000  Uiso   1.00
C2039  C     0.82009   0.92990   0.75000   0.00000  Uiso   1.00
C2040  C     0.93000   0.67998   0.25002   0.00000  Uiso   1.00
C2041  C     0.57010   0.82009   0.75000   0.00000  Uiso   1.00
C2042  C     0.82000   0.92998   0.24999   0.00000  Uiso   1.00
C2043  C     0.67990   0.57009   0.75000   0.00000  Uiso   1.00
C2044  C     0.57000   0.82002   0.24999   0.00000  Uiso   1.00
C2045  C     0.92992   0.67990   0.75000   0.00000  Uiso   1.00
C2046  C     0.67999   0.92999   0.75000   0.00000  Uiso   1.00
C2047  C     0.82031   0.56990   0.25019   0.00000  Uiso   1.00
C2048  C     0.93000   0.82001   0.75000   0.00000  Uiso   1.00
C2049  C     0.73364   0.52881   0.95850   0.00000  Uiso   1.00
C2050  C     0.57013   0.67997   0.24993   0.00000  Uiso   1.00
C2051  C     0.82000   0.57001   0.75000   0.00000  Uiso   1.00
C2052  C     0.67987   0.92997   0.25007   0.00000  Uiso   1.00
C2053  C     0.57001   0.67999   0.75000   0.00000  Uiso   1.00
C2054  C     0.92969   0.81990   0.24981   0.00000  Uiso   1.00
C2055  C     0.63171   0.89497   0.21587   0.00000  Uiso   1.00
C2056  C     0.86771   0.60520   0.78436   0.00000  Uiso   1.00
C2057  C     0.60556   0.63219   0.21553   0.00000  Uiso   1.00
C2058  C     0.89478   0.86775   0.78436   0.00000  Uiso   1.00
C2059  C     0.87349   0.60031   0.21886   0.00000  Uiso   1.00
C2060  C     0.96975   0.76259   0.04158   0.00000  Uiso   1.00
C2061  C     0.63225   0.89479   0.78436   0.00000  Uiso   1.00
C2062  C     0.89769   0.87117   0.21727   0.00000  Uiso   1.00
C2063  C     0.60519   0.63227   0.78437   0.00000  Uiso   1.00
C2064  C     0.63032   0.60377   0.78356   0.00000  Uiso   1.00
C2065  C     0.86915   0.89619   0.21614   0.00000  Uiso   1.00
C2066  C     0.60375   0.86966   0.78356   0.00000  Uiso   1.00
C2067  C     0.89742   0.62962   0.21717   0.00000  Uiso   1.00
C2068  C     0.86964   0.89624   0.78355   0.00000  Uiso   1.00
C2069  C     0.63395   0.60684   0.21503   0.00000  Uiso   1.00
C2070  C     0.89622   0.63032   0.78355   0.00000  Uiso   1.00
C2071  C     0.97124   0.73394   0.95857   0.00000  Uiso   1.00
C2072  C     0.60654   0.86646   0.21521   0.00000  Uiso   1.00
C2073  C     0.88036   0.64624   0.71645   0.00000  Uiso   1.00
C2074  C     0.61605   0.85684   0.28497   0.00000  Uiso   1.00
C2075  C     0.85378   0.88032   0.71645   0.00000  Uiso   1.00
C2076  C     0.64346   0.61646   0.28479   0.00000  Uiso   1.00
C2077  C     0.61968   0.85378   0.71644   0.00000  Uiso   1.00
C2078  C     0.88085   0.64619   0.28386   0.00000  Uiso   1.00
C2079  C     0.64625   0.61966   0.71644   0.00000  Uiso   1.00
C2080  C     0.85259   0.87962   0.28283   0.00000  Uiso   1.00
C2081  C     0.87652   0.85031   0.28115   0.00000  Uiso   1.00
C2082  C     0.98435   0.72109   0.54142   0.00000  Uiso   1.00
C2083  C     0.61776   0.64480   0.71564   0.00000  Uiso   1.00
C2084  C     0.85231   0.62117   0.28273   0.00000  Uiso   1.00
C2085  C     0.64481   0.88227   0.71563   0.00000  Uiso   1.00
C2086  C     0.61829   0.64497   0.28413   0.00000  Uiso   1.00
C2087  C     0.88229   0.85520   0.71564   0.00000  Uiso   1.00
C2088  C     0.64444   0.88219   0.28448   0.00000  Uiso   1.00
C2089  C     0.85522   0.61775   0.71564   0.00000  Uiso   1.00
C2090  C     0.59797   0.84808   0.25003   0.00000  Uiso   1.00
C2091  C     0.90179   0.65176   0.75000   0.00000  Uiso   1.00
C2092  C     0.65203   0.59808   0.24997   0.00000  Uiso   1.00
H2093  H     0.72738   0.94605   0.02557   0.00000  Uiso   1.00
H2094  H     0.52263   0.69605   0.47443   0.00000  Uiso   1.00
H2095  H     0.89073   0.69219   0.08766   0.00000  Uiso   1.00
H2096  H     0.89438   0.95860   0.79306   0.00000  Uiso   1.00
H2097  H     0.91702   0.93043   0.82910   0.00000  Uiso   1.00
H2098  H     0.85241   0.98185   0.84542   0.00000  Uiso   1.00
H2099  H     0.87714   0.95539   0.88078   0.00000  Uiso   1.00
H2100  H     0.93427   0.98986   0.86445   0.00000  Uiso   1.00
H2101  H     0.89807   0.52001   0.87970   0.00000  Uiso   1.00
H2102  H     0.90926   0.51623   0.82878   0.00000  Uiso   1.00
H2103  H     0.68899   0.58195   0.14877   0.00000  Uiso   1.00
H2104  H     0.69385   0.61573   0.18572   0.00000  Uiso   1.00
H2105  H     0.80102   0.97180   0.52522   0.00000  Uiso   1.00
H2106  H     0.64391   0.62286   0.11342   0.00000  Uiso   1.00
H2107  H     0.65288   0.65776   0.14913   0.00000  Uiso   1.00
H2108  H     0.71918   0.65692   0.13101   0.00000  Uiso   1.00
H2109  H     0.69023   0.66760   0.09014   0.00000  Uiso   1.00
H2110  H     0.70969   0.62262   0.09448   0.00000  Uiso   1.00
H2111  H     0.95860   0.60563   0.79305   0.00000  Uiso   1.00
H2112  H     0.93040   0.58289   0.82903   0.00000  Uiso   1.00
H2113  H     0.98169   0.64755   0.84553   0.00000  Uiso   1.00
H2114  H     0.95523   0.62265   0.88081   0.00000  Uiso   1.00
H2115  H     0.51623   0.59085   0.82878   0.00000  Uiso   1.00
H2116  H     0.80364   0.52232   0.47463   0.00000  Uiso   1.00
H2117  H     0.98983   0.56561   0.86429   0.00000  Uiso   1.00
H2118  H     0.51986   0.60182   0.87975   0.00000  Uiso   1.00
H2119  H     0.58111   0.81244   0.14824   0.00000  Uiso   1.00
H2120  H     0.61496   0.80691   0.18497   0.00000  Uiso   1.00
H2121  H     0.62186   0.85775   0.11330   0.00000  Uiso   1.00
H2122  H     0.65681   0.84876   0.14891   0.00000  Uiso   1.00
H2123  H     0.65656   0.78262   0.13027   0.00000  Uiso   1.00
H2124  H     0.66679   0.81191   0.08950   0.00000  Uiso   1.00
H2125  H     0.62202   0.79199   0.09398   0.00000  Uiso   1.00
H2126  H     0.85567   0.70863   0.70695   0.00000  Uiso   1.00
H2127  H     0.52864   0.80104   0.52536   0.00000  Uiso   1.00
H2128  H     0.83297   0.68046   0.67096   0.00000  Uiso   1.00
H2129  H     0.89762   0.73178   0.65448   0.00000  Uiso   1.00
H2130  H     0.87276   0.70535   0.61919   0.00000  Uiso   1.00
H2131  H     0.81572   0.73994   0.63570   0.00000  Uiso   1.00
H2132  H     0.85193   0.76999   0.62026   0.00000  Uiso   1.00
H2133  H     0.84091   0.76631   0.67124   0.00000  Uiso   1.00
H2134  H     0.56101   0.83195   0.35123   0.00000  Uiso   1.00
H2135  H     0.55615   0.86574   0.31427   0.00000  Uiso   1.00
H2136  H     0.60609   0.87286   0.38658   0.00000  Uiso   1.00
H2137  H     0.59712   0.90776   0.35087   0.00000  Uiso   1.00
H2138  H     0.97836   0.80401   0.47482   0.00000  Uiso   1.00
H2139  H     0.53082   0.90693   0.36898   0.00000  Uiso   1.00
H2140  H     0.55977   0.91760   0.40985   0.00000  Uiso   1.00
H2141  H     0.54030   0.87262   0.40552   0.00000  Uiso   1.00
H2142  H     0.79141   0.85563   0.70694   0.00000  Uiso   1.00
H2143  H     0.81960   0.83289   0.67097   0.00000  Uiso   1.00
H2144  H     0.76832   0.89756   0.65447   0.00000  Uiso   1.00
H2145  H     0.79477   0.87265   0.61919   0.00000  Uiso   1.00
H2146  H     0.73377   0.84086   0.67122   0.00000  Uiso   1.00
H2147  H     0.76017   0.81562   0.63570   0.00000  Uiso   1.00
H2148  H     0.73015   0.85183   0.62024   0.00000  Uiso   1.00
H2149  H     0.69860   0.52777   0.52535   0.00000  Uiso   1.00
H2150  H     0.66890   0.56245   0.35176   0.00000  Uiso   1.00
H2151  H     0.63504   0.55691   0.31503   0.00000  Uiso   1.00
H2152  H     0.62814   0.60776   0.38670   0.00000  Uiso   1.00
H2153  H     0.59319   0.59876   0.35109   0.00000  Uiso   1.00
H2154  H     0.59344   0.53263   0.36973   0.00000  Uiso   1.00
H2155  H     0.58321   0.56191   0.41050   0.00000  Uiso   1.00
H2156  H     0.62798   0.54199   0.40602   0.00000  Uiso   1.00
H2157  H     0.64428   0.79133   0.70689   0.00000  Uiso   1.00
H2158  H     0.66712   0.81954   0.67100   0.00000  Uiso   1.00
H2159  H     0.60244   0.76834   0.65429   0.00000  Uiso   1.00
H2160  H     0.69604   0.97719   0.47462   0.00000  Uiso   1.00
H2161  H     0.62748   0.79478   0.61911   0.00000  Uiso   1.00
H2162  H     0.68440   0.76006   0.63572   0.00000  Uiso   1.00
H2163  H     0.64820   0.73012   0.62009   0.00000  Uiso   1.00
H2164  H     0.65900   0.73366   0.67110   0.00000  Uiso   1.00
H2165  H     0.92867   0.67664   0.35390   0.00000  Uiso   1.00
H2166  H     0.93763   0.64069   0.32034   0.00000  Uiso   1.00
H2167  H     0.88065   0.63783   0.38692   0.00000  Uiso   1.00
H2168  H     0.89247   0.60086   0.35469   0.00000  Uiso   1.00
H2169  H     0.95665   0.60208   0.37953   0.00000  Uiso   1.00
H2170  H     0.92408   0.59462   0.41809   0.00000  Uiso   1.00
H2171  H     0.60749   0.95710   0.20228   0.00000  Uiso   1.00
H2172  H     0.94470   0.63894   0.41221   0.00000  Uiso   1.00
H2173  H     0.70862   0.64436   0.70690   0.00000  Uiso   1.00
H2174  H     0.68047   0.66707   0.67090   0.00000  Uiso   1.00
H2175  H     0.73180   0.60240   0.65446   0.00000  Uiso   1.00
H2176  H     0.70538   0.62727   0.61916   0.00000  Uiso   1.00
H2177  H     0.76630   0.65913   0.67114   0.00000  Uiso   1.00
H2178  H     0.73995   0.68433   0.63561   0.00000  Uiso   1.00
H2179  H     0.77000   0.64811   0.62018   0.00000  Uiso   1.00
H2180  H     0.82311   0.92811   0.35236   0.00000  Uiso   1.00
H2181  H     0.86122   0.93473   0.32087   0.00000  Uiso   1.00
H2182  H     0.58605   0.92700   0.16724   0.00000  Uiso   1.00
H2183  H     0.85684   0.87795   0.38751   0.00000  Uiso   1.00
H2184  H     0.89602   0.88670   0.35719   0.00000  Uiso   1.00
H2185  H     0.89857   0.95096   0.38173   0.00000  Uiso   1.00
H2186  H     0.90154   0.91827   0.42083   0.00000  Uiso   1.00
H2187  H     0.85933   0.94219   0.41234   0.00000  Uiso   1.00
H2188  H     0.86945   0.77252   0.32114   0.00000  Uiso   1.00
H2189  H     0.85412   0.78814   0.27484   0.00000  Uiso   1.00
H2190  H     0.82025   0.81166   0.35356   0.00000  Uiso   1.00
H2191  H     0.80275   0.82105   0.30545   0.00000  Uiso   1.00
H2192  H     0.79419   0.75419   0.29395   0.00000  Uiso   1.00
H2193  H     0.65072   0.97795   0.14998   0.00000  Uiso   1.00
H2194  H     0.76907   0.77010   0.33578   0.00000  Uiso   1.00
H2195  H     0.81081   0.74492   0.34255   0.00000  Uiso   1.00
H2196  H     0.56603   0.67304   0.64796   0.00000  Uiso   1.00
H2197  H     0.55928   0.63771   0.68289   0.00000  Uiso   1.00
H2198  H     0.61209   0.63354   0.61264   0.00000  Uiso   1.00
H2199  H     0.60209   0.59723   0.64644   0.00000  Uiso   1.00
H2200  H     0.53660   0.59819   0.62582   0.00000  Uiso   1.00
H2201  H     0.56689   0.58981   0.58541   0.00000  Uiso   1.00
H2202  H     0.54674   0.63432   0.59156   0.00000  Uiso   1.00
H2203  H     0.78949   0.64662   0.28545   0.00000  Uiso   1.00
H2204  H     0.77781   0.94886   0.97479   0.00000  Uiso   1.00
H2205  H     0.62731   0.94935   0.11550   0.00000  Uiso   1.00
H2206  H     0.81582   0.67203   0.32100   0.00000  Uiso   1.00
H2207  H     0.76231   0.60956   0.33945   0.00000  Uiso   1.00
H2208  H     0.78759   0.63604   0.37440   0.00000  Uiso   1.00
H2209  H     0.73049   0.66603   0.31658   0.00000  Uiso   1.00
H2210  H     0.75566   0.69273   0.35184   0.00000  Uiso   1.00
H2211  H     0.72383   0.65840   0.36795   0.00000  Uiso   1.00
H2212  H     0.67317   0.93408   0.64802   0.00000  Uiso   1.00
H2213  H     0.63776   0.94078   0.68288   0.00000  Uiso   1.00
H2214  H     0.63377   0.88805   0.61259   0.00000  Uiso   1.00
H2215  H     0.59738   0.89801   0.64632   0.00000  Uiso   1.00
H2216  H     0.56930   0.98403   0.12811   0.00000  Uiso   1.00
H2217  H     0.59840   0.96355   0.62574   0.00000  Uiso   1.00
H2218  H     0.59012   0.93330   0.58529   0.00000  Uiso   1.00
H2219  H     0.63461   0.95343   0.59154   0.00000  Uiso   1.00
H2220  H     0.64257   0.70706   0.29771   0.00000  Uiso   1.00
H2221  H     0.66395   0.67699   0.33281   0.00000  Uiso   1.00
H2222  H     0.59930   0.72801   0.34992   0.00000  Uiso   1.00
H2223  H     0.62262   0.69942   0.38447   0.00000  Uiso   1.00
H2224  H     0.68069   0.73402   0.37194   0.00000  Uiso   1.00
H2225  H     0.64441   0.76348   0.38843   0.00000  Uiso   1.00
H2226  H     0.65671   0.76287   0.33765   0.00000  Uiso   1.00
H2227  H     0.60558   0.51343   0.11151   0.00000  Uiso   1.00
H2228  H     0.93411   0.82697   0.64797   0.00000  Uiso   1.00
H2229  H     0.94075   0.86237   0.68283   0.00000  Uiso   1.00
H2230  H     0.88802   0.86632   0.61259   0.00000  Uiso   1.00
H2231  H     0.89791   0.90270   0.64631   0.00000  Uiso   1.00
H2232  H     0.96343   0.90184   0.62567   0.00000  Uiso   1.00
H2233  H     0.93317   0.91008   0.58525   0.00000  Uiso   1.00
H2234  H     0.95339   0.86562   0.59149   0.00000  Uiso   1.00
H2235  H     0.70784   0.86156   0.30378   0.00000  Uiso   1.00
H2236  H     0.67505   0.83807   0.33428   0.00000  Uiso   1.00
H2237  H     0.71990   0.90490   0.35966   0.00000  Uiso   1.00
H2238  H     0.59337   0.51289   0.16231   0.00000  Uiso   1.00
H2239  H     0.68936   0.87843   0.38946   0.00000  Uiso   1.00
H2240  H     0.76004   0.85123   0.35035   0.00000  Uiso   1.00
H2241  H     0.72925   0.82315   0.37873   0.00000  Uiso   1.00
H2242  H     0.75340   0.86045   0.40133   0.00000  Uiso   1.00
H2243  H     0.82699   0.56598   0.64799   0.00000  Uiso   1.00
H2244  H     0.86236   0.55928   0.68283   0.00000  Uiso   1.00
H2245  H     0.86638   0.61207   0.61258   0.00000  Uiso   1.00
H2246  H     0.90273   0.60214   0.64629   0.00000  Uiso   1.00
H2247  H     0.90183   0.53661   0.62567   0.00000  Uiso   1.00
H2248  H     0.91012   0.56689   0.58524   0.00000  Uiso   1.00
H2249  H     0.81590   0.57696   0.85203   0.00000  Uiso   1.00
H2250  H     0.86565   0.54669   0.59150   0.00000  Uiso   1.00
H2251  H     0.69377   0.88942   0.09904   0.00000  Uiso   1.00
H2252  H     0.81775   0.89626   0.90145   0.00000  Uiso   1.00
H2253  H     0.61110   0.69394   0.09817   0.00000  Uiso   1.00
H2254  H     0.60410   0.81735   0.90119   0.00000  Uiso   1.00
H2255  H     0.80259   0.61285   0.09706   0.00000  Uiso   1.00
H2256  H     0.68199   0.60369   0.90107   0.00000  Uiso   1.00
H2257  H     0.88908   0.80536   0.09831   0.00000  Uiso   1.00
H2258  H     0.89610   0.68246   0.90138   0.00000  Uiso   1.00
H2259  H     0.93222   0.64628   0.59856   0.00000  Uiso   1.00
H2260  H     0.80925   0.61236   0.81718   0.00000  Uiso   1.00
H2261  H     0.55625   0.63942   0.40096   0.00000  Uiso   1.00
H2262  H     0.85390   0.93246   0.59862   0.00000  Uiso   1.00
H2263  H     0.86092   0.55535   0.40169   0.00000  Uiso   1.00
H2264  H     0.56803   0.85368   0.59893   0.00000  Uiso   1.00
H2265  H     0.94737   0.86282   0.40293   0.00000  Uiso   1.00
H2266  H     0.64590   0.56736   0.59881   0.00000  Uiso   1.00
H2267  H     0.63889   0.94394   0.40184   0.00000  Uiso   1.00
H2268  H     0.86199   0.61631   0.88741   0.00000  Uiso   1.00
H2269  H     0.85210   0.65270   0.85369   0.00000  Uiso   1.00
H2270  H     0.78658   0.65183   0.87434   0.00000  Uiso   1.00
H2271  H     0.81684   0.66007   0.91476   0.00000  Uiso   1.00
H2272  H     0.55396   0.72718   0.02538   0.00000  Uiso   1.00
H2273  H     0.79662   0.61561   0.90852   0.00000  Uiso   1.00
H2274  H     0.54216   0.61156   0.19623   0.00000  Uiso   1.00
H2275  H     0.57495   0.58807   0.16572   0.00000  Uiso   1.00
H2276  H     0.53010   0.65490   0.14034   0.00000  Uiso   1.00
H2277  H     0.56064   0.62843   0.11055   0.00000  Uiso   1.00
H2278  H     0.98996   0.60123   0.14966   0.00000  Uiso   1.00
H2279  H     0.52074   0.57315   0.12128   0.00000  Uiso   1.00
H2280  H     0.99659   0.61045   0.09868   0.00000  Uiso   1.00
H2281  H     0.92300   0.81597   0.85201   0.00000  Uiso   1.00
H2282  H     0.88763   0.80928   0.81716   0.00000  Uiso   1.00
H2283  H     0.55140   0.77777   0.97465   0.00000  Uiso   1.00
H2284  H     0.88361   0.86207   0.88742   0.00000  Uiso   1.00
H2285  H     0.84726   0.85214   0.85370   0.00000  Uiso   1.00
H2286  H     0.84816   0.78661   0.87432   0.00000  Uiso   1.00
H2287  H     0.83987   0.81689   0.91475   0.00000  Uiso   1.00
H2288  H     0.88434   0.79669   0.90850   0.00000  Uiso   1.00
H2289  H     0.88055   0.52251   0.17887   0.00000  Uiso   1.00
H2290  H     0.89588   0.53814   0.22517   0.00000  Uiso   1.00
H2291  H     0.92976   0.56165   0.14645   0.00000  Uiso   1.00
H2292  H     0.94725   0.57104   0.19456   0.00000  Uiso   1.00
H2293  H     0.95582   0.50418   0.20607   0.00000  Uiso   1.00
H2294  H     0.77163   0.55402   0.02518   0.00000  Uiso   1.00
H2295  H     0.98094   0.52009   0.16424   0.00000  Uiso   1.00
H2296  H     0.93920   0.99491   0.15747   0.00000  Uiso   1.00
H2297  H     0.68397   0.92304   0.85204   0.00000  Uiso   1.00
H2298  H     0.69072   0.88771   0.81711   0.00000  Uiso   1.00
H2299  H     0.63791   0.88354   0.88736   0.00000  Uiso   1.00
H2300  H     0.64791   0.84724   0.85357   0.00000  Uiso   1.00
H2301  H     0.71340   0.84819   0.87418   0.00000  Uiso   1.00
H2302  H     0.68311   0.83982   0.91460   0.00000  Uiso   1.00
H2303  H     0.70326   0.88433   0.90844   0.00000  Uiso   1.00
H2304  H     0.96051   0.89661   0.21455   0.00000  Uiso   1.00
H2305  H     0.72137   0.55104   0.97464   0.00000  Uiso   1.00
H2306  H     0.93419   0.92203   0.17901   0.00000  Uiso   1.00
H2307  H     0.98768   0.85955   0.16054   0.00000  Uiso   1.00
H2308  H     0.96241   0.88606   0.12560   0.00000  Uiso   1.00
H2309  H     0.99436   0.94272   0.14819   0.00000  Uiso   1.00
H2310  H     0.52618   0.90839   0.13206   0.00000  Uiso   1.00
H2311  H     0.51952   0.91601   0.18343   0.00000  Uiso   1.00
H2312  H     0.57683   0.68407   0.85199   0.00000  Uiso   1.00
H2313  H     0.61224   0.69078   0.81713   0.00000  Uiso   1.00
H2314  H     0.61624   0.63804   0.88741   0.00000  Uiso   1.00
H2315  H     0.65262   0.64801   0.85368   0.00000  Uiso   1.00
H2316  H     0.94637   0.77232   0.02537   0.00000  Uiso   1.00
H2317  H     0.65160   0.71355   0.87426   0.00000  Uiso   1.00
H2318  H     0.65988   0.68329   0.91470   0.00000  Uiso   1.00
H2319  H     0.61539   0.70342   0.90846   0.00000  Uiso   1.00
H2320  H     0.60565   0.54137   0.79308   0.00000  Uiso   1.00
H2321  H     0.58289   0.56954   0.82907   0.00000  Uiso   1.00
H2322  H     0.64755   0.51826   0.84556   0.00000  Uiso   1.00
H2323  H     0.62261   0.54468   0.88084   0.00000  Uiso   1.00
H2324  H     0.56563   0.51004   0.86432   0.00000  Uiso   1.00
H2325  H     0.60184   0.98002   0.87977   0.00000  Uiso   1.00
H2326  H     0.59091   0.98368   0.82880   0.00000  Uiso   1.00
H2327  H     0.94898   0.72180   0.97478   0.00000  Uiso   1.00
H2328  H     0.82133   0.92664   0.14610   0.00000  Uiso   1.00
H2329  H     0.81236   0.89069   0.17967   0.00000  Uiso   1.00
H2330  H     0.86934   0.88783   0.11308   0.00000  Uiso   1.00
H2331  H     0.85752   0.85086   0.14532   0.00000  Uiso   1.00
H2332  H     0.79335   0.85208   0.12047   0.00000  Uiso   1.00
H2333  H     0.82591   0.84462   0.08191   0.00000  Uiso   1.00
H2334  H     0.80529   0.88894   0.08779   0.00000  Uiso   1.00
H2335  H     0.54138   0.89436   0.79310   0.00000  Uiso   1.00
H2336  H     0.56953   0.91707   0.82910   0.00000  Uiso   1.00
H2337  H     0.51820   0.85240   0.84554   0.00000  Uiso   1.00
H2338  H     0.97218   0.69886   0.52521   0.00000  Uiso   1.00
H2339  H     0.54462   0.87726   0.88085   0.00000  Uiso   1.00
H2340  H     0.98370   0.90913   0.82886   0.00000  Uiso   1.00
H2341  H     0.51006   0.93433   0.86440   0.00000  Uiso   1.00
H2342  H     0.98000   0.89811   0.87982   0.00000  Uiso   1.00
H2343  H     0.92689   0.67813   0.14768   0.00000  Uiso   1.00
H2344  H     0.88874   0.68469   0.17911   0.00000  Uiso   1.00
H2345  H     0.89327   0.62794   0.11246   0.00000  Uiso   1.00
H2346  H     0.85404   0.63663   0.14273   0.00000  Uiso   1.00
H2347  H     0.85143   0.70090   0.11821   0.00000  Uiso   1.00
H2348  H     0.84856   0.66822   0.07909   0.00000  Uiso   1.00
O2349  O     0.75000   0.50000   0.25000   0.00000  Uiso   1.00
O2350  O     0.75000   0.96964   0.66317   0.00000  Uiso   1.00
O2351  O     0.91776   0.69096   0.91725   0.00000  Uiso   1.00
O2352  O     0.97877   0.67809   0.63358   0.00000  Uiso   1.00
O2353  O     0.94090   0.66787   0.58267   0.00000  Uiso   1.00
O2354  O     0.51449   0.67691   0.36548   0.00000  Uiso   1.00
O2355  O     0.54970   0.66162   0.41708   0.00000  Uiso   1.00
O2356  O     0.82195   0.97907   0.63349   0.00000  Uiso   1.00
O2357  O     0.83224   0.94096   0.58275   0.00000  Uiso   1.00
O2358  O     0.82296   0.51452   0.36558   0.00000  Uiso   1.00
O2359  O     0.83857   0.54899   0.41766   0.00000  Uiso   1.00
O2360  O     0.52115   0.82195   0.63361   0.00000  Uiso   1.00
O2361  O     0.96964   0.75000   0.33683   0.00000  Uiso   1.00
O2362  O     0.55950   0.83206   0.58301   0.00000  Uiso   1.00
O2363  O     0.98415   0.82250   0.36490   0.00000  Uiso   1.00
O2364  O     0.95366   0.84045   0.41889   0.00000  Uiso   1.00
O2365  O     0.67803   0.52098   0.63378   0.00000  Uiso   1.00
O2366  O     0.66752   0.55881   0.58288   0.00000  Uiso   1.00
O2367  O     0.67732   0.98385   0.36510   0.00000  Uiso   1.00
O2368  O     0.66096   0.95083   0.41798   0.00000  Uiso   1.00
O2369  O     0.53036   0.75000   0.66317   0.00000  Uiso   1.00
O2370  O     0.50000   0.71964   0.83683   0.00000  Uiso   1.00
O2371  O     0.50000   0.78036   0.16317   0.00000  Uiso   1.00
O2372  O     0.78036   0.50000   0.83683   0.00000  Uiso   1.00
O2373  O     0.71964   0.50000   0.16317   0.00000  Uiso   1.00
O2374  O     0.50000   0.78036   0.83683   0.00000  Uiso   1.00
O2375  O     0.50000   0.71964   0.16317   0.00000  Uiso   1.00
O2376  O     0.71964   0.50000   0.83683   0.00000  Uiso   1.00
O2377  O     0.75000   0.50000   0.75000   0.00000  Uiso   1.00
O2378  O     0.78036   0.50000   0.16317   0.00000  Uiso   1.00
O2379  O     0.70726   0.57307   0.27282   0.00000  Uiso   1.00
O2380  O     0.79275   0.92693   0.72718   0.00000  Uiso   1.00
O2381  O     0.92693   0.70726   0.27282   0.00000  Uiso   1.00
O2382  O     0.57307   0.79275   0.72718   0.00000  Uiso   1.00
O2383  O     0.79275   0.92693   0.27282   0.00000  Uiso   1.00
O2384  O     0.70726   0.57307   0.72718   0.00000  Uiso   1.00
O2385  O     0.57307   0.79275   0.27282   0.00000  Uiso   1.00
O2386  O     0.92693   0.70726   0.72718   0.00000  Uiso   1.00
O2387  O     0.70726   0.92693   0.72718   0.00000  Uiso   1.00
O2388  O     0.50000   0.75000   0.25000   0.00000  Uiso   1.00
O2389  O     0.79275   0.57307   0.27282   0.00000  Uiso   1.00
O2390  O     0.92693   0.79275   0.72718   0.00000  Uiso   1.00
O2391  O     0.57307   0.70726   0.27282   0.00000  Uiso   1.00
O2392  O     0.79275   0.57307   0.72718   0.00000  Uiso   1.00
O2393  O     0.70726   0.92693   0.27282   0.00000  Uiso   1.00
O2394  O     0.57307   0.70726   0.72718   0.00000  Uiso   1.00
O2395  O     0.92693   0.79275   0.27282   0.00000  Uiso   1.00
O2396  O     0.95726   0.82307   0.77282   0.00000  Uiso   1.00
O2397  O     0.54275   0.67693   0.22718   0.00000  Uiso   1.00
O2398  O     0.67693   0.95726   0.77282   0.00000  Uiso   1.00
O2399  O     0.50000   0.75000   0.75000   0.00000  Uiso   1.00
O2400  O     0.82307   0.54275   0.22718   0.00000  Uiso   1.00
O2401  O     0.54275   0.67693   0.77282   0.00000  Uiso   1.00
O2402  O     0.95726   0.82307   0.22718   0.00000  Uiso   1.00
O2403  O     0.82307   0.54275   0.77282   0.00000  Uiso   1.00
O2404  O     0.67693   0.95726   0.22718   0.00000  Uiso   1.00
O2405  O     0.95726   0.67693   0.22718   0.00000  Uiso   1.00
O2406  O     0.54275   0.82307   0.77282   0.00000  Uiso   1.00
O2407  O     0.67693   0.54275   0.22718   0.00000  Uiso   1.00
O2408  O     0.82307   0.95726   0.77282   0.00000  Uiso   1.00
O2409  O     0.54275   0.82307   0.22718   0.00000  Uiso   1.00
O2410  O     0.75000   0.96964   0.33683   0.00000  Uiso   1.00
O2411  O     0.95726   0.67693   0.77282   0.00000  Uiso   1.00
O2412  O     0.82307   0.95726   0.22718   0.00000  Uiso   1.00
O2413  O     0.67693   0.54275   0.77282   0.00000  Uiso   1.00
O2414  O     0.63942   0.91374   0.18187   0.00000  Uiso   1.00
O2415  O     0.86103   0.58614   0.81846   0.00000  Uiso   1.00
O2416  O     0.58844   0.64151   0.18104   0.00000  Uiso   1.00
O2417  O     0.91381   0.86109   0.81846   0.00000  Uiso   1.00
O2418  O     0.87167   0.57700   0.18717   0.00000  Uiso   1.00
O2419  O     0.63889   0.91384   0.81848   0.00000  Uiso   1.00
O2420  O     0.92002   0.86735   0.18503   0.00000  Uiso   1.00
O2421  O     0.75000   0.53036   0.66317   0.00000  Uiso   1.00
O2422  O     0.58612   0.63894   0.81848   0.00000  Uiso   1.00
O2423  O     0.63662   0.58381   0.81708   0.00000  Uiso   1.00
O2424  O     0.86413   0.91671   0.18270   0.00000  Uiso   1.00
O2425  O     0.58377   0.86332   0.81708   0.00000  Uiso   1.00
O2426  O     0.91789   0.63464   0.18368   0.00000  Uiso   1.00
O2427  O     0.86330   0.91622   0.81707   0.00000  Uiso   1.00
O2428  O     0.64240   0.58935   0.18042   0.00000  Uiso   1.00
O2429  O     0.91617   0.63664   0.81707   0.00000  Uiso   1.00
O2430  O     0.58871   0.85851   0.18069   0.00000  Uiso   1.00
O2431  O     0.88670   0.66622   0.68293   0.00000  Uiso   1.00
O2432  O     0.53036   0.75000   0.33683   0.00000  Uiso   1.00
O2433  O     0.60760   0.83935   0.31958   0.00000  Uiso   1.00
O2434  O     0.83383   0.88664   0.68293   0.00000  Uiso   1.00
O2435  O     0.66129   0.60851   0.31931   0.00000  Uiso   1.00
O2436  O     0.61337   0.83381   0.68291   0.00000  Uiso   1.00
O2437  O     0.88587   0.66671   0.31730   0.00000  Uiso   1.00
O2438  O     0.66623   0.61332   0.68292   0.00000  Uiso   1.00
O2439  O     0.83212   0.88465   0.31632   0.00000  Uiso   1.00
O2440  O     0.87834   0.82701   0.31284   0.00000  Uiso   1.00
O2441  O     0.61111   0.66384   0.68152   0.00000  Uiso   1.00
O2442  O     0.82998   0.61735   0.31497   0.00000  Uiso   1.00
O2443  O     0.96964   0.75000   0.66317   0.00000  Uiso   1.00
O2444  O     0.66388   0.88894   0.68152   0.00000  Uiso   1.00
O2445  O     0.61058   0.66374   0.31812   0.00000  Uiso   1.00
O2446  O     0.88898   0.83615   0.68153   0.00000  Uiso   1.00
O2447  O     0.66156   0.89151   0.31896   0.00000  Uiso   1.00
O2448  O     0.83619   0.61110   0.68154   0.00000  Uiso   1.00
O2449  O     0.73553   0.92691   0.13452   0.00000  Uiso   1.00
O2450  O     0.70031   0.91162   0.08292   0.00000  Uiso   1.00
O2451  O     0.77122   0.92809   0.86642   0.00000  Uiso   1.00
O2452  O     0.80909   0.91786   0.91733   0.00000  Uiso   1.00
O2453  O     0.57268   0.73385   0.13490   0.00000  Uiso   1.00
O2454  O     0.75000   0.53036   0.33683   0.00000  Uiso   1.00
O2455  O     0.58904   0.70083   0.08202   0.00000  Uiso   1.00
O2456  O     0.57197   0.77098   0.86622   0.00000  Uiso   1.00
O2457  O     0.58248   0.80880   0.91713   0.00000  Uiso   1.00
O2458  O     0.76586   0.57249   0.13511   0.00000  Uiso   1.00
O2459  O     0.79630   0.59048   0.08110   0.00000  Uiso   1.00
O2460  O     0.72886   0.57195   0.86639   0.00000  Uiso   1.00
O2461  O     0.69052   0.58207   0.91699   0.00000  Uiso   1.00
O2462  O     0.92704   0.76453   0.13442   0.00000  Uiso   1.00
O2463  O     0.91143   0.79900   0.08234   0.00000  Uiso   1.00
O2464  O     0.92805   0.72908   0.86651   0.00000  Uiso   1.00
Zn2465 Zn    0.70660   0.50000   0.21760   0.00000  Uiso   1.00
Zn2466 Zn    0.54340   0.75000   0.28240   0.00000  Uiso   1.00
Zn2467 Zn    0.75000   0.95660   0.71760   0.00000  Uiso   1.00
Zn2468 Zn    0.75000   0.54340   0.28240   0.00000  Uiso   1.00
Zn2469 Zn    0.54340   0.75000   0.71760   0.00000  Uiso   1.00
Zn2470 Zn    0.95660   0.75000   0.28240   0.00000  Uiso   1.00
Zn2471 Zn    0.75000   0.54340   0.71760   0.00000  Uiso   1.00
Zn2472 Zn    0.75000   0.95660   0.28240   0.00000  Uiso   1.00
Zn2473 Zn    0.79340   0.50000   0.78240   0.00000  Uiso   1.00
Zn2474 Zn    0.50000   0.70660   0.21760   0.00000  Uiso   1.00
Zn2475 Zn    0.50000   0.79340   0.78240   0.00000  Uiso   1.00
Zn2476 Zn    0.79340   0.50000   0.21760   0.00000  Uiso   1.00
Zn2477 Zn    0.70660   0.50000   0.78240   0.00000  Uiso   1.00
Zn2478 Zn    0.50000   0.79340   0.21760   0.00000  Uiso   1.00
Zn2479 Zn    0.50000   0.70660   0.78240   0.00000  Uiso   1.00
Zn2480 Zn    0.95660   0.75000   0.71760   0.00000  Uiso   1.00
loop_
_geom_bond_atom_site_label_1
_geom_bond_atom_site_label_2
_geom_bond_distance
_geom_bond_site_symmetry_2
_ccdc_geom_bond_type
C1     H233    1.084   .     S
C1     C79     1.396   .     A
C1     C1400   1.396   .     S
C2     C152    1.396   .     A
C2     C165    1.396   .     A
C2     H234    1.084   .     S
C3     C215    1.411   .     A
C3     C208    1.411   .     A
C3     C179    1.460   .     S
C4     C218    1.410   .     A
C4     C180    1.453   .     S
C4     C207    1.409   .     A
C5     C217    1.411   .     A
C5     C181    1.460   .     S
C5     C206    1.411   .     A
C6     C205    1.410   .     A
C6     C182    1.453   .     S
C6     C220    1.409   .     A
C7     C204    1.411   .     A
C7     C183    1.460   .     S
C7     C219    1.411   .     A
C8     C193    1.453   .     S
C8     C203    1.410   .     A
C8     C223    1.410   .     A
C9     C202    1.412   .     A
C9     C194    1.461   .     S
C9     C221    1.416   .     A
C10    C225    1.410   .     A
C10    C201    1.410   .     A
C10    C186    1.453   .     S
C11    C199    1.416   .     A
C11    C224    1.412   .     A
C11    C187    1.461   .     S
C12    C227    1.410   .     A
C12    C198    1.410   .     A
C12    C188    1.453   .     S
C13    C166    1.396   .     A
C13    H245    1.084   .     S
C13    C153    1.396   .     A
C14    C197    1.410   .     A
C14    C190    1.459   .     S
C14    C226    1.410   .     A
C15    C191    1.453   .     S
C15    C196    1.410   .     A
C15    C229    1.410   .     A
C16    C228    1.410   .     A
C16    C195    1.410   .     A
C16    C192    1.459   .     S
C17    C124    1.421   .     A
C17    C176    1.454   .     S
C17    C1319   1.420   1_545 S
C18    C90     1.420   .     A
C18    C175    1.456   .     S
C18    C1375   1.420   .     S
C19    C174    1.454   .     S
C19    C101    1.421   .     A
C19    C766    1.420   1_455 S
C20    C113    1.420   .     A
C20    C173    1.456   .     S
C20    C770    1.420   1_455 S
C21    C172    1.456   .     S
C21    C155    1.420   .     A
C21    C771    1.420   1_455 S
C22    C152    1.420   .     A
C22    C777    1.421   1_455 S
C22    C171    1.454   .     S
C23    C153    1.420   .     A
C23    C1410   1.456   .     S
C23    C1398   1.420   .     S
C24    C154    1.396   .     A
C24    H256    1.084   .     S
C24    C1408   1.396   1_545 S
C25    C159    1.421   .     A
C25    C169    1.454   .     S
C25    C1394   1.420   .     S
C26    H311    1.116   .     S
C26    C27     1.528   .     S
C26    O554    1.414   .     S
C26    H322    1.111   .     S
C27    H333    1.111   .     S
C27    H345    1.112   .     S
C27    C28     1.527   .     S
C28    H356    1.111   .     S
C28    H1607   1.110   .     S
C28    H1618   1.111   .     S
C29    C30     1.530   .     S
C29    H389    1.111   .     S
C29    H400    1.117   .     S
C29    O555    1.417   .     S
C30    H408    1.112   .     S
C30    H409    1.111   .     S
C30    C31     1.526   .     S
C31    H410    1.111   .     S
C31    H411    1.110   .     S
C31    H413    1.111   .     S
C32    H415    1.113   .     S
C32    O556    1.413   .     S
C32    C33     1.528   .     S
C32    H414    1.115   .     S
C33    H417    1.112   .     S
C33    H416    1.111   .     S
C33    C34     1.525   .     S
C34    H419    1.111   .     S
C34    H1038   1.109   1_455 S
C34    H1040   1.110   1_455 S
C35    H267    1.084   .     S
C35    C155    1.396   .     A
C35    C164    1.396   .     A
C36    H422    1.117   .     S
C36    C37     1.530   .     S
C36    O557    1.417   .     S
C36    H421    1.111   .     S
C37    C38     1.526   .     S
C37    H424    1.112   .     S
C37    H425    1.111   .     S
C38    H428    1.111   .     S
C38    H426    1.111   .     S
C38    H427    1.110   .     S
C39    H429    1.112   .     S
C39    C40     1.531   .     S
C39    O558    1.420   .     S
C39    H430    1.117   .     S
C40    H431    1.112   .     S
C40    C41     1.527   .     S
C40    H432    1.110   .     S
C41    H435    1.111   .     S
C41    H433    1.111   .     S
C41    H1676   1.111   1_545 S
C42    O559    1.417   .     S
C42    H438    1.117   .     S
C42    H437    1.111   .     S
C42    C43     1.530   .     S
C43    C44     1.526   .     S
C43    H440    1.111   .     S
C43    H439    1.112   .     S
C44    H442    1.110   .     S
C44    H441    1.111   .     S
C44    H443    1.111   .     S
C45    H444    1.117   .     S
C45    C47     1.528   .     S
C45    H446    1.113   .     S
C45    O560    1.414   .     S
C46    H278    1.084   .     S
C46    C157    1.397   .     A
C46    C785    1.396   .     S
C47    H447    1.112   .     S
C47    H448    1.112   .     S
C47    C668    1.526   .     S
C48    H451    1.111   .     S
C48    H450    1.110   .     S
C48    C667    1.526   1_455 S
C48    H1069   1.111   1_455 S
C49    H452    1.111   .     S
C49    H453    1.117   .     S
C49    C50     1.530   .     S
C49    O562    1.417   .     S
C50    C51     1.526   .     S
C50    H455    1.111   .     S
C50    H454    1.112   .     S
C51    H457    1.111   .     S
C51    H458    1.110   .     S
C51    H459    1.111   .     S
C52    O563    1.414   .     S
C52    C53     1.528   .     S
C52    H461    1.112   .     S
C52    H460    1.117   .     S
C53    H463    1.112   .     S
C53    H462    1.111   .     S
C53    C1294   1.526   1_545 S
C54    H465    1.110   .     S
C54    H466    1.111   .     S
C54    C1293   1.526   .     S
C54    H1704   1.111   .     S
C55    H469    1.117   .     S
C55    H468    1.111   .     S
C55    C56     1.531   .     S
C55    O564    1.417   .     S
C56    C58     1.526   .     S
C56    H471    1.111   .     S
C56    H470    1.112   .     S
C57    C158    1.397   .     A
C57    H289    1.084   .     S
C57    C1406   1.396   1_545 S
C58    H472    1.111   .     S
C58    H473    1.110   .     S
C58    H474    1.111   .     S
C59    C60     1.528   .     S
C59    H475    1.117   .     S
C59    H476    1.112   .     S
C59    O565    1.414   .     S
C60    H477    1.111   .     S
C60    H479    1.112   .     S
C60    C681    1.526   1_455 S
C61    H482    1.110   .     S
C61    H480    1.111   .     S
C61    C680    1.526   .     S
C61    H1101   1.111   .     S
C62    H484    1.117   .     S
C62    O566    1.417   .     S
C62    C63     1.530   .     S
C62    H483    1.111   .     S
C63    H485    1.112   .     S
C63    C64     1.526   .     S
C63    H486    1.111   .     S
C64    H235    1.111   .     S
C64    H488    1.110   .     S
C64    H487    1.111   .     S
C65    H237    1.112   .     S
C65    H236    1.117   .     S
C65    C66     1.528   .     S
C65    O567    1.414   .     S
C66    H239    1.112   .     S
C66    H238    1.111   .     S
C66    C1307   1.526   .     S
C67    H242    1.111   .     S
C67    H241    1.110   .     S
C67    C1306   1.526   1_545 S
C67    H1480   1.111   1_545 S
C68    H300    1.084   .     S
C68    C168    1.396   .     A
C68    C159    1.397   .     A
C69    O568    1.417   .     S
C69    H244    1.117   .     S
C69    C70     1.531   .     S
C69    H243    1.111   .     S
C70    H247    1.111   .     S
C70    C71     1.526   .     S
C70    H246    1.112   .     S
C71    H249    1.110   .     S
C71    H248    1.111   .     S
C71    H250    1.111   .     S
C72    C73     1.528   .     S
C72    H251    1.117   .     S
C72    H252    1.112   .     S
C72    O569    1.414   .     S
C73    H254    1.112   .     S
C73    H253    1.111   .     S
C73    C694    1.526   .     S
C74    H258    1.110   .     S
C74    H255    1.111   .     S
C74    C693    1.526   1_455 S
C74    H877    1.111   1_455 S
C75    O570    1.416   .     S
C75    H259    1.111   .     S
C75    C76     1.531   .     S
C75    H260    1.117   .     S
C76    H262    1.111   .     S
C76    H261    1.112   .     S
C76    C77     1.526   .     S
C77    H263    1.111   .     S
C77    H265    1.111   .     S
C77    H264    1.110   .     S
C78    H266    1.117   .     S
C78    C80     1.528   .     S
C78    O571    1.414   .     S
C78    H268    1.112   .     S
C79    C132    1.493   .     S
C79    C1257   1.420   .     S
C80    H269    1.111   .     S
C80    C81     1.526   .     S
C80    H270    1.112   .     S
C81    H272    1.110   .     S
C81    H273    1.111   .     S
C81    H271    1.111   .     S
C82    H274    1.111   .     S
C82    H275    1.117   .     S
C82    O573    1.417   .     S
C82    C83     1.531   .     S
C83    H277    1.111   .     S
C83    C84     1.526   .     S
C83    H276    1.112   .     S
C84    H279    1.111   .     S
C84    H281    1.111   .     S
C84    H280    1.110   .     S
C85    H283    1.112   .     S
C85    C86     1.528   .     S
C85    H282    1.117   .     S
C85    O574    1.414   .     S
C86    H284    1.111   .     S
C86    C87     1.526   .     S
C86    H285    1.112   .     S
C87    H287    1.111   .     S
C87    H288    1.110   .     S
C87    H286    1.111   .     S
C88    H290    1.111   .     S
C88    O575    1.416   .     S
C88    C89     1.531   .     S
C88    H291    1.117   .     S
C89    H292    1.112   .     S
C89    H293    1.111   .     S
C89    C91     1.526   .     S
C90    C133    1.491   .     S
C90    C112    1.397   .     A
C91    H296    1.111   .     S
C91    H294    1.111   .     S
C91    H295    1.110   .     S
C92    O576    1.414   .     S
C92    H297    1.117   .     S
C92    H298    1.112   .     S
C92    C93     1.528   .     S
C93    H299    1.111   .     S
C93    C94     1.526   .     S
C93    H301    1.112   .     S
C94    H302    1.111   .     S
C94    H303    1.110   .     S
C94    H304    1.111   .     S
C95    H305    1.111   .     S
C95    O577    1.417   .     S
C95    C96     1.531   .     S
C95    H306    1.117   .     S
C96    H307    1.112   .     S
C96    C97     1.526   .     S
C96    H308    1.111   .     S
C97    H310    1.110   .     S
C97    H312    1.111   .     S
C97    H309    1.111   .     S
C98    O578    1.414   .     S
C98    H314    1.112   .     S
C98    C99     1.528   .     S
C98    H313    1.117   .     S
C99    H316    1.112   .     S
C99    C100    1.526   .     S
C99    H315    1.111   .     S
C100   H317    1.111   .     S
C100   H319    1.110   .     S
C100   H318    1.111   .     S
C101   C156    1.397   .     A
C101   C134    1.494   .     S
C102   O579    1.417   .     S
C102   C103    1.530   .     S
C102   H320    1.111   .     S
C102   H321    1.117   .     S
C103   H324    1.111   .     S
C103   C104    1.526   .     S
C103   H323    1.112   .     S
C104   H325    1.111   .     S
C104   H327    1.111   .     S
C104   H326    1.110   .     S
C105   H329    1.117   .     S
C105   O580    1.420   .     S
C105   H328    1.112   .     S
C105   C106    1.531   .     S
C106   C107    1.527   .     S
C106   H331    1.110   .     S
C106   H330    1.112   .     S
C107   H334    1.111   .     S
C107   H332    1.111   .     S
C107   H335    1.111   .     S
C108   C109    1.530   .     S
C108   O581    1.417   .     S
C108   H337    1.117   .     S
C108   H336    1.111   .     S
C109   H338    1.112   .     S
C109   C110    1.526   .     S
C109   H339    1.111   .     S
C110   H341    1.110   .     S
C110   H342    1.111   .     S
C110   H340    1.111   .     S
C111   C114    1.528   .     S
C111   O582    1.414   .     S
C111   H343    1.116   .     S
C111   H346    1.113   .     S
C112   H344    1.084   .     S
C112   C161    1.396   .     A
C113   C167    1.397   .     A
C113   C136    1.491   .     S
C114   C115    1.526   .     S
C114   H347    1.112   .     S
C114   H348    1.112   .     S
C115   H350    1.111   .     S
C115   H349    1.111   .     S
C115   H351    1.110   .     S
C116   O584    1.417   .     S
C116   H352    1.111   .     S
C116   C117    1.530   .     S
C116   H353    1.117   .     S
C117   C118    1.526   .     S
C117   H355    1.111   .     S
C117   H354    1.112   .     S
C118   H357    1.111   .     S
C118   H358    1.110   .     S
C118   H359    1.111   .     S
C119   H361    1.111   .     S
C119   C120    1.528   .     S
C119   O585    1.414   .     S
C119   H360    1.116   .     S
C120   C121    1.527   .     S
C120   H363    1.112   .     S
C120   H362    1.111   .     S
C121   H365    1.110   .     S
C121   H364    1.111   .     S
C121   H366    1.111   .     S
C122   H368    1.111   .     S
C122   H369    1.117   .     S
C122   O586    1.417   .     S
C122   C123    1.530   .     S
C123   C125    1.526   .     S
C123   H370    1.112   .     S
C123   H371    1.111   .     S
C124   C137    1.495   .     S
C124   C178    1.397   .     A
C125   H373    1.110   .     S
C125   H374    1.111   .     S
C125   H372    1.111   .     S
C126   C127    1.528   .     S
C126   H376    1.113   .     S
C126   O587    1.413   .     S
C126   H375    1.115   .     S
C127   H379    1.112   .     S
C127   H377    1.111   .     S
C127   C128    1.525   .     S
C128   H381    1.111   .     S
C128   H382    1.110   .     S
C128   H380    1.109   .     S
C129   C130    1.530   .     S
C129   H384    1.117   .     S
C129   O588    1.417   .     S
C129   H383    1.111   .     S
C130   H386    1.111   .     S
C130   C131    1.526   .     S
C130   H385    1.112   .     S
C131   H388    1.110   .     S
C131   H387    1.111   .     S
C131   H390    1.111   .     S
C132   O589    1.223   .     D
C132   O590    1.399   .     S
C133   O592    1.399   .     S
C133   O591    1.223   .     D
C134   O595    1.399   .     S
C134   O593    1.223   .     D
C135   C138    1.491   .     S
C135   C189    1.396   .     A
C135   C1258   1.420   1_545 S
C136   O596    1.223   .     D
C136   O597    1.399   .     S
C137   O599    1.399   .     S
C137   O598    1.223   .     D
C138   O600    1.223   .     D
C138   O601    1.399   .     S
C139   C146    1.493   .     S
C139   O603    1.399   .     S
C139   O602    1.223   .     D
C140   O604    1.223   .     D
C140   O491    1.399   .     S
C140   C150    1.491   .     S
C141   O493    1.399   .     S
C141   O492    1.223   .     D
C141   C151    1.491   .     S
C142   C152    1.493   .     S
C142   O495    1.399   .     S
C142   O494    1.223   .     D
C143   O497    1.399   .     S
C143   O496    1.223   .     D
C143   C153    1.491   .     S
C144   O499    1.399   .     S
C144   O498    1.223   .     D
C144   C154    1.493   .     S
C145   O500    1.223   .     D
C145   O502    1.399   .     S
C145   C155    1.491   .     S
C146   C200    1.396   .     A
C146   C639    1.420   .     S
C147   O503    1.223   .     D
C147   O504    1.399   .     S
C147   C157    1.495   .     S
C148   O506    1.399   .     S
C148   C158    1.491   .     S
C148   O505    1.223   .     D
C149   O507    1.223   .     D
C149   O508    1.399   .     S
C149   C159    1.494   .     S
C150   C211    1.396   .     A
C150   C640    1.420   .     S
C151   C222    1.397   .     A
C151   C641    1.420   .     S
C154   C1265   1.420   1_545 S
C156   H412    1.084   .     S
C156   C162    1.396   .     A
C157   C642    1.421   .     S
C158   C1263   1.420   1_545 S
C160   C178    1.396   .     A
C160   C1241   1.396   1_545 S
C160   C1401   1.465   1_544 S
C161   C1400   1.465   1_556 S
C161   C1429   1.396   .     S
C162   C163    1.465   1_554 S
C162   C820    1.396   1_455 S
C163   C167    1.396   .     A
C163   C162    1.465   1_556 S
C163   C831    1.396   1_455 S
C164   C165    1.465   .     S
C164   C842    1.396   1_455 S
C165   C666    1.396   1_455 S
C166   C168    1.465   .     S
C166   C1297   1.396   .     S
C167   H423    1.084   .     S
C168   C1264   1.396   .     S
C169   O550    1.277   .     A
C169   O1834   1.278   .     S
C170   O1730   1.278   1_545 A
C170   C1263   1.456   1_545 S
C170   O561    1.278   .     S
C171   O1121   1.278   1_455 A
C171   O572    1.277   .     S
C172   O509    1.278   .     A
C172   O1203   1.278   1_455 S
C173   O510    1.278   .     A
C173   O514    1.278   .     A
C174   O511    1.278   .     S
C174   O515    1.277   .     S
C175   O1752   1.278   .     A
C175   O1756   1.278   .     A
C176   O513    1.277   .     A
C176   O518    1.278   .     A
C177   O519    1.276   .     A
C177   O547    1.276   .     A
C177   C232    1.454   .     S
C178   H434    1.084   .     S
C179   O548    1.278   .     A
C179   O520    1.279   .     A
C180   O545    1.276   .     A
C180   O521    1.276   .     A
C181   O546    1.278   .     A
C181   O522    1.278   .     A
C182   O523    1.276   .     A
C182   O552    1.276   .     A
C183   O553    1.278   .     A
C183   O524    1.278   .     A
C184   O549    1.276   .     A
C184   C230    1.454   .     S
C184   O525    1.276   .     A
C185   O551    1.279   .     A
C185   O526    1.278   .     A
C185   C231    1.460   .     S
C186   O527    1.276   .     A
C186   O538    1.276   .     A
C187   O529    1.281   .     A
C187   O540    1.276   .     A
C188   O530    1.276   .     A
C188   O536    1.276   .     A
C189   H445    1.084   .     S
C189   C1401   1.396   1_545 S
C190   O531    1.278   .     A
C190   O537    1.279   .     A
C191   O543    1.276   .     A
C191   O532    1.276   .     A
C192   O544    1.278   .     A
C192   O533    1.279   .     A
C193   O541    1.276   .     A
C193   O534    1.276   .     A
C194   O542    1.281   .     A
C194   O535    1.276   .     A
C195   C212    1.395   .     A
C195   O554    1.385   .     S
C196   C210    1.394   .     A
C196   O555    1.387   .     S
C197   O556    1.385   .     S
C197   C209    1.397   .     A
C198   O557    1.387   .     S
C198   C208    1.394   .     A
C199   O558    1.386   .     S
C199   C207    1.389   .     A
C200   H456    1.084   .     S
C200   C782    1.396   .     S
C201   C206    1.394   .     A
C201   O559    1.387   .     S
C202   O560    1.385   .     S
C202   C205    1.393   .     A
C203   O562    1.387   .     S
C203   C204    1.394   .     A
C204   O563    1.385   .     S
C205   O564    1.387   .     S
C206   O565    1.385   .     S
C207   O566    1.387   .     S
C208   O567    1.385   .     S
C209   O568    1.387   .     S
C209   C232    1.410   .     A
C210   C231    1.411   .     A
C210   O569    1.385   .     S
C211   H467    1.084   .     S
C211   C783    1.396   .     S
C212   O570    1.387   .     S
C212   C230    1.409   .     A
C213   C229    1.394   .     A
C213   C231    1.411   .     A
C213   O571    1.385   .     S
C214   O573    1.387   .     S
C214   C230    1.410   .     A
C214   C228    1.397   .     A
C215   C227    1.394   .     A
C215   O574    1.385   .     S
C216   O575    1.387   .     S
C216   C226    1.395   .     A
C216   C232    1.409   .     A
C217   C225    1.394   .     A
C217   O576    1.385   .     S
C218   O577    1.387   .     S
C218   C224    1.393   .     A
C219   O578    1.385   .     S
C219   C223    1.394   .     A
C220   O579    1.387   .     S
C220   C221    1.389   .     A
C221   O580    1.386   .     S
C222   H478    1.084   .     S
C222   C784    1.396   .     S
C223   O581    1.387   .     S
C224   O582    1.385   .     S
C225   O584    1.387   .     S
C226   O585    1.385   .     S
C227   O586    1.387   .     S
C228   O587    1.385   .     S
C229   O588    1.387   .     S
H240   C1307   1.111   .     S
H257   C694    1.111   .     S
H367   C1268   1.110   1_545 S
H378   C1268   1.111   1_545 S
H391   O590    1.014   .     S
H392   O592    1.013   .     S
H393   O595    1.014   .     S
H394   O597    1.013   .     S
H395   O599    1.014   .     S
H396   O601    1.013   .     S
H397   O603    1.014   .     S
H398   O491    1.013   .     S
H399   O493    1.013   .     S
H401   O495    1.014   .     S
H402   O497    1.013   .     S
H403   O499    1.014   .     S
H404   O502    1.013   .     S
H405   O504    1.014   .     S
H406   O506    1.013   .     S
H407   O508    1.014   .     S
H418   C654    1.109   .     S
H420   C654    1.110   .     S
H436   C1281   1.111   .     S
H449   C668    1.111   .     S
H464   C1294   1.111   1_545 S
H481   C681    1.111   1_455 S
O489   Zn608   1.943   .     S
O489   Zn616   1.943   .     S
O489   Zn605   1.944   .     S
O489   Zn1852  1.943   1_545 S
O490   Zn607   1.931   .     S
O490   C1410   1.278   .     A
O501   Zn610   1.932   .     S
O501   C791    1.278   .     A
O509   Zn609   1.932   .     S
O510   Zn619   1.931   .     S
O511   Zn618   1.931   .     S
O512   C1415   1.278   1_545 A
O512   Zn613   1.931   .     S
O513   Zn605   1.931   .     S
O514   Zn615   1.931   .     S
O515   Zn614   1.931   .     S
O516   C1415   1.278   1_545 A
O516   Zn617   1.932   .     S
O517   Zn611   1.943   .     S
O517   Zn617   1.943   .     S
O517   Zn613   1.944   .     S
O517   Zn1847  1.943   1_545 S
O518   Zn616   1.932   .     S
O519   Zn608   1.938   .     S
O520   Zn607   1.938   .     S
O521   Zn610   1.937   .     S
O522   Zn609   1.937   .     S
O523   Zn612   1.937   .     S
O524   Zn611   1.937   .     S
O525   Zn606   1.937   .     S
O526   Zn620   1.937   .     S
O527   Zn607   1.937   .     S
O528   Zn1230  1.943   1_455 S
O528   Zn606   1.944   .     S
O528   Zn614   1.943   .     S
O528   Zn618   1.943   .     S
O529   Zn608   1.937   .     S
O530   Zn620   1.937   .     S
O531   Zn606   1.937   .     S
O532   Zn611   1.938   .     S
O533   Zn612   1.938   .     S
O534   Zn609   1.937   .     S
O535   Zn610   1.937   .     S
O536   Zn1235  1.938   .     S
O537   Zn614   1.938   .     S
O538   Zn1857  1.937   .     S
O539   Zn615   1.943   .     S
O539   Zn609   1.943   .     S
O539   Zn619   1.943   .     S
O539   Zn1240  1.944   1_455 S
O540   Zn616   1.937   .     S
O541   Zn619   1.937   .     S
O542   Zn1238  1.937   .     S
O543   Zn613   1.937   .     S
O544   Zn1845  1.937   .     S
O545   Zn1234  1.937   .     S
O546   Zn615   1.937   .     S
O547   Zn605   1.937   .     S
O548   Zn1853  1.937   .     S
O549   Zn618   1.938   .     S
O550   Zn612   1.931   .     S
O551   Zn1239  1.938   .     S
O552   Zn1856  1.937   .     S
O553   Zn617   1.937   .     S
O561   Zn611   1.931   .     S
O572   Zn606   1.931   .     S
O583   Zn620   1.931   .     S
O583   C792    1.278   .     S
O594   Zn608   1.931   .     S
O594   C1409   1.278   1_545 S
Zn605  O1784   1.937   1_545 S
Zn607  O1757   1.943   .     S
Zn610  O1148   1.943   .     S
Zn612  O1729   1.943   .     S
Zn613  O1788   1.937   1_545 S
Zn614  O1165   1.937   1_455 S
Zn615  O1156   1.938   1_455 S
Zn616  O1792   1.937   1_545 S
Zn617  O1778   1.937   1_545 S
Zn618  O1162   1.937   1_455 S
Zn619  O1171   1.938   1_455 S
Zn620  O1159   1.944   .     S
C621   H853    1.084   .     S
C621   C699    1.396   .     A
C621   C2020   1.396   .     S
C622   C772    1.396   .     A
C622   C785    1.396   .     A
C622   H854    1.084   .     S
C623   C835    1.411   .     A
C623   C828    1.411   .     A
C623   C799    1.460   .     S
C624   C838    1.410   .     A
C624   C800    1.453   .     S
C624   C827    1.409   .     A
C625   C837    1.411   .     A
C625   C801    1.460   .     S
C625   C826    1.411   .     A
C626   C825    1.410   .     A
C626   C802    1.453   .     S
C626   C840    1.409   .     A
C627   C824    1.411   .     A
C627   C803    1.460   .     S
C627   C839    1.411   .     A
C628   C813    1.453   .     S
C628   C823    1.410   .     A
C628   C843    1.410   .     A
C629   C822    1.412   .     A
C629   C814    1.461   .     S
C629   C841    1.416   .     A
C630   C845    1.410   .     A
C630   C821    1.410   .     A
C630   C806    1.453   .     S
C631   C819    1.416   .     A
C631   C844    1.412   .     A
C631   C807    1.461   .     S
C632   C847    1.410   .     A
C632   C818    1.410   .     A
C632   C808    1.453   .     S
C633   C786    1.396   .     A
C633   H865    1.084   .     S
C633   C773    1.396   .     A
C634   C817    1.410   .     A
C634   C810    1.459   .     S
C634   C846    1.410   .     A
C635   C811    1.453   .     S
C635   C816    1.410   .     A
C635   C849    1.410   .     A
C636   C848    1.410   .     A
C636   C815    1.410   .     A
C636   C812    1.459   .     S
C637   C744    1.421   .     A
C637   C796    1.454   .     S
C637   C1939   1.420   1_545 S
C638   C710    1.420   .     A
C638   C795    1.456   .     S
C638   C1995   1.420   .     S
C639   C794    1.454   .     S
C639   C721    1.421   .     A
C640   C733    1.420   .     A
C640   C793    1.456   .     S
C641   C792    1.456   .     S
C641   C775    1.420   .     A
C642   C772    1.420   .     A
C642   C791    1.454   .     S
C643   C773    1.420   .     A
C643   C2030   1.456   .     S
C643   C2018   1.420   .     S
C644   C774    1.396   .     A
C644   H876    1.084   .     S
C644   C2028   1.396   1_545 S
C645   C779    1.421   .     A
C645   C789    1.454   .     S
C645   C2014   1.420   .     S
C646   H931    1.116   .     S
C646   C647    1.528   .     S
C646   O1174   1.414   .     S
C646   H942    1.111   .     S
C647   H953    1.111   .     S
C647   H965    1.112   .     S
C647   C648    1.527   .     S
C648   H976    1.111   .     S
C648   H2227   1.110   .     S
C648   H2238   1.111   .     S
C649   C650    1.530   .     S
C649   H1009   1.111   .     S
C649   H1020   1.117   .     S
C649   O1175   1.417   .     S
C650   H1028   1.112   .     S
C650   H1029   1.111   .     S
C650   C651    1.526   .     S
C651   H1030   1.111   .     S
C651   H1031   1.110   .     S
C651   H1033   1.111   .     S
C652   H1035   1.113   .     S
C652   O1176   1.413   .     S
C652   C653    1.528   .     S
C652   H1034   1.115   .     S
C653   H1037   1.112   .     S
C653   H1036   1.111   .     S
C653   C654    1.525   .     S
C654   H1039   1.111   .     S
C655   H887    1.084   .     S
C655   C775    1.396   .     A
C655   C784    1.396   .     A
C656   H1042   1.117   .     S
C656   C657    1.530   .     S
C656   O1177   1.417   .     S
C656   H1041   1.111   .     S
C657   C658    1.526   .     S
C657   H1044   1.112   .     S
C657   H1045   1.111   .     S
C658   H1048   1.111   .     S
C658   H1046   1.111   .     S
C658   H1047   1.110   .     S
C659   H1049   1.112   .     S
C659   C660    1.531   .     S
C659   O1178   1.420   .     S
C659   H1050   1.117   .     S
C660   H1051   1.112   .     S
C660   C661    1.527   .     S
C660   H1052   1.110   .     S
C661   H1055   1.111   .     S
C661   H1053   1.111   .     S
C661   H2296   1.111   1_545 S
C662   O1179   1.417   .     S
C662   H1058   1.117   .     S
C662   H1057   1.111   .     S
C662   C663    1.530   .     S
C663   C664    1.526   .     S
C663   H1060   1.111   .     S
C663   H1059   1.112   .     S
C664   H1062   1.110   .     S
C664   H1061   1.111   .     S
C664   H1063   1.111   .     S
C665   H1064   1.117   .     S
C665   C667    1.528   .     S
C665   H1066   1.113   .     S
C665   O1180   1.414   .     S
C666   H898    1.084   .     S
C666   C777    1.397   .     A
C666   C165    1.396   1_655 S
C667   H1067   1.112   .     S
C667   H1068   1.112   .     S
C667   C48     1.526   1_655 S
C668   H1071   1.111   .     S
C668   H1070   1.110   .     S
C669   H1072   1.111   .     S
C669   H1073   1.117   .     S
C669   C670    1.530   .     S
C669   O1182   1.417   .     S
C670   C671    1.526   .     S
C670   H1075   1.111   .     S
C670   H1074   1.112   .     S
C671   H1077   1.111   .     S
C671   H1078   1.110   .     S
C671   H1079   1.111   .     S
C672   O1183   1.414   .     S
C672   C673    1.528   .     S
C672   H1081   1.112   .     S
C672   H1080   1.117   .     S
C673   H1083   1.112   .     S
C673   H1082   1.111   .     S
C673   C1914   1.526   1_545 S
C674   H1085   1.110   .     S
C674   H1086   1.111   .     S
C674   C1913   1.526   .     S
C674   H2324   1.111   .     S
C675   H1089   1.117   .     S
C675   H1088   1.111   .     S
C675   C676    1.531   .     S
C675   O1184   1.417   .     S
C676   C678    1.526   .     S
C676   H1091   1.111   .     S
C676   H1090   1.112   .     S
C677   C778    1.397   .     A
C677   H909    1.084   .     S
C677   C2026   1.396   1_545 S
C678   H1092   1.111   .     S
C678   H1093   1.110   .     S
C678   H1094   1.111   .     S
C679   C680    1.528   .     S
C679   H1095   1.117   .     S
C679   H1096   1.112   .     S
C679   O1185   1.414   .     S
C680   H1097   1.111   .     S
C680   H1099   1.112   .     S
C681   H1102   1.110   .     S
C681   H1100   1.111   .     S
C681   C60     1.526   1_655 S
C681   H481    1.111   1_655 S
C682   H1104   1.117   .     S
C682   O1186   1.417   .     S
C682   C683    1.530   .     S
C682   H1103   1.111   .     S
C683   H1105   1.112   .     S
C683   C684    1.526   .     S
C683   H1106   1.111   .     S
C684   H855    1.111   .     S
C684   H1108   1.110   .     S
C684   H1107   1.111   .     S
C685   H857    1.112   .     S
C685   H856    1.117   .     S
C685   C686    1.528   .     S
C685   O1187   1.414   .     S
C686   H859    1.112   .     S
C686   H858    1.111   .     S
C686   C1927   1.526   .     S
C687   H862    1.111   .     S
C687   H861    1.110   .     S
C687   C1926   1.526   1_545 S
C687   H2100   1.111   1_545 S
C688   H920    1.084   .     S
C688   C788    1.396   .     A
C688   C779    1.397   .     A
C689   O1188   1.417   .     S
C689   H864    1.117   .     S
C689   C690    1.531   .     S
C689   H863    1.111   .     S
C690   H867    1.111   .     S
C690   C691    1.526   .     S
C690   H866    1.112   .     S
C691   H869    1.110   .     S
C691   H868    1.111   .     S
C691   H870    1.111   .     S
C692   C693    1.528   .     S
C692   H871    1.117   .     S
C692   H872    1.112   .     S
C692   O1189   1.414   .     S
C693   H874    1.112   .     S
C693   H873    1.111   .     S
C693   C74     1.526   1_655 S
C694   H878    1.110   .     S
C694   H875    1.111   .     S
C695   O1190   1.416   .     S
C695   H879    1.111   .     S
C695   C696    1.531   .     S
C695   H880    1.117   .     S
C696   H882    1.111   .     S
C696   H881    1.112   .     S
C696   C697    1.526   .     S
C697   H883    1.111   .     S
C697   H885    1.111   .     S
C697   H884    1.110   .     S
C698   H886    1.117   .     S
C698   C700    1.528   .     S
C698   O1191   1.414   .     S
C698   H888    1.112   .     S
C699   C752    1.493   .     S
C699   C1877   1.420   .     S
C700   H889    1.111   .     S
C700   C701    1.526   .     S
C700   H890    1.112   .     S
C701   H892    1.110   .     S
C701   H893    1.111   .     S
C701   H891    1.111   .     S
C702   H894    1.111   .     S
C702   H895    1.117   .     S
C702   O1193   1.417   .     S
C702   C703    1.531   .     S
C703   H897    1.111   .     S
C703   C704    1.526   .     S
C703   H896    1.112   .     S
C704   H899    1.111   .     S
C704   H901    1.111   .     S
C704   H900    1.110   .     S
C705   H903    1.112   .     S
C705   C706    1.528   .     S
C705   H902    1.117   .     S
C705   O1194   1.414   .     S
C706   H904    1.111   .     S
C706   C707    1.526   .     S
C706   H905    1.112   .     S
C707   H907    1.111   .     S
C707   H908    1.110   .     S
C707   H906    1.111   .     S
C708   H910    1.111   .     S
C708   O1195   1.416   .     S
C708   C709    1.531   .     S
C708   H911    1.117   .     S
C709   H912    1.112   .     S
C709   H913    1.111   .     S
C709   C711    1.526   .     S
C710   C753    1.491   .     S
C710   C732    1.397   .     A
C711   H916    1.111   .     S
C711   H914    1.111   .     S
C711   H915    1.110   .     S
C712   O1196   1.414   .     S
C712   H917    1.117   .     S
C712   H918    1.112   .     S
C712   C713    1.528   .     S
C713   H919    1.111   .     S
C713   C714    1.526   .     S
C713   H921    1.112   .     S
C714   H922    1.111   .     S
C714   H923    1.110   .     S
C714   H924    1.111   .     S
C715   H925    1.111   .     S
C715   O1197   1.417   .     S
C715   C716    1.531   .     S
C715   H926    1.117   .     S
C716   H927    1.112   .     S
C716   C717    1.526   .     S
C716   H928    1.111   .     S
C717   H930    1.110   .     S
C717   H932    1.111   .     S
C717   H929    1.111   .     S
C718   O1198   1.414   .     S
C718   H934    1.112   .     S
C718   C719    1.528   .     S
C718   H933    1.117   .     S
C719   H936    1.112   .     S
C719   C720    1.526   .     S
C719   H935    1.111   .     S
C720   H937    1.111   .     S
C720   H939    1.110   .     S
C720   H938    1.111   .     S
C721   C776    1.397   .     A
C721   C754    1.494   .     S
C722   O1199   1.417   .     S
C722   C723    1.530   .     S
C722   H940    1.111   .     S
C722   H941    1.117   .     S
C723   H944    1.111   .     S
C723   C724    1.526   .     S
C723   H943    1.112   .     S
C724   H945    1.111   .     S
C724   H947    1.111   .     S
C724   H946    1.110   .     S
C725   H949    1.117   .     S
C725   O1200   1.420   .     S
C725   H948    1.112   .     S
C725   C726    1.531   .     S
C726   C727    1.527   .     S
C726   H951    1.110   .     S
C726   H950    1.112   .     S
C727   H954    1.111   .     S
C727   H952    1.111   .     S
C727   H955    1.111   .     S
C728   C729    1.530   .     S
C728   O1201   1.417   .     S
C728   H957    1.117   .     S
C728   H956    1.111   .     S
C729   H958    1.112   .     S
C729   C730    1.526   .     S
C729   H959    1.111   .     S
C730   H961    1.110   .     S
C730   H962    1.111   .     S
C730   H960    1.111   .     S
C731   C734    1.528   .     S
C731   O1202   1.414   .     S
C731   H963    1.116   .     S
C731   H966    1.113   .     S
C732   H964    1.084   .     S
C732   C781    1.396   .     A
C733   C787    1.397   .     A
C733   C756    1.491   .     S
C734   C735    1.526   .     S
C734   H967    1.112   .     S
C734   H968    1.112   .     S
C735   H970    1.111   .     S
C735   H969    1.111   .     S
C735   H971    1.110   .     S
C736   O1204   1.417   .     S
C736   H972    1.111   .     S
C736   C737    1.530   .     S
C736   H973    1.117   .     S
C737   C738    1.526   .     S
C737   H975    1.111   .     S
C737   H974    1.112   .     S
C738   H977    1.111   .     S
C738   H978    1.110   .     S
C738   H979    1.111   .     S
C739   H981    1.111   .     S
C739   C740    1.528   .     S
C739   O1205   1.414   .     S
C739   H980    1.116   .     S
C740   C741    1.527   .     S
C740   H983    1.112   .     S
C740   H982    1.111   .     S
C741   H985    1.110   .     S
C741   H984    1.111   .     S
C741   H986    1.111   .     S
C742   H988    1.111   .     S
C742   H989    1.117   .     S
C742   O1206   1.417   .     S
C742   C743    1.530   .     S
C743   C745    1.526   .     S
C743   H990    1.112   .     S
C743   H991    1.111   .     S
C744   C757    1.495   .     S
C744   C798    1.397   .     A
C745   H993    1.110   .     S
C745   H994    1.111   .     S
C745   H992    1.111   .     S
C746   C747    1.528   .     S
C746   H996    1.113   .     S
C746   O1207   1.413   .     S
C746   H995    1.115   .     S
C747   H999    1.112   .     S
C747   H997    1.111   .     S
C747   C748    1.525   .     S
C748   H1001   1.111   .     S
C748   H1002   1.110   .     S
C748   H1000   1.109   .     S
C749   C750    1.530   .     S
C749   H1004   1.117   .     S
C749   O1208   1.417   .     S
C749   H1003   1.111   .     S
C750   H1006   1.111   .     S
C750   C751    1.526   .     S
C750   H1005   1.112   .     S
C751   H1008   1.110   .     S
C751   H1007   1.111   .     S
C751   H1010   1.111   .     S
C752   O1209   1.223   .     D
C752   O1210   1.399   .     S
C753   O1212   1.399   .     S
C753   O1211   1.223   .     D
C754   O1215   1.399   .     S
C754   O1213   1.223   .     D
C755   C758    1.491   .     S
C755   C809    1.396   .     A
C755   C1878   1.420   1_545 S
C756   O1216   1.223   .     D
C756   O1217   1.399   .     S
C757   O1219   1.399   .     S
C757   O1218   1.223   .     D
C758   O1220   1.223   .     D
C758   O1221   1.399   .     S
C759   C766    1.493   .     S
C759   O1223   1.399   .     S
C759   O1222   1.223   .     D
C760   O1224   1.223   .     D
C760   O1111   1.399   .     S
C760   C770    1.491   .     S
C761   O1113   1.399   .     S
C761   O1112   1.223   .     D
C761   C771    1.491   .     S
C762   C772    1.493   .     S
C762   O1115   1.399   .     S
C762   O1114   1.223   .     D
C763   O1117   1.399   .     S
C763   O1116   1.223   .     D
C763   C773    1.491   .     S
C764   O1119   1.399   .     S
C764   O1118   1.223   .     D
C764   C774    1.493   .     S
C765   O1120   1.223   .     D
C765   O1122   1.399   .     S
C765   C775    1.491   .     S
C766   C820    1.396   .     A
C766   C19     1.420   1_655 S
C767   O1123   1.223   .     D
C767   O1124   1.399   .     S
C767   C777    1.495   .     S
C768   O1126   1.399   .     S
C768   C778    1.491   .     S
C768   O1125   1.223   .     D
C769   O1127   1.223   .     D
C769   O1128   1.399   .     S
C769   C779    1.494   .     S
C770   C831    1.396   .     A
C770   C20     1.420   1_655 S
C771   C842    1.397   .     A
C771   C21     1.420   1_655 S
C774   C1885   1.420   1_545 S
C776   H1032   1.084   .     S
C776   C782    1.396   .     A
C777   C22     1.421   1_655 S
C778   C1883   1.420   1_545 S
C780   C798    1.396   .     A
C780   C1861   1.396   1_545 S
C780   C2021   1.465   1_544 S
C781   C2020   1.465   1_556 S
C781   C2049   1.396   .     S
C782   C783    1.465   1_554 S
C783   C787    1.396   .     A
C783   C782    1.465   1_556 S
C784   C785    1.465   .     S
C786   C788    1.465   .     S
C786   C1917   1.396   .     S
C787   H1043   1.084   .     S
C788   C1884   1.396   .     S
C789   O1170   1.277   .     A
C789   O2454   1.278   .     S
C790   O2350   1.278   1_545 A
C790   C1883   1.456   1_545 S
C790   O1181   1.278   .     S
C791   O1192   1.277   .     S
C792   O1129   1.278   .     A
C793   O1130   1.278   .     A
C793   O1134   1.278   .     A
C794   O1131   1.278   .     S
C794   O1135   1.277   .     S
C795   O2372   1.278   .     A
C795   O2376   1.278   .     A
C796   O1133   1.277   .     A
C796   O1138   1.278   .     A
C797   O1139   1.276   .     A
C797   O1167   1.276   .     A
C797   C852    1.454   .     S
C798   H1054   1.084   .     S
C799   O1168   1.278   .     A
C799   O1140   1.279   .     A
C800   O1165   1.276   .     A
C800   O1141   1.276   .     A
C801   O1166   1.278   .     A
C801   O1142   1.278   .     A
C802   O1143   1.276   .     A
C802   O1172   1.276   .     A
C803   O1173   1.278   .     A
C803   O1144   1.278   .     A
C804   O1169   1.276   .     A
C804   C850    1.454   .     S
C804   O1145   1.276   .     A
C805   O1171   1.279   .     A
C805   O1146   1.278   .     A
C805   C851    1.460   .     S
C806   O1147   1.276   .     A
C806   O1158   1.276   .     A
C807   O1149   1.281   .     A
C807   O1160   1.276   .     A
C808   O1150   1.276   .     A
C808   O1156   1.276   .     A
C809   H1065   1.084   .     S
C809   C2021   1.396   1_545 S
C810   O1151   1.278   .     A
C810   O1157   1.279   .     A
C811   O1163   1.276   .     A
C811   O1152   1.276   .     A
C812   O1164   1.278   .     A
C812   O1153   1.279   .     A
C813   O1161   1.276   .     A
C813   O1154   1.276   .     A
C814   O1162   1.281   .     A
C814   O1155   1.276   .     A
C815   C832    1.395   .     A
C815   O1174   1.385   .     S
C816   C830    1.394   .     A
C816   O1175   1.387   .     S
C817   O1176   1.385   .     S
C817   C829    1.397   .     A
C818   O1177   1.387   .     S
C818   C828    1.394   .     A
C819   O1178   1.386   .     S
C819   C827    1.389   .     A
C820   H1076   1.084   .     S
C820   C162    1.396   1_655 S
C821   C826    1.394   .     A
C821   O1179   1.387   .     S
C822   O1180   1.385   .     S
C822   C825    1.393   .     A
C823   O1182   1.387   .     S
C823   C824    1.394   .     A
C824   O1183   1.385   .     S
C825   O1184   1.387   .     S
C826   O1185   1.385   .     S
C827   O1186   1.387   .     S
C828   O1187   1.385   .     S
C829   O1188   1.387   .     S
C829   C852    1.410   .     A
C830   C851    1.411   .     A
C830   O1189   1.385   .     S
C831   H1087   1.084   .     S
C831   C163    1.396   1_655 S
C832   O1190   1.387   .     S
C832   C850    1.409   .     A
C833   C849    1.394   .     A
C833   C851    1.411   .     A
C833   O1191   1.385   .     S
C834   O1193   1.387   .     S
C834   C850    1.410   .     A
C834   C848    1.397   .     A
C835   C847    1.394   .     A
C835   O1194   1.385   .     S
C836   O1195   1.387   .     S
C836   C846    1.395   .     A
C836   C852    1.409   .     A
C837   C845    1.394   .     A
C837   O1196   1.385   .     S
C838   O1197   1.387   .     S
C838   C844    1.393   .     A
C839   O1198   1.385   .     S
C839   C843    1.394   .     A
C840   O1199   1.387   .     S
C840   C841    1.389   .     A
C841   O1200   1.386   .     S
C842   H1098   1.084   .     S
C842   C164    1.396   1_655 S
C843   O1201   1.387   .     S
C844   O1202   1.385   .     S
C845   O1204   1.387   .     S
C846   O1205   1.385   .     S
C847   O1206   1.387   .     S
C848   O1207   1.385   .     S
C849   O1208   1.387   .     S
H860   C1927   1.111   .     S
H877   C74     1.111   1_655 S
H987   C1888   1.110   1_545 S
H998   C1888   1.111   1_545 S
H1011  O1210   1.014   .     S
H1012  O1212   1.013   .     S
H1013  O1215   1.014   .     S
H1014  O1217   1.013   .     S
H1015  O1219   1.014   .     S
H1016  O1221   1.013   .     S
H1017  O1223   1.014   .     S
H1018  O1111   1.013   .     S
H1019  O1113   1.013   .     S
H1021  O1115   1.014   .     S
H1022  O1117   1.013   .     S
H1023  O1119   1.014   .     S
H1024  O1122   1.013   .     S
H1025  O1124   1.014   .     S
H1026  O1126   1.013   .     S
H1027  O1128   1.014   .     S
H1038  C34     1.109   1_655 S
H1040  C34     1.110   1_655 S
H1056  C1901   1.111   .     S
H1069  C48     1.111   1_655 S
H1084  C1914   1.111   1_545 S
O1109  Zn1228  1.943   .     S
O1109  Zn1236  1.943   .     S
O1109  Zn1225  1.944   .     S
O1109  Zn2472  1.943   1_545 S
O1110  Zn1227  1.931   .     S
O1110  C2030   1.278   .     A
O1121  Zn1230  1.932   .     S
O1121  C171    1.278   1_655 A
O1129  Zn1229  1.932   .     S
O1130  Zn1239  1.931   .     S
O1131  Zn1238  1.931   .     S
O1132  C2035   1.278   1_545 A
O1132  Zn1233  1.931   .     S
O1133  Zn1225  1.931   .     S
O1134  Zn1235  1.931   .     S
O1135  Zn1234  1.931   .     S
O1136  C2035   1.278   1_545 A
O1136  Zn1237  1.932   .     S
O1137  Zn1231  1.943   .     S
O1137  Zn1237  1.943   .     S
O1137  Zn1233  1.944   .     S
O1137  Zn2467  1.943   1_545 S
O1138  Zn1236  1.932   .     S
O1139  Zn1228  1.938   .     S
O1140  Zn1227  1.938   .     S
O1141  Zn1230  1.937   .     S
O1142  Zn1229  1.937   .     S
O1143  Zn1232  1.937   .     S
O1144  Zn1231  1.937   .     S
O1145  Zn1226  1.937   .     S
O1146  Zn1240  1.937   .     S
O1147  Zn1227  1.937   .     S
O1148  Zn1226  1.944   .     S
O1148  Zn1234  1.943   .     S
O1148  Zn1238  1.943   .     S
O1149  Zn1228  1.937   .     S
O1150  Zn1240  1.937   .     S
O1151  Zn1226  1.937   .     S
O1152  Zn1231  1.938   .     S
O1153  Zn1232  1.938   .     S
O1154  Zn1229  1.937   .     S
O1155  Zn1230  1.937   .     S
O1156  Zn615   1.938   1_655 S
O1157  Zn1234  1.938   .     S
O1158  Zn2477  1.937   .     S
O1159  Zn1235  1.943   .     S
O1159  Zn1229  1.943   .     S
O1159  Zn1239  1.943   .     S
O1160  Zn1236  1.937   .     S
O1161  Zn1239  1.937   .     S
O1162  Zn618   1.937   1_655 S
O1163  Zn1233  1.937   .     S
O1164  Zn2465  1.937   .     S
O1165  Zn614   1.937   1_655 S
O1166  Zn1235  1.937   .     S
O1167  Zn1225  1.937   .     S
O1168  Zn2473  1.937   .     S
O1169  Zn1238  1.938   .     S
O1170  Zn1232  1.931   .     S
O1171  Zn619   1.938   1_655 S
O1172  Zn2476  1.937   .     S
O1173  Zn1237  1.937   .     S
O1181  Zn1231  1.931   .     S
O1192  Zn1226  1.931   .     S
O1203  Zn1240  1.931   .     S
O1203  C172    1.278   1_655 S
O1214  Zn1228  1.931   .     S
O1214  C2029   1.278   1_545 S
Zn1225 O2404   1.937   1_545 S
Zn1227 O2377   1.943   .     S
Zn1230 O528    1.943   1_655 S
Zn1232 O2349   1.943   .     S
Zn1233 O2408   1.937   1_545 S
Zn1236 O2412   1.937   1_545 S
Zn1237 O2398   1.937   1_545 S
Zn1240 O539    1.944   1_655 S
C1241  H1473   1.084   .     S
C1241  C1319   1.396   .     A
C1241  C160    1.396   1_565 S
C1242  C1392   1.396   .     A
C1242  C1405   1.396   .     A
C1242  H1474   1.084   .     S
C1243  C1455   1.411   .     A
C1243  C1448   1.411   .     A
C1243  C1419   1.460   .     S
C1244  C1458   1.410   .     A
C1244  C1420   1.453   .     S
C1244  C1447   1.409   .     A
C1245  C1457   1.411   .     A
C1245  C1421   1.460   .     S
C1245  C1446   1.411   .     A
C1246  C1445   1.410   .     A
C1246  C1422   1.453   .     S
C1246  C1460   1.409   .     A
C1247  C1444   1.411   .     A
C1247  C1423   1.460   .     S
C1247  C1459   1.411   .     A
C1248  C1433   1.453   .     S
C1248  C1443   1.410   .     A
C1248  C1463   1.410   .     A
C1249  C1442   1.412   .     A
C1249  C1434   1.461   .     S
C1249  C1461   1.416   .     A
C1250  C1465   1.410   .     A
C1250  C1441   1.410   .     A
C1250  C1426   1.453   .     S
C1251  C1439   1.416   .     A
C1251  C1464   1.412   .     A
C1251  C1427   1.461   .     S
C1252  C1467   1.410   .     A
C1252  C1438   1.410   .     A
C1252  C1428   1.453   .     S
C1253  C1406   1.396   .     A
C1253  H1485   1.084   .     S
C1253  C1393   1.396   .     A
C1254  C1437   1.410   .     A
C1254  C1430   1.459   .     S
C1254  C1466   1.410   .     A
C1255  C1431   1.453   .     S
C1255  C1436   1.410   .     A
C1255  C1469   1.410   .     A
C1256  C1468   1.410   .     A
C1256  C1435   1.410   .     A
C1256  C1432   1.459   .     S
C1257  C1364   1.421   .     A
C1257  C1416   1.454   .     S
C1258  C1330   1.420   .     A
C1258  C1415   1.456   .     S
C1258  C135    1.420   1_565 S
C1259  C1414   1.454   .     S
C1259  C1341   1.421   .     A
C1259  C2006   1.420   1_455 S
C1260  C1353   1.420   .     A
C1260  C1413   1.456   .     S
C1260  C2010   1.420   1_455 S
C1261  C1412   1.456   .     S
C1261  C1395   1.420   .     A
C1261  C2011   1.420   1_455 S
C1262  C1392   1.420   .     A
C1262  C2017   1.421   1_455 S
C1262  C1411   1.454   .     S
C1263  C1393   1.420   .     A
C1263  C170    1.456   1_565 S
C1263  C158    1.420   1_565 S
C1264  C1394   1.396   .     A
C1264  H1496   1.084   .     S
C1265  C1399   1.421   .     A
C1265  C1409   1.454   .     S
C1265  C154    1.420   1_565 S
C1266  H1551   1.116   .     S
C1266  C1267   1.528   .     S
C1266  O1794   1.414   .     S
C1266  H1562   1.111   .     S
C1267  H1573   1.111   .     S
C1267  H1585   1.112   .     S
C1267  C1268   1.527   .     S
C1268  H1596   1.111   .     S
C1268  H367    1.110   1_565 S
C1268  H378    1.111   1_565 S
C1269  C1270   1.530   .     S
C1269  H1629   1.111   .     S
C1269  H1640   1.117   .     S
C1269  O1795   1.417   .     S
C1270  H1648   1.112   .     S
C1270  H1649   1.111   .     S
C1270  C1271   1.526   .     S
C1271  H1650   1.111   .     S
C1271  H1651   1.110   .     S
C1271  H1653   1.111   .     S
C1272  H1655   1.113   .     S
C1272  O1796   1.413   .     S
C1272  C1273   1.528   .     S
C1272  H1654   1.115   .     S
C1273  H1657   1.112   .     S
C1273  H1656   1.111   .     S
C1273  C1274   1.525   .     S
C1274  H1659   1.111   .     S
C1274  H2278   1.109   1_455 S
C1274  H2280   1.110   1_455 S
C1275  H1507   1.084   .     S
C1275  C1395   1.396   .     A
C1275  C1404   1.396   .     A
C1276  H1662   1.117   .     S
C1276  C1277   1.530   .     S
C1276  O1797   1.417   .     S
C1276  H1661   1.111   .     S
C1277  C1278   1.526   .     S
C1277  H1664   1.112   .     S
C1277  H1665   1.111   .     S
C1278  H1668   1.111   .     S
C1278  H1666   1.111   .     S
C1278  H1667   1.110   .     S
C1279  H1669   1.112   .     S
C1279  C1280   1.531   .     S
C1279  O1798   1.420   .     S
C1279  H1670   1.117   .     S
C1280  H1671   1.112   .     S
C1280  C1281   1.527   .     S
C1280  H1672   1.110   .     S
C1281  H1675   1.111   .     S
C1281  H1673   1.111   .     S
C1282  O1799   1.417   .     S
C1282  H1678   1.117   .     S
C1282  H1677   1.111   .     S
C1282  C1283   1.530   .     S
C1283  C1284   1.526   .     S
C1283  H1680   1.111   .     S
C1283  H1679   1.112   .     S
C1284  H1682   1.110   .     S
C1284  H1681   1.111   .     S
C1284  H1683   1.111   .     S
C1285  H1684   1.117   .     S
C1285  C1287   1.528   .     S
C1285  H1686   1.113   .     S
C1285  O1800   1.414   .     S
C1286  H1518   1.084   .     S
C1286  C1397   1.397   .     A
C1286  C2025   1.396   .     S
C1287  H1687   1.112   .     S
C1287  H1688   1.112   .     S
C1287  C1908   1.526   .     S
C1288  H1691   1.111   .     S
C1288  H1690   1.110   .     S
C1288  C1907   1.526   1_455 S
C1288  H2309   1.111   1_455 S
C1289  H1692   1.111   .     S
C1289  H1693   1.117   .     S
C1289  C1290   1.530   .     S
C1289  O1802   1.417   .     S
C1290  C1291   1.526   .     S
C1290  H1695   1.111   .     S
C1290  H1694   1.112   .     S
C1291  H1697   1.111   .     S
C1291  H1698   1.110   .     S
C1291  H1699   1.111   .     S
C1292  O1803   1.414   .     S
C1292  C1293   1.528   .     S
C1292  H1701   1.112   .     S
C1292  H1700   1.117   .     S
C1293  H1703   1.112   .     S
C1293  H1702   1.111   .     S
C1294  H1705   1.110   .     S
C1294  H1706   1.111   .     S
C1294  C53     1.526   1_565 S
C1294  H464    1.111   1_565 S
C1295  H1709   1.117   .     S
C1295  H1708   1.111   .     S
C1295  C1296   1.531   .     S
C1295  O1804   1.417   .     S
C1296  C1298   1.526   .     S
C1296  H1711   1.111   .     S
C1296  H1710   1.112   .     S
C1297  C1398   1.397   .     A
C1297  H1529   1.084   .     S
C1298  H1712   1.111   .     S
C1298  H1713   1.110   .     S
C1298  H1714   1.111   .     S
C1299  C1300   1.528   .     S
C1299  H1715   1.117   .     S
C1299  H1716   1.112   .     S
C1299  O1805   1.414   .     S
C1300  H1717   1.111   .     S
C1300  H1719   1.112   .     S
C1300  C1921   1.526   1_455 S
C1301  H1722   1.110   .     S
C1301  H1720   1.111   .     S
C1301  C1920   1.526   .     S
C1301  H2341   1.111   .     S
C1302  H1724   1.117   .     S
C1302  O1806   1.417   .     S
C1302  C1303   1.530   .     S
C1302  H1723   1.111   .     S
C1303  H1725   1.112   .     S
C1303  C1304   1.526   .     S
C1303  H1726   1.111   .     S
C1304  H1475   1.111   .     S
C1304  H1728   1.110   .     S
C1304  H1727   1.111   .     S
C1305  H1477   1.112   .     S
C1305  H1476   1.117   .     S
C1305  C1306   1.528   .     S
C1305  O1807   1.414   .     S
C1306  H1479   1.112   .     S
C1306  H1478   1.111   .     S
C1306  C67     1.526   1_565 S
C1307  H1482   1.111   .     S
C1307  H1481   1.110   .     S
C1308  H1540   1.084   .     S
C1308  C1408   1.396   .     A
C1308  C1399   1.397   .     A
C1309  O1808   1.417   .     S
C1309  H1484   1.117   .     S
C1309  C1310   1.531   .     S
C1309  H1483   1.111   .     S
C1310  H1487   1.111   .     S
C1310  C1311   1.526   .     S
C1310  H1486   1.112   .     S
C1311  H1489   1.110   .     S
C1311  H1488   1.111   .     S
C1311  H1490   1.111   .     S
C1312  C1313   1.528   .     S
C1312  H1491   1.117   .     S
C1312  H1492   1.112   .     S
C1312  O1809   1.414   .     S
C1313  H1494   1.112   .     S
C1313  H1493   1.111   .     S
C1313  C1934   1.526   .     S
C1314  H1498   1.110   .     S
C1314  H1495   1.111   .     S
C1314  C1933   1.526   1_455 S
C1314  H2117   1.111   1_455 S
C1315  O1810   1.416   .     S
C1315  H1499   1.111   .     S
C1315  C1316   1.531   .     S
C1315  H1500   1.117   .     S
C1316  H1502   1.111   .     S
C1316  H1501   1.112   .     S
C1316  C1317   1.526   .     S
C1317  H1503   1.111   .     S
C1317  H1505   1.111   .     S
C1317  H1504   1.110   .     S
C1318  H1506   1.117   .     S
C1318  C1320   1.528   .     S
C1318  O1811   1.414   .     S
C1318  H1508   1.112   .     S
C1319  C1372   1.493   .     S
C1319  C17     1.420   1_565 S
C1320  H1509   1.111   .     S
C1320  C1321   1.526   .     S
C1320  H1510   1.112   .     S
C1321  H1512   1.110   .     S
C1321  H1513   1.111   .     S
C1321  H1511   1.111   .     S
C1322  H1514   1.111   .     S
C1322  H1515   1.117   .     S
C1322  O1813   1.417   .     S
C1322  C1323   1.531   .     S
C1323  H1517   1.111   .     S
C1323  C1324   1.526   .     S
C1323  H1516   1.112   .     S
C1324  H1519   1.111   .     S
C1324  H1521   1.111   .     S
C1324  H1520   1.110   .     S
C1325  H1523   1.112   .     S
C1325  C1326   1.528   .     S
C1325  H1522   1.117   .     S
C1325  O1814   1.414   .     S
C1326  H1524   1.111   .     S
C1326  C1327   1.526   .     S
C1326  H1525   1.112   .     S
C1327  H1527   1.111   .     S
C1327  H1528   1.110   .     S
C1327  H1526   1.111   .     S
C1328  H1530   1.111   .     S
C1328  O1815   1.416   .     S
C1328  C1329   1.531   .     S
C1328  H1531   1.117   .     S
C1329  H1532   1.112   .     S
C1329  H1533   1.111   .     S
C1329  C1331   1.526   .     S
C1330  C1373   1.491   .     S
C1330  C1352   1.397   .     A
C1331  H1536   1.111   .     S
C1331  H1534   1.111   .     S
C1331  H1535   1.110   .     S
C1332  O1816   1.414   .     S
C1332  H1537   1.117   .     S
C1332  H1538   1.112   .     S
C1332  C1333   1.528   .     S
C1333  H1539   1.111   .     S
C1333  C1334   1.526   .     S
C1333  H1541   1.112   .     S
C1334  H1542   1.111   .     S
C1334  H1543   1.110   .     S
C1334  H1544   1.111   .     S
C1335  H1545   1.111   .     S
C1335  O1817   1.417   .     S
C1335  C1336   1.531   .     S
C1335  H1546   1.117   .     S
C1336  H1547   1.112   .     S
C1336  C1337   1.526   .     S
C1336  H1548   1.111   .     S
C1337  H1550   1.110   .     S
C1337  H1552   1.111   .     S
C1337  H1549   1.111   .     S
C1338  O1818   1.414   .     S
C1338  H1554   1.112   .     S
C1338  C1339   1.528   .     S
C1338  H1553   1.117   .     S
C1339  H1556   1.112   .     S
C1339  C1340   1.526   .     S
C1339  H1555   1.111   .     S
C1340  H1557   1.111   .     S
C1340  H1559   1.110   .     S
C1340  H1558   1.111   .     S
C1341  C1396   1.397   .     A
C1341  C1374   1.494   .     S
C1342  O1819   1.417   .     S
C1342  C1343   1.530   .     S
C1342  H1560   1.111   .     S
C1342  H1561   1.117   .     S
C1343  H1564   1.111   .     S
C1343  C1344   1.526   .     S
C1343  H1563   1.112   .     S
C1344  H1565   1.111   .     S
C1344  H1567   1.111   .     S
C1344  H1566   1.110   .     S
C1345  H1569   1.117   .     S
C1345  O1820   1.420   .     S
C1345  H1568   1.112   .     S
C1345  C1346   1.531   .     S
C1346  C1347   1.527   .     S
C1346  H1571   1.110   .     S
C1346  H1570   1.112   .     S
C1347  H1574   1.111   .     S
C1347  H1572   1.111   .     S
C1347  H1575   1.111   .     S
C1348  C1349   1.530   .     S
C1348  O1821   1.417   .     S
C1348  H1577   1.117   .     S
C1348  H1576   1.111   .     S
C1349  H1578   1.112   .     S
C1349  C1350   1.526   .     S
C1349  H1579   1.111   .     S
C1350  H1581   1.110   .     S
C1350  H1582   1.111   .     S
C1350  H1580   1.111   .     S
C1351  C1354   1.528   .     S
C1351  O1822   1.414   .     S
C1351  H1583   1.116   .     S
C1351  H1586   1.113   .     S
C1352  H1584   1.084   .     S
C1352  C1401   1.396   .     A
C1353  C1407   1.397   .     A
C1353  C1376   1.491   .     S
C1354  C1355   1.526   .     S
C1354  H1587   1.112   .     S
C1354  H1588   1.112   .     S
C1355  H1590   1.111   .     S
C1355  H1589   1.111   .     S
C1355  H1591   1.110   .     S
C1356  O1824   1.417   .     S
C1356  H1592   1.111   .     S
C1356  C1357   1.530   .     S
C1356  H1593   1.117   .     S
C1357  C1358   1.526   .     S
C1357  H1595   1.111   .     S
C1357  H1594   1.112   .     S
C1358  H1597   1.111   .     S
C1358  H1598   1.110   .     S
C1358  H1599   1.111   .     S
C1359  H1601   1.111   .     S
C1359  C1360   1.528   .     S
C1359  O1825   1.414   .     S
C1359  H1600   1.116   .     S
C1360  C1361   1.527   .     S
C1360  H1603   1.112   .     S
C1360  H1602   1.111   .     S
C1361  H1605   1.110   .     S
C1361  H1604   1.111   .     S
C1361  H1606   1.111   .     S
C1362  H1608   1.111   .     S
C1362  H1609   1.117   .     S
C1362  O1826   1.417   .     S
C1362  C1363   1.530   .     S
C1363  C1365   1.526   .     S
C1363  H1610   1.112   .     S
C1363  H1611   1.111   .     S
C1364  C1377   1.495   .     S
C1364  C1418   1.397   .     A
C1365  H1613   1.110   .     S
C1365  H1614   1.111   .     S
C1365  H1612   1.111   .     S
C1366  C1367   1.528   .     S
C1366  H1616   1.113   .     S
C1366  O1827   1.413   .     S
C1366  H1615   1.115   .     S
C1367  H1619   1.112   .     S
C1367  H1617   1.111   .     S
C1367  C1368   1.525   .     S
C1368  H1621   1.111   .     S
C1368  H1622   1.110   .     S
C1368  H1620   1.109   .     S
C1369  C1370   1.530   .     S
C1369  H1624   1.117   .     S
C1369  O1828   1.417   .     S
C1369  H1623   1.111   .     S
C1370  H1626   1.111   .     S
C1370  C1371   1.526   .     S
C1370  H1625   1.112   .     S
C1371  H1628   1.110   .     S
C1371  H1627   1.111   .     S
C1371  H1630   1.111   .     S
C1372  O1829   1.223   .     D
C1372  O1830   1.399   .     S
C1373  O1832   1.399   .     S
C1373  O1831   1.223   .     D
C1374  O1835   1.399   .     S
C1374  O1833   1.223   .     D
C1375  C1378   1.491   .     S
C1375  C1429   1.396   .     A
C1376  O1836   1.223   .     D
C1376  O1837   1.399   .     S
C1377  O1839   1.399   .     S
C1377  O1838   1.223   .     D
C1378  O1840   1.223   .     D
C1378  O1841   1.399   .     S
C1379  C1386   1.493   .     S
C1379  O1843   1.399   .     S
C1379  O1842   1.223   .     D
C1380  O1844   1.223   .     D
C1380  O1731   1.399   .     S
C1380  C1390   1.491   .     S
C1381  O1733   1.399   .     S
C1381  O1732   1.223   .     D
C1381  C1391   1.491   .     S
C1382  C1392   1.493   .     S
C1382  O1735   1.399   .     S
C1382  O1734   1.223   .     D
C1383  O1737   1.399   .     S
C1383  O1736   1.223   .     D
C1383  C1393   1.491   .     S
C1384  O1739   1.399   .     S
C1384  O1738   1.223   .     D
C1384  C1394   1.493   .     S
C1385  O1740   1.223   .     D
C1385  O1742   1.399   .     S
C1385  C1395   1.491   .     S
C1386  C1440   1.396   .     A
C1386  C1879   1.420   .     S
C1387  O1743   1.223   .     D
C1387  O1744   1.399   .     S
C1387  C1397   1.495   .     S
C1388  O1746   1.399   .     S
C1388  C1398   1.491   .     S
C1388  O1745   1.223   .     D
C1389  O1747   1.223   .     D
C1389  O1748   1.399   .     S
C1389  C1399   1.494   .     S
C1390  C1451   1.396   .     A
C1390  C1880   1.420   .     S
C1391  C1462   1.397   .     A
C1391  C1881   1.420   .     S
C1396  H1652   1.084   .     S
C1396  C1402   1.396   .     A
C1397  C1882   1.421   .     S
C1400  C1418   1.396   .     A
C1400  C161    1.465   1_554 S
C1401  C160    1.465   1_566 S
C1401  C189    1.396   1_565 S
C1402  C1403   1.465   1_554 S
C1402  C2060   1.396   1_455 S
C1403  C1407   1.396   .     A
C1403  C1402   1.465   1_556 S
C1403  C2071   1.396   1_455 S
C1404  C1405   1.465   .     S
C1404  C2082   1.396   1_455 S
C1405  C1906   1.396   1_455 S
C1406  C1408   1.465   .     S
C1406  C57     1.396   1_565 S
C1407  H1663   1.084   .     S
C1408  C24     1.396   1_565 S
C1409  O1790   1.277   .     A
C1409  O594    1.278   1_565 S
C1410  O1801   1.278   .     S
C1411  O2361   1.278   1_455 A
C1411  O1812   1.277   .     S
C1412  O1749   1.278   .     A
C1412  O2443   1.278   1_455 S
C1413  O1750   1.278   .     A
C1413  O1754   1.278   .     A
C1414  O1751   1.278   .     S
C1414  O1755   1.277   .     S
C1415  O512    1.278   1_565 A
C1415  O516    1.278   1_565 A
C1416  O1753   1.277   .     A
C1416  O1758   1.278   .     A
C1417  O1759   1.276   .     A
C1417  O1787   1.276   .     A
C1417  C1472   1.454   .     S
C1418  H1674   1.084   .     S
C1419  O1788   1.278   .     A
C1419  O1760   1.279   .     A
C1420  O1785   1.276   .     A
C1420  O1761   1.276   .     A
C1421  O1786   1.278   .     A
C1421  O1762   1.278   .     A
C1422  O1763   1.276   .     A
C1422  O1792   1.276   .     A
C1423  O1793   1.278   .     A
C1423  O1764   1.278   .     A
C1424  O1789   1.276   .     A
C1424  C1470   1.454   .     S
C1424  O1765   1.276   .     A
C1425  O1791   1.279   .     A
C1425  O1766   1.278   .     A
C1425  C1471   1.460   .     S
C1426  O1767   1.276   .     A
C1426  O1778   1.276   .     A
C1427  O1769   1.281   .     A
C1427  O1780   1.276   .     A
C1428  O1770   1.276   .     A
C1428  O1776   1.276   .     A
C1429  H1685   1.084   .     S
C1430  O1771   1.278   .     A
C1430  O1777   1.279   .     A
C1431  O1783   1.276   .     A
C1431  O1772   1.276   .     A
C1432  O1784   1.278   .     A
C1432  O1773   1.279   .     A
C1433  O1781   1.276   .     A
C1433  O1774   1.276   .     A
C1434  O1782   1.281   .     A
C1434  O1775   1.276   .     A
C1435  C1452   1.395   .     A
C1435  O1794   1.385   .     S
C1436  C1450   1.394   .     A
C1436  O1795   1.387   .     S
C1437  O1796   1.385   .     S
C1437  C1449   1.397   .     A
C1438  O1797   1.387   .     S
C1438  C1448   1.394   .     A
C1439  O1798   1.386   .     S
C1439  C1447   1.389   .     A
C1440  H1696   1.084   .     S
C1440  C2022   1.396   .     S
C1441  C1446   1.394   .     A
C1441  O1799   1.387   .     S
C1442  O1800   1.385   .     S
C1442  C1445   1.393   .     A
C1443  O1802   1.387   .     S
C1443  C1444   1.394   .     A
C1444  O1803   1.385   .     S
C1445  O1804   1.387   .     S
C1446  O1805   1.385   .     S
C1447  O1806   1.387   .     S
C1448  O1807   1.385   .     S
C1449  O1808   1.387   .     S
C1449  C1472   1.410   .     A
C1450  C1471   1.411   .     A
C1450  O1809   1.385   .     S
C1451  H1707   1.084   .     S
C1451  C2023   1.396   .     S
C1452  O1810   1.387   .     S
C1452  C1470   1.409   .     A
C1453  C1469   1.394   .     A
C1453  C1471   1.411   .     A
C1453  O1811   1.385   .     S
C1454  O1813   1.387   .     S
C1454  C1470   1.410   .     A
C1454  C1468   1.397   .     A
C1455  C1467   1.394   .     A
C1455  O1814   1.385   .     S
C1456  O1815   1.387   .     S
C1456  C1466   1.395   .     A
C1456  C1472   1.409   .     A
C1457  C1465   1.394   .     A
C1457  O1816   1.385   .     S
C1458  O1817   1.387   .     S
C1458  C1464   1.393   .     A
C1459  O1818   1.385   .     S
C1459  C1463   1.394   .     A
C1460  O1819   1.387   .     S
C1460  C1461   1.389   .     A
C1461  O1820   1.386   .     S
C1462  H1718   1.084   .     S
C1462  C2024   1.396   .     S
C1463  O1821   1.387   .     S
C1464  O1822   1.385   .     S
C1465  O1824   1.387   .     S
C1466  O1825   1.385   .     S
C1467  O1826   1.387   .     S
C1468  O1827   1.385   .     S
C1469  O1828   1.387   .     S
H1480  C67     1.111   1_565 S
H1497  C1934   1.111   .     S
H1631  O1830   1.014   .     S
H1632  O1832   1.013   .     S
H1633  O1835   1.014   .     S
H1634  O1837   1.013   .     S
H1635  O1839   1.014   .     S
H1636  O1841   1.013   .     S
H1637  O1843   1.014   .     S
H1638  O1731   1.013   .     S
H1639  O1733   1.013   .     S
H1641  O1735   1.014   .     S
H1642  O1737   1.013   .     S
H1643  O1739   1.014   .     S
H1644  O1742   1.013   .     S
H1645  O1744   1.014   .     S
H1646  O1746   1.013   .     S
H1647  O1748   1.014   .     S
H1658  C1894   1.109   .     S
H1660  C1894   1.110   .     S
H1676  C41     1.111   1_565 S
H1689  C1908   1.111   .     S
H1721  C1921   1.111   1_455 S
O1729  Zn1848  1.943   .     S
O1729  Zn1856  1.943   .     S
O1729  Zn1845  1.944   .     S
O1730  Zn1847  1.931   .     S
O1730  C170    1.278   1_565 A
O1741  Zn1850  1.932   .     S
O1741  C2031   1.278   .     A
O1749  Zn1849  1.932   .     S
O1750  Zn1859  1.931   .     S
O1751  Zn1858  1.931   .     S
O1752  Zn1853  1.931   .     S
O1753  Zn1845  1.931   .     S
O1754  Zn1855  1.931   .     S
O1755  Zn1854  1.931   .     S
O1756  Zn1857  1.932   .     S
O1757  Zn1851  1.943   .     S
O1757  Zn1857  1.943   .     S
O1757  Zn1853  1.944   .     S
O1758  Zn1856  1.932   .     S
O1759  Zn1848  1.938   .     S
O1760  Zn1847  1.938   .     S
O1761  Zn1850  1.937   .     S
O1762  Zn1849  1.937   .     S
O1763  Zn1852  1.937   .     S
O1764  Zn1851  1.937   .     S
O1765  Zn1846  1.937   .     S
O1766  Zn1860  1.937   .     S
O1767  Zn1847  1.937   .     S
O1768  Zn2470  1.943   1_455 S
O1768  Zn1846  1.944   .     S
O1768  Zn1854  1.943   .     S
O1768  Zn1858  1.943   .     S
O1769  Zn1848  1.937   .     S
O1770  Zn1860  1.937   .     S
O1771  Zn1846  1.937   .     S
O1772  Zn1851  1.938   .     S
O1773  Zn1852  1.938   .     S
O1774  Zn1849  1.937   .     S
O1775  Zn1850  1.937   .     S
O1776  Zn2475  1.938   .     S
O1777  Zn1854  1.938   .     S
O1778  Zn617   1.937   1_565 S
O1779  Zn1855  1.943   .     S
O1779  Zn1849  1.943   .     S
O1779  Zn1859  1.943   .     S
O1779  Zn2480  1.944   1_455 S
O1780  Zn1856  1.937   .     S
O1781  Zn1859  1.937   .     S
O1782  Zn2478  1.937   .     S
O1783  Zn1853  1.937   .     S
O1784  Zn605   1.937   1_565 S
O1785  Zn2474  1.937   .     S
O1786  Zn1855  1.937   .     S
O1787  Zn1845  1.937   .     S
O1788  Zn613   1.937   1_565 S
O1789  Zn1858  1.938   .     S
O1790  Zn1852  1.931   .     S
O1791  Zn2479  1.938   .     S
O1792  Zn616   1.937   1_565 S
O1793  Zn1857  1.937   .     S
O1801  Zn1851  1.931   .     S
O1812  Zn1846  1.931   .     S
O1823  Zn1860  1.931   .     S
O1823  C2032   1.278   .     S
O1834  Zn1848  1.931   .     S
Zn1847 O517    1.943   1_565 S
Zn1850 O2388   1.943   .     S
Zn1852 O489    1.943   1_565 S
Zn1854 O2405   1.937   1_455 S
Zn1855 O2396   1.938   1_455 S
Zn1858 O2402   1.937   1_455 S
Zn1859 O2411   1.938   1_455 S
Zn1860 O2399   1.944   .     S
C1861  H2093   1.084   .     S
C1861  C1939   1.396   .     A
C1861  C780    1.396   1_565 S
C1862  C2012   1.396   .     A
C1862  C2025   1.396   .     A
C1862  H2094   1.084   .     S
C1863  C2075   1.411   .     A
C1863  C2068   1.411   .     A
C1863  C2039   1.460   .     S
C1864  C2078   1.410   .     A
C1864  C2040   1.453   .     S
C1864  C2067   1.409   .     A
C1865  C2077   1.411   .     A
C1865  C2041   1.460   .     S
C1865  C2066   1.411   .     A
C1866  C2065   1.410   .     A
C1866  C2042   1.453   .     S
C1866  C2080   1.409   .     A
C1867  C2064   1.411   .     A
C1867  C2043   1.460   .     S
C1867  C2079   1.411   .     A
C1868  C2053   1.453   .     S
C1868  C2063   1.410   .     A
C1868  C2083   1.410   .     A
C1869  C2062   1.412   .     A
C1869  C2054   1.461   .     S
C1869  C2081   1.416   .     A
C1870  C2085   1.410   .     A
C1870  C2061   1.410   .     A
C1870  C2046   1.453   .     S
C1871  C2059   1.416   .     A
C1871  C2084   1.412   .     A
C1871  C2047   1.461   .     S
C1872  C2087   1.410   .     A
C1872  C2058   1.410   .     A
C1872  C2048   1.453   .     S
C1873  C2026   1.396   .     A
C1873  H2105   1.084   .     S
C1873  C2013   1.396   .     A
C1874  C2057   1.410   .     A
C1874  C2050   1.459   .     S
C1874  C2086   1.410   .     A
C1875  C2051   1.453   .     S
C1875  C2056   1.410   .     A
C1875  C2089   1.410   .     A
C1876  C2088   1.410   .     A
C1876  C2055   1.410   .     A
C1876  C2052   1.459   .     S
C1877  C1984   1.421   .     A
C1877  C2036   1.454   .     S
C1878  C1950   1.420   .     A
C1878  C2035   1.456   .     S
C1878  C755    1.420   1_565 S
C1879  C2034   1.454   .     S
C1879  C1961   1.421   .     A
C1880  C1973   1.420   .     A
C1880  C2033   1.456   .     S
C1881  C2032   1.456   .     S
C1881  C2015   1.420   .     A
C1882  C2012   1.420   .     A
C1882  C2031   1.454   .     S
C1883  C2013   1.420   .     A
C1883  C790    1.456   1_565 S
C1883  C778    1.420   1_565 S
C1884  C2014   1.396   .     A
C1884  H2116   1.084   .     S
C1885  C2019   1.421   .     A
C1885  C2029   1.454   .     S
C1885  C774    1.420   1_565 S
C1886  H2171   1.116   .     S
C1886  C1887   1.528   .     S
C1886  O2414   1.414   .     S
C1886  H2182   1.111   .     S
C1887  H2193   1.111   .     S
C1887  H2205   1.112   .     S
C1887  C1888   1.527   .     S
C1888  H2216   1.111   .     S
C1888  H987    1.110   1_565 S
C1888  H998    1.111   1_565 S
C1889  C1890   1.530   .     S
C1889  H2249   1.111   .     S
C1889  H2260   1.117   .     S
C1889  O2415   1.417   .     S
C1890  H2268   1.112   .     S
C1890  H2269   1.111   .     S
C1890  C1891   1.526   .     S
C1891  H2270   1.111   .     S
C1891  H2271   1.110   .     S
C1891  H2273   1.111   .     S
C1892  H2275   1.113   .     S
C1892  O2416   1.413   .     S
C1892  C1893   1.528   .     S
C1892  H2274   1.115   .     S
C1893  H2277   1.112   .     S
C1893  H2276   1.111   .     S
C1893  C1894   1.525   .     S
C1894  H2279   1.111   .     S
C1895  H2127   1.084   .     S
C1895  C2015   1.396   .     A
C1895  C2024   1.396   .     A
C1896  H2282   1.117   .     S
C1896  C1897   1.530   .     S
C1896  O2417   1.417   .     S
C1896  H2281   1.111   .     S
C1897  C1898   1.526   .     S
C1897  H2284   1.112   .     S
C1897  H2285   1.111   .     S
C1898  H2288   1.111   .     S
C1898  H2286   1.111   .     S
C1898  H2287   1.110   .     S
C1899  H2289   1.112   .     S
C1899  C1900   1.531   .     S
C1899  O2418   1.420   .     S
C1899  H2290   1.117   .     S
C1900  H2291   1.112   .     S
C1900  C1901   1.527   .     S
C1900  H2292   1.110   .     S
C1901  H2295   1.111   .     S
C1901  H2293   1.111   .     S
C1902  O2419   1.417   .     S
C1902  H2298   1.117   .     S
C1902  H2297   1.111   .     S
C1902  C1903   1.530   .     S
C1903  C1904   1.526   .     S
C1903  H2300   1.111   .     S
C1903  H2299   1.112   .     S
C1904  H2302   1.110   .     S
C1904  H2301   1.111   .     S
C1904  H2303   1.111   .     S
C1905  H2304   1.117   .     S
C1905  C1907   1.528   .     S
C1905  H2306   1.113   .     S
C1905  O2420   1.414   .     S
C1906  H2138   1.084   .     S
C1906  C2017   1.397   .     A
C1906  C1405   1.396   1_655 S
C1907  H2307   1.112   .     S
C1907  H2308   1.112   .     S
C1907  C1288   1.526   1_655 S
C1908  H2311   1.111   .     S
C1908  H2310   1.110   .     S
C1909  H2312   1.111   .     S
C1909  H2313   1.117   .     S
C1909  C1910   1.530   .     S
C1909  O2422   1.417   .     S
C1910  C1911   1.526   .     S
C1910  H2315   1.111   .     S
C1910  H2314   1.112   .     S
C1911  H2317   1.111   .     S
C1911  H2318   1.110   .     S
C1911  H2319   1.111   .     S
C1912  O2423   1.414   .     S
C1912  C1913   1.528   .     S
C1912  H2321   1.112   .     S
C1912  H2320   1.117   .     S
C1913  H2323   1.112   .     S
C1913  H2322   1.111   .     S
C1914  H2325   1.110   .     S
C1914  H2326   1.111   .     S
C1914  C673    1.526   1_565 S
C1914  H1084   1.111   1_565 S
C1915  H2329   1.117   .     S
C1915  H2328   1.111   .     S
C1915  C1916   1.531   .     S
C1915  O2424   1.417   .     S
C1916  C1918   1.526   .     S
C1916  H2331   1.111   .     S
C1916  H2330   1.112   .     S
C1917  C2018   1.397   .     A
C1917  H2149   1.084   .     S
C1918  H2332   1.111   .     S
C1918  H2333   1.110   .     S
C1918  H2334   1.111   .     S
C1919  C1920   1.528   .     S
C1919  H2335   1.117   .     S
C1919  H2336   1.112   .     S
C1919  O2425   1.414   .     S
C1920  H2337   1.111   .     S
C1920  H2339   1.112   .     S
C1921  H2342   1.110   .     S
C1921  H2340   1.111   .     S
C1921  C1300   1.526   1_655 S
C1921  H1721   1.111   1_655 S
C1922  H2344   1.117   .     S
C1922  O2426   1.417   .     S
C1922  C1923   1.530   .     S
C1922  H2343   1.111   .     S
C1923  H2345   1.112   .     S
C1923  C1924   1.526   .     S
C1923  H2346   1.111   .     S
C1924  H2095   1.111   .     S
C1924  H2348   1.110   .     S
C1924  H2347   1.111   .     S
C1925  H2097   1.112   .     S
C1925  H2096   1.117   .     S
C1925  C1926   1.528   .     S
C1925  O2427   1.414   .     S
C1926  H2099   1.112   .     S
C1926  H2098   1.111   .     S
C1926  C687    1.526   1_565 S
C1927  H2102   1.111   .     S
C1927  H2101   1.110   .     S
C1928  H2160   1.084   .     S
C1928  C2028   1.396   .     A
C1928  C2019   1.397   .     A
C1929  O2428   1.417   .     S
C1929  H2104   1.117   .     S
C1929  C1930   1.531   .     S
C1929  H2103   1.111   .     S
C1930  H2107   1.111   .     S
C1930  C1931   1.526   .     S
C1930  H2106   1.112   .     S
C1931  H2109   1.110   .     S
C1931  H2108   1.111   .     S
C1931  H2110   1.111   .     S
C1932  C1933   1.528   .     S
C1932  H2111   1.117   .     S
C1932  H2112   1.112   .     S
C1932  O2429   1.414   .     S
C1933  H2114   1.112   .     S
C1933  H2113   1.111   .     S
C1933  C1314   1.526   1_655 S
C1934  H2118   1.110   .     S
C1934  H2115   1.111   .     S
C1935  O2430   1.416   .     S
C1935  H2119   1.111   .     S
C1935  C1936   1.531   .     S
C1935  H2120   1.117   .     S
C1936  H2122   1.111   .     S
C1936  H2121   1.112   .     S
C1936  C1937   1.526   .     S
C1937  H2123   1.111   .     S
C1937  H2125   1.111   .     S
C1937  H2124   1.110   .     S
C1938  H2126   1.117   .     S
C1938  C1940   1.528   .     S
C1938  O2431   1.414   .     S
C1938  H2128   1.112   .     S
C1939  C1992   1.493   .     S
C1939  C637    1.420   1_565 S
C1940  H2129   1.111   .     S
C1940  C1941   1.526   .     S
C1940  H2130   1.112   .     S
C1941  H2132   1.110   .     S
C1941  H2133   1.111   .     S
C1941  H2131   1.111   .     S
C1942  H2134   1.111   .     S
C1942  H2135   1.117   .     S
C1942  O2433   1.417   .     S
C1942  C1943   1.531   .     S
C1943  H2137   1.111   .     S
C1943  C1944   1.526   .     S
C1943  H2136   1.112   .     S
C1944  H2139   1.111   .     S
C1944  H2141   1.111   .     S
C1944  H2140   1.110   .     S
C1945  H2143   1.112   .     S
C1945  C1946   1.528   .     S
C1945  H2142   1.117   .     S
C1945  O2434   1.414   .     S
C1946  H2144   1.111   .     S
C1946  C1947   1.526   .     S
C1946  H2145   1.112   .     S
C1947  H2147   1.111   .     S
C1947  H2148   1.110   .     S
C1947  H2146   1.111   .     S
C1948  H2150   1.111   .     S
C1948  O2435   1.416   .     S
C1948  C1949   1.531   .     S
C1948  H2151   1.117   .     S
C1949  H2152   1.112   .     S
C1949  H2153   1.111   .     S
C1949  C1951   1.526   .     S
C1950  C1993   1.491   .     S
C1950  C1972   1.397   .     A
C1951  H2156   1.111   .     S
C1951  H2154   1.111   .     S
C1951  H2155   1.110   .     S
C1952  O2436   1.414   .     S
C1952  H2157   1.117   .     S
C1952  H2158   1.112   .     S
C1952  C1953   1.528   .     S
C1953  H2159   1.111   .     S
C1953  C1954   1.526   .     S
C1953  H2161   1.112   .     S
C1954  H2162   1.111   .     S
C1954  H2163   1.110   .     S
C1954  H2164   1.111   .     S
C1955  H2165   1.111   .     S
C1955  O2437   1.417   .     S
C1955  C1956   1.531   .     S
C1955  H2166   1.117   .     S
C1956  H2167   1.112   .     S
C1956  C1957   1.526   .     S
C1956  H2168   1.111   .     S
C1957  H2170   1.110   .     S
C1957  H2172   1.111   .     S
C1957  H2169   1.111   .     S
C1958  O2438   1.414   .     S
C1958  H2174   1.112   .     S
C1958  C1959   1.528   .     S
C1958  H2173   1.117   .     S
C1959  H2176   1.112   .     S
C1959  C1960   1.526   .     S
C1959  H2175   1.111   .     S
C1960  H2177   1.111   .     S
C1960  H2179   1.110   .     S
C1960  H2178   1.111   .     S
C1961  C2016   1.397   .     A
C1961  C1994   1.494   .     S
C1962  O2439   1.417   .     S
C1962  C1963   1.530   .     S
C1962  H2180   1.111   .     S
C1962  H2181   1.117   .     S
C1963  H2184   1.111   .     S
C1963  C1964   1.526   .     S
C1963  H2183   1.112   .     S
C1964  H2185   1.111   .     S
C1964  H2187   1.111   .     S
C1964  H2186   1.110   .     S
C1965  H2189   1.117   .     S
C1965  O2440   1.420   .     S
C1965  H2188   1.112   .     S
C1965  C1966   1.531   .     S
C1966  C1967   1.527   .     S
C1966  H2191   1.110   .     S
C1966  H2190   1.112   .     S
C1967  H2194   1.111   .     S
C1967  H2192   1.111   .     S
C1967  H2195   1.111   .     S
C1968  C1969   1.530   .     S
C1968  O2441   1.417   .     S
C1968  H2197   1.117   .     S
C1968  H2196   1.111   .     S
C1969  H2198   1.112   .     S
C1969  C1970   1.526   .     S
C1969  H2199   1.111   .     S
C1970  H2201   1.110   .     S
C1970  H2202   1.111   .     S
C1970  H2200   1.111   .     S
C1971  C1974   1.528   .     S
C1971  O2442   1.414   .     S
C1971  H2203   1.116   .     S
C1971  H2206   1.113   .     S
C1972  H2204   1.084   .     S
C1972  C2021   1.396   .     A
C1973  C2027   1.397   .     A
C1973  C1996   1.491   .     S
C1974  C1975   1.526   .     S
C1974  H2207   1.112   .     S
C1974  H2208   1.112   .     S
C1975  H2210   1.111   .     S
C1975  H2209   1.111   .     S
C1975  H2211   1.110   .     S
C1976  O2444   1.417   .     S
C1976  H2212   1.111   .     S
C1976  C1977   1.530   .     S
C1976  H2213   1.117   .     S
C1977  C1978   1.526   .     S
C1977  H2215   1.111   .     S
C1977  H2214   1.112   .     S
C1978  H2217   1.111   .     S
C1978  H2218   1.110   .     S
C1978  H2219   1.111   .     S
C1979  H2221   1.111   .     S
C1979  C1980   1.528   .     S
C1979  O2445   1.414   .     S
C1979  H2220   1.116   .     S
C1980  C1981   1.527   .     S
C1980  H2223   1.112   .     S
C1980  H2222   1.111   .     S
C1981  H2225   1.110   .     S
C1981  H2224   1.111   .     S
C1981  H2226   1.111   .     S
C1982  H2228   1.111   .     S
C1982  H2229   1.117   .     S
C1982  O2446   1.417   .     S
C1982  C1983   1.530   .     S
C1983  C1985   1.526   .     S
C1983  H2230   1.112   .     S
C1983  H2231   1.111   .     S
C1984  C1997   1.495   .     S
C1984  C2038   1.397   .     A
C1985  H2233   1.110   .     S
C1985  H2234   1.111   .     S
C1985  H2232   1.111   .     S
C1986  C1987   1.528   .     S
C1986  H2236   1.113   .     S
C1986  O2447   1.413   .     S
C1986  H2235   1.115   .     S
C1987  H2239   1.112   .     S
C1987  H2237   1.111   .     S
C1987  C1988   1.525   .     S
C1988  H2241   1.111   .     S
C1988  H2242   1.110   .     S
C1988  H2240   1.109   .     S
C1989  C1990   1.530   .     S
C1989  H2244   1.117   .     S
C1989  O2448   1.417   .     S
C1989  H2243   1.111   .     S
C1990  H2246   1.111   .     S
C1990  C1991   1.526   .     S
C1990  H2245   1.112   .     S
C1991  H2248   1.110   .     S
C1991  H2247   1.111   .     S
C1991  H2250   1.111   .     S
C1992  O2449   1.223   .     D
C1992  O2450   1.399   .     S
C1993  O2452   1.399   .     S
C1993  O2451   1.223   .     D
C1994  O2455   1.399   .     S
C1994  O2453   1.223   .     D
C1995  C1998   1.491   .     S
C1995  C2049   1.396   .     A
C1996  O2456   1.223   .     D
C1996  O2457   1.399   .     S
C1997  O2459   1.399   .     S
C1997  O2458   1.223   .     D
C1998  O2460   1.223   .     D
C1998  O2461   1.399   .     S
C1999  C2006   1.493   .     S
C1999  O2463   1.399   .     S
C1999  O2462   1.223   .     D
C2000  O2464   1.223   .     D
C2000  O2351   1.399   .     S
C2000  C2010   1.491   .     S
C2001  O2353   1.399   .     S
C2001  O2352   1.223   .     D
C2001  C2011   1.491   .     S
C2002  C2012   1.493   .     S
C2002  O2355   1.399   .     S
C2002  O2354   1.223   .     D
C2003  O2357   1.399   .     S
C2003  O2356   1.223   .     D
C2003  C2013   1.491   .     S
C2004  O2359   1.399   .     S
C2004  O2358   1.223   .     D
C2004  C2014   1.493   .     S
C2005  O2360   1.223   .     D
C2005  O2362   1.399   .     S
C2005  C2015   1.491   .     S
C2006  C2060   1.396   .     A
C2006  C1259   1.420   1_655 S
C2007  O2363   1.223   .     D
C2007  O2364   1.399   .     S
C2007  C2017   1.495   .     S
C2008  O2366   1.399   .     S
C2008  C2018   1.491   .     S
C2008  O2365   1.223   .     D
C2009  O2367   1.223   .     D
C2009  O2368   1.399   .     S
C2009  C2019   1.494   .     S
C2010  C2071   1.396   .     A
C2010  C1260   1.420   1_655 S
C2011  C2082   1.397   .     A
C2011  C1261   1.420   1_655 S
C2016  H2272   1.084   .     S
C2016  C2022   1.396   .     A
C2017  C1262   1.421   1_655 S
C2020  C2038   1.396   .     A
C2020  C781    1.465   1_554 S
C2021  C780    1.465   1_566 S
C2021  C809    1.396   1_565 S
C2022  C2023   1.465   1_554 S
C2023  C2027   1.396   .     A
C2023  C2022   1.465   1_556 S
C2024  C2025   1.465   .     S
C2026  C2028   1.465   .     S
C2026  C677    1.396   1_565 S
C2027  H2283   1.084   .     S
C2028  C644    1.396   1_565 S
C2029  O2410   1.277   .     A
C2029  O1214   1.278   1_565 S
C2030  O2421   1.278   .     S
C2031  O2432   1.277   .     S
C2032  O2369   1.278   .     A
C2033  O2370   1.278   .     A
C2033  O2374   1.278   .     A
C2034  O2371   1.278   .     S
C2034  O2375   1.277   .     S
C2035  O1132   1.278   1_565 A
C2035  O1136   1.278   1_565 A
C2036  O2373   1.277   .     A
C2036  O2378   1.278   .     A
C2037  O2379   1.276   .     A
C2037  O2407   1.276   .     A
C2037  C2092   1.454   .     S
C2038  H2294   1.084   .     S
C2039  O2408   1.278   .     A
C2039  O2380   1.279   .     A
C2040  O2405   1.276   .     A
C2040  O2381   1.276   .     A
C2041  O2406   1.278   .     A
C2041  O2382   1.278   .     A
C2042  O2383   1.276   .     A
C2042  O2412   1.276   .     A
C2043  O2413   1.278   .     A
C2043  O2384   1.278   .     A
C2044  O2409   1.276   .     A
C2044  C2090   1.454   .     S
C2044  O2385   1.276   .     A
C2045  O2411   1.279   .     A
C2045  O2386   1.278   .     A
C2045  C2091   1.460   .     S
C2046  O2387   1.276   .     A
C2046  O2398   1.276   .     A
C2047  O2389   1.281   .     A
C2047  O2400   1.276   .     A
C2048  O2390   1.276   .     A
C2048  O2396   1.276   .     A
C2049  H2305   1.084   .     S
C2050  O2391   1.278   .     A
C2050  O2397   1.279   .     A
C2051  O2403   1.276   .     A
C2051  O2392   1.276   .     A
C2052  O2404   1.278   .     A
C2052  O2393   1.279   .     A
C2053  O2401   1.276   .     A
C2053  O2394   1.276   .     A
C2054  O2402   1.281   .     A
C2054  O2395   1.276   .     A
C2055  C2072   1.395   .     A
C2055  O2414   1.385   .     S
C2056  C2070   1.394   .     A
C2056  O2415   1.387   .     S
C2057  O2416   1.385   .     S
C2057  C2069   1.397   .     A
C2058  O2417   1.387   .     S
C2058  C2068   1.394   .     A
C2059  O2418   1.386   .     S
C2059  C2067   1.389   .     A
C2060  H2316   1.084   .     S
C2060  C1402   1.396   1_655 S
C2061  C2066   1.394   .     A
C2061  O2419   1.387   .     S
C2062  O2420   1.385   .     S
C2062  C2065   1.393   .     A
C2063  O2422   1.387   .     S
C2063  C2064   1.394   .     A
C2064  O2423   1.385   .     S
C2065  O2424   1.387   .     S
C2066  O2425   1.385   .     S
C2067  O2426   1.387   .     S
C2068  O2427   1.385   .     S
C2069  O2428   1.387   .     S
C2069  C2092   1.410   .     A
C2070  C2091   1.411   .     A
C2070  O2429   1.385   .     S
C2071  H2327   1.084   .     S
C2071  C1403   1.396   1_655 S
C2072  O2430   1.387   .     S
C2072  C2090   1.409   .     A
C2073  C2089   1.394   .     A
C2073  C2091   1.411   .     A
C2073  O2431   1.385   .     S
C2074  O2433   1.387   .     S
C2074  C2090   1.410   .     A
C2074  C2088   1.397   .     A
C2075  C2087   1.394   .     A
C2075  O2434   1.385   .     S
C2076  O2435   1.387   .     S
C2076  C2086   1.395   .     A
C2076  C2092   1.409   .     A
C2077  C2085   1.394   .     A
C2077  O2436   1.385   .     S
C2078  O2437   1.387   .     S
C2078  C2084   1.393   .     A
C2079  O2438   1.385   .     S
C2079  C2083   1.394   .     A
C2080  O2439   1.387   .     S
C2080  C2081   1.389   .     A
C2081  O2440   1.386   .     S
C2082  H2338   1.084   .     S
C2082  C1404   1.396   1_655 S
C2083  O2441   1.387   .     S
C2084  O2442   1.385   .     S
C2085  O2444   1.387   .     S
C2086  O2445   1.385   .     S
C2087  O2446   1.387   .     S
C2088  O2447   1.385   .     S
C2089  O2448   1.387   .     S
H2100  C687    1.111   1_565 S
H2117  C1314   1.111   1_655 S
H2251  O2450   1.014   .     S
H2252  O2452   1.013   .     S
H2253  O2455   1.014   .     S
H2254  O2457   1.013   .     S
H2255  O2459   1.014   .     S
H2256  O2461   1.013   .     S
H2257  O2463   1.014   .     S
H2258  O2351   1.013   .     S
H2259  O2353   1.013   .     S
H2261  O2355   1.014   .     S
H2262  O2357   1.013   .     S
H2263  O2359   1.014   .     S
H2264  O2362   1.013   .     S
H2265  O2364   1.014   .     S
H2266  O2366   1.013   .     S
H2267  O2368   1.014   .     S
H2278  C1274   1.109   1_655 S
H2280  C1274   1.110   1_655 S
H2296  C661    1.111   1_565 S
H2309  C1288   1.111   1_655 S
O2349  Zn2468  1.943   .     S
O2349  Zn2476  1.943   .     S
O2349  Zn2465  1.944   .     S
O2350  Zn2467  1.931   .     S
O2350  C790    1.278   1_565 A
O2361  Zn2470  1.932   .     S
O2361  C1411   1.278   1_655 A
O2369  Zn2469  1.932   .     S
O2370  Zn2479  1.931   .     S
O2371  Zn2478  1.931   .     S
O2372  Zn2473  1.931   .     S
O2373  Zn2465  1.931   .     S
O2374  Zn2475  1.931   .     S
O2375  Zn2474  1.931   .     S
O2376  Zn2477  1.932   .     S
O2377  Zn2471  1.943   .     S
O2377  Zn2477  1.943   .     S
O2377  Zn2473  1.944   .     S
O2378  Zn2476  1.932   .     S
O2379  Zn2468  1.938   .     S
O2380  Zn2467  1.938   .     S
O2381  Zn2470  1.937   .     S
O2382  Zn2469  1.937   .     S
O2383  Zn2472  1.937   .     S
O2384  Zn2471  1.937   .     S
O2385  Zn2466  1.937   .     S
O2386  Zn2480  1.937   .     S
O2387  Zn2467  1.937   .     S
O2388  Zn2466  1.944   .     S
O2388  Zn2474  1.943   .     S
O2388  Zn2478  1.943   .     S
O2389  Zn2468  1.937   .     S
O2390  Zn2480  1.937   .     S
O2391  Zn2466  1.937   .     S
O2392  Zn2471  1.938   .     S
O2393  Zn2472  1.938   .     S
O2394  Zn2469  1.937   .     S
O2395  Zn2470  1.937   .     S
O2396  Zn1855  1.938   1_655 S
O2397  Zn2474  1.938   .     S
O2398  Zn1237  1.937   1_565 S
O2399  Zn2475  1.943   .     S
O2399  Zn2469  1.943   .     S
O2399  Zn2479  1.943   .     S
O2400  Zn2476  1.937   .     S
O2401  Zn2479  1.937   .     S
O2402  Zn1858  1.937   1_655 S
O2403  Zn2473  1.937   .     S
O2404  Zn1225  1.937   1_565 S
O2405  Zn1854  1.937   1_655 S
O2406  Zn2475  1.937   .     S
O2407  Zn2465  1.937   .     S
O2408  Zn1233  1.937   1_565 S
O2409  Zn2478  1.938   .     S
O2410  Zn2472  1.931   .     S
O2411  Zn1859  1.938   1_655 S
O2412  Zn1236  1.937   1_565 S
O2413  Zn2477  1.937   .     S
O2421  Zn2471  1.931   .     S
O2432  Zn2466  1.931   .     S
O2443  Zn2480  1.931   .     S
O2443  C1412   1.278   1_655 S
O2454  Zn2468  1.931   .     S
Zn2467 O1137   1.943   1_565 S
Zn2470 O1768   1.943   1_655 S
Zn2472 O1109   1.943   1_565 S
Zn2480 O1779   1.944   1_655 S
