data_str_m3_o10_o16_pcu_sym.60
_audit_creation_date              2020-01-03
_audit_creation_method            'Materials Studio'
_symmetry_space_group_name_H-M    'P1'
_symmetry_Int_Tables_number       1
_symmetry_cell_setting            triclinic
loop_
_symmetry_equiv_pos_as_xyz
  x,y,z
_cell_length_a                    23.4391
_cell_length_b                    25.7134
_cell_length_c                    25.2985
_cell_angle_alpha                 92.5204
_cell_angle_beta                  102.5828
_cell_angle_gamma                 94.0257
loop_
_atom_site_label
_atom_site_type_symbol
_atom_site_fract_x
_atom_site_fract_y
_atom_site_fract_z
_atom_site_U_iso_or_equiv
_atom_site_adp_type
_atom_site_occupancy
Br1    Br    0.23727   0.08578   0.37551   0.00000  Uiso   1.00
Br2    Br    0.18945   0.21736   0.38704   0.00000  Uiso   1.00
C3     C     0.01486   0.26488   0.24875   0.00000  Uiso   1.00
C4     C     0.05845   0.17606   0.41365   0.00000  Uiso   1.00
C5     C     0.02263   0.31944   0.24814   0.00000  Uiso   1.00
C6     C     0.03716   0.17150   0.35449   0.00000  Uiso   1.00
C7     C     0.31095   0.01395   0.25260   0.00000  Uiso   1.00
C8     C     0.31857   0.06847   0.25153   0.00000  Uiso   1.00
C9     C     0.29617   0.16035   0.14631   0.00000  Uiso   1.00
C10    C     0.27354   0.09949   0.00558   0.00000  Uiso   1.00
C11    C     0.27218   0.14589   0.08999   0.00000  Uiso   1.00
C12    C     0.02185   0.19377   0.44652   0.00000  Uiso   1.00
C13    C     0.03974   0.19526   0.00265   0.00000  Uiso   1.00
C14    C     0.13156   0.16035   0.49454   0.00000  Uiso   1.00
C15    C     0.09312   0.17695   0.02675   0.00000  Uiso   1.00
C16    C     0.11463   0.16139   0.43798   0.00000  Uiso   1.00
C17    C     0.18800   0.14484   0.01635   0.00000  Uiso   1.00
C18    C     0.21948   0.11852   0.48261   0.00000  Uiso   1.00
C19    C     0.19939   0.11877   0.42650   0.00000  Uiso   1.00
C20    C     0.15722   0.15290   0.40790   0.00000  Uiso   1.00
C21    C     0.21622   0.16016   0.06885   0.00000  Uiso   1.00
C22    C     0.29982   0.11308   0.05967   0.00000  Uiso   1.00
H23    H     0.00886   0.09958   0.07714   0.00000  Uiso   1.00
H24    H     0.06508   0.00316   0.24388   0.00000  Uiso   1.00
H25    H     0.26853   0.33024   0.25694   0.00000  Uiso   1.00
H26    H     0.15715   0.12114   0.21459   0.00000  Uiso   1.00
H27    H     0.17585   0.21481   0.28029   0.00000  Uiso   1.00
H28    H     0.29751   0.07748   0.48152   0.00000  Uiso   1.00
H29    H     0.19635   0.18621   0.09292   0.00000  Uiso   1.00
H30    H     0.31271   0.20661   0.42884   0.00000  Uiso   1.00
H31    H     0.10307   0.17539   0.07038   0.00000  Uiso   1.00
H32    H     0.01125   0.20929   0.02759   0.00000  Uiso   1.00
N33    N     0.14493   0.15223   0.23543   0.00000  Uiso   1.00
N34    N     0.18840   0.18110   0.26458   0.00000  Uiso   1.00
O35    O     0.29769   0.24629   0.25358   0.00000  Uiso   1.00
O36    O     0.05742   0.23704   0.24423   0.00000  Uiso   1.00
O37    O     0.31490   0.17358   0.33380   0.00000  Uiso   1.00
O38    O     0.07463   0.16433   0.32446   0.00000  Uiso   1.00
O39    O     0.27592   0.09629   0.25577   0.00000  Uiso   1.00
O40    O     0.03565   0.08704   0.24642   0.00000  Uiso   1.00
O41    O     0.25870   0.16901   0.17554   0.00000  Uiso   1.00
O42    O     0.01843   0.15976   0.16620   0.00000  Uiso   1.00
Zn43   Zn    0.27119   0.17284   0.25624   0.00000  Uiso   1.00
Zn44   Zn    0.06214   0.16049   0.24376   0.00000  Uiso   1.00
Br45   Br    0.57060   0.08578   0.37551   0.00000  Uiso   1.00
Br46   Br    0.52279   0.21736   0.38704   0.00000  Uiso   1.00
C47    C     0.34819   0.26488   0.24875   0.00000  Uiso   1.00
C48    C     0.39178   0.17606   0.41365   0.00000  Uiso   1.00
C49    C     0.35596   0.31944   0.24814   0.00000  Uiso   1.00
C50    C     0.37050   0.17150   0.35449   0.00000  Uiso   1.00
C51    C     0.64428   0.01395   0.25260   0.00000  Uiso   1.00
C52    C     0.65190   0.06847   0.25153   0.00000  Uiso   1.00
C53    C     0.62950   0.16035   0.14631   0.00000  Uiso   1.00
C54    C     0.60687   0.09949   0.00558   0.00000  Uiso   1.00
C55    C     0.60551   0.14589   0.08999   0.00000  Uiso   1.00
C56    C     0.35519   0.19377   0.44652   0.00000  Uiso   1.00
C57    C     0.37307   0.19526   0.00265   0.00000  Uiso   1.00
C58    C     0.46489   0.16035   0.49454   0.00000  Uiso   1.00
C59    C     0.42646   0.17695   0.02675   0.00000  Uiso   1.00
C60    C     0.44796   0.16139   0.43798   0.00000  Uiso   1.00
C61    C     0.52133   0.14484   0.01635   0.00000  Uiso   1.00
C62    C     0.55281   0.11852   0.48261   0.00000  Uiso   1.00
C63    C     0.53273   0.11877   0.42650   0.00000  Uiso   1.00
C64    C     0.49055   0.15290   0.40790   0.00000  Uiso   1.00
C65    C     0.54956   0.16016   0.06885   0.00000  Uiso   1.00
C66    C     0.63315   0.11308   0.05967   0.00000  Uiso   1.00
H67    H     0.34220   0.09958   0.07714   0.00000  Uiso   1.00
H68    H     0.39841   0.00316   0.24388   0.00000  Uiso   1.00
H69    H     0.60186   0.33024   0.25694   0.00000  Uiso   1.00
H70    H     0.49049   0.12114   0.21459   0.00000  Uiso   1.00
H71    H     0.50918   0.21481   0.28029   0.00000  Uiso   1.00
H72    H     0.63084   0.07748   0.48152   0.00000  Uiso   1.00
H73    H     0.52968   0.18621   0.09292   0.00000  Uiso   1.00
H74    H     0.64605   0.20661   0.42884   0.00000  Uiso   1.00
H75    H     0.43641   0.17539   0.07038   0.00000  Uiso   1.00
H76    H     0.34458   0.20929   0.02759   0.00000  Uiso   1.00
N77    N     0.47827   0.15223   0.23543   0.00000  Uiso   1.00
N78    N     0.52173   0.18110   0.26458   0.00000  Uiso   1.00
O79    O     0.63102   0.24629   0.25358   0.00000  Uiso   1.00
O80    O     0.39075   0.23704   0.24423   0.00000  Uiso   1.00
O81    O     0.64823   0.17358   0.33380   0.00000  Uiso   1.00
O82    O     0.40796   0.16433   0.32446   0.00000  Uiso   1.00
O83    O     0.60925   0.09629   0.25577   0.00000  Uiso   1.00
O84    O     0.36898   0.08704   0.24642   0.00000  Uiso   1.00
O85    O     0.59204   0.16901   0.17554   0.00000  Uiso   1.00
O86    O     0.35177   0.15976   0.16620   0.00000  Uiso   1.00
Zn87   Zn    0.60453   0.17284   0.25624   0.00000  Uiso   1.00
Zn88   Zn    0.39547   0.16049   0.24376   0.00000  Uiso   1.00
Br89   Br    0.90393   0.08578   0.37551   0.00000  Uiso   1.00
Br90   Br    0.85612   0.21736   0.38704   0.00000  Uiso   1.00
C91    C     0.68152   0.26488   0.24875   0.00000  Uiso   1.00
C92    C     0.72512   0.17606   0.41365   0.00000  Uiso   1.00
C93    C     0.68930   0.31944   0.24814   0.00000  Uiso   1.00
C94    C     0.70383   0.17150   0.35449   0.00000  Uiso   1.00
C95    C     0.97761   0.01395   0.25260   0.00000  Uiso   1.00
C96    C     0.98524   0.06847   0.25153   0.00000  Uiso   1.00
C97    C     0.96284   0.16035   0.14631   0.00000  Uiso   1.00
C98    C     0.94020   0.09949   0.00558   0.00000  Uiso   1.00
C99    C     0.93884   0.14589   0.08999   0.00000  Uiso   1.00
C100   C     0.68852   0.19377   0.44652   0.00000  Uiso   1.00
C101   C     0.70640   0.19526   0.00265   0.00000  Uiso   1.00
C102   C     0.79823   0.16035   0.49454   0.00000  Uiso   1.00
C103   C     0.75979   0.17695   0.02675   0.00000  Uiso   1.00
C104   C     0.78129   0.16139   0.43798   0.00000  Uiso   1.00
C105   C     0.85467   0.14484   0.01635   0.00000  Uiso   1.00
C106   C     0.88614   0.11852   0.48261   0.00000  Uiso   1.00
C107   C     0.86606   0.11877   0.42650   0.00000  Uiso   1.00
C108   C     0.82388   0.15290   0.40790   0.00000  Uiso   1.00
C109   C     0.88289   0.16016   0.06885   0.00000  Uiso   1.00
C110   C     0.96648   0.11308   0.05967   0.00000  Uiso   1.00
H111   H     0.67553   0.09958   0.07714   0.00000  Uiso   1.00
H112   H     0.73174   0.00316   0.24388   0.00000  Uiso   1.00
H113   H     0.93520   0.33024   0.25694   0.00000  Uiso   1.00
H114   H     0.82382   0.12114   0.21459   0.00000  Uiso   1.00
H115   H     0.84252   0.21481   0.28029   0.00000  Uiso   1.00
H116   H     0.96418   0.07748   0.48152   0.00000  Uiso   1.00
H117   H     0.86301   0.18621   0.09292   0.00000  Uiso   1.00
H118   H     0.97938   0.20661   0.42884   0.00000  Uiso   1.00
H119   H     0.76974   0.17539   0.07038   0.00000  Uiso   1.00
H120   H     0.67792   0.20929   0.02759   0.00000  Uiso   1.00
N121   N     0.81160   0.15223   0.23543   0.00000  Uiso   1.00
N122   N     0.85507   0.18110   0.26458   0.00000  Uiso   1.00
O123   O     0.96435   0.24629   0.25358   0.00000  Uiso   1.00
O124   O     0.72408   0.23704   0.24423   0.00000  Uiso   1.00
O125   O     0.98157   0.17358   0.33380   0.00000  Uiso   1.00
O126   O     0.74130   0.16433   0.32446   0.00000  Uiso   1.00
O127   O     0.94258   0.09629   0.25577   0.00000  Uiso   1.00
O128   O     0.70231   0.08704   0.24642   0.00000  Uiso   1.00
O129   O     0.92537   0.16901   0.17554   0.00000  Uiso   1.00
O130   O     0.68510   0.15976   0.16620   0.00000  Uiso   1.00
Zn131  Zn    0.93786   0.17284   0.25624   0.00000  Uiso   1.00
Zn132  Zn    0.72881   0.16049   0.24376   0.00000  Uiso   1.00
Br133  Br    0.23727   0.41912   0.37551   0.00000  Uiso   1.00
Br134  Br    0.18945   0.55070   0.38704   0.00000  Uiso   1.00
C135   C     0.01486   0.59821   0.24875   0.00000  Uiso   1.00
C136   C     0.05845   0.50940   0.41365   0.00000  Uiso   1.00
C137   C     0.02263   0.65277   0.24814   0.00000  Uiso   1.00
C138   C     0.03716   0.50484   0.35449   0.00000  Uiso   1.00
C139   C     0.31095   0.34728   0.25260   0.00000  Uiso   1.00
C140   C     0.31857   0.40181   0.25153   0.00000  Uiso   1.00
C141   C     0.29617   0.49368   0.14631   0.00000  Uiso   1.00
C142   C     0.27354   0.43282   0.00558   0.00000  Uiso   1.00
C143   C     0.27218   0.47923   0.08999   0.00000  Uiso   1.00
C144   C     0.02185   0.52710   0.44652   0.00000  Uiso   1.00
C145   C     0.03974   0.52860   0.00265   0.00000  Uiso   1.00
C146   C     0.13156   0.49368   0.49454   0.00000  Uiso   1.00
C147   C     0.09312   0.51028   0.02675   0.00000  Uiso   1.00
C148   C     0.11463   0.49473   0.43798   0.00000  Uiso   1.00
C149   C     0.18800   0.47817   0.01635   0.00000  Uiso   1.00
C150   C     0.21948   0.45185   0.48261   0.00000  Uiso   1.00
C151   C     0.19939   0.45210   0.42650   0.00000  Uiso   1.00
C152   C     0.15722   0.48624   0.40790   0.00000  Uiso   1.00
C153   C     0.21622   0.49349   0.06885   0.00000  Uiso   1.00
C154   C     0.29982   0.44642   0.05967   0.00000  Uiso   1.00
H155   H     0.00886   0.43291   0.07714   0.00000  Uiso   1.00
H156   H     0.06508   0.33650   0.24388   0.00000  Uiso   1.00
H157   H     0.26853   0.66357   0.25694   0.00000  Uiso   1.00
H158   H     0.15715   0.45448   0.21459   0.00000  Uiso   1.00
H159   H     0.17585   0.54814   0.28029   0.00000  Uiso   1.00
H160   H     0.29751   0.41081   0.48152   0.00000  Uiso   1.00
H161   H     0.19635   0.51954   0.09292   0.00000  Uiso   1.00
H162   H     0.31271   0.53995   0.42884   0.00000  Uiso   1.00
H163   H     0.10307   0.50872   0.07038   0.00000  Uiso   1.00
H164   H     0.01125   0.54262   0.02759   0.00000  Uiso   1.00
N165   N     0.14493   0.48556   0.23543   0.00000  Uiso   1.00
N166   N     0.18840   0.51444   0.26458   0.00000  Uiso   1.00
O167   O     0.29769   0.57963   0.25358   0.00000  Uiso   1.00
O168   O     0.05742   0.57038   0.24423   0.00000  Uiso   1.00
O169   O     0.31490   0.50691   0.33380   0.00000  Uiso   1.00
O170   O     0.07463   0.49766   0.32446   0.00000  Uiso   1.00
O171   O     0.27592   0.42962   0.25577   0.00000  Uiso   1.00
O172   O     0.03565   0.42037   0.24642   0.00000  Uiso   1.00
O173   O     0.25870   0.50234   0.17554   0.00000  Uiso   1.00
O174   O     0.01843   0.49309   0.16620   0.00000  Uiso   1.00
Zn175  Zn    0.27119   0.50618   0.25624   0.00000  Uiso   1.00
Zn176  Zn    0.06214   0.49382   0.24376   0.00000  Uiso   1.00
Br177  Br    0.57060   0.41912   0.37551   0.00000  Uiso   1.00
Br178  Br    0.52279   0.55070   0.38704   0.00000  Uiso   1.00
C179   C     0.34819   0.59821   0.24875   0.00000  Uiso   1.00
C180   C     0.39178   0.50940   0.41365   0.00000  Uiso   1.00
C181   C     0.35596   0.65277   0.24814   0.00000  Uiso   1.00
C182   C     0.37050   0.50484   0.35449   0.00000  Uiso   1.00
C183   C     0.64428   0.34728   0.25260   0.00000  Uiso   1.00
C184   C     0.65190   0.40181   0.25153   0.00000  Uiso   1.00
C185   C     0.62950   0.49368   0.14631   0.00000  Uiso   1.00
C186   C     0.60687   0.43282   0.00558   0.00000  Uiso   1.00
C187   C     0.60551   0.47923   0.08999   0.00000  Uiso   1.00
C188   C     0.35519   0.52710   0.44652   0.00000  Uiso   1.00
C189   C     0.37307   0.52860   0.00265   0.00000  Uiso   1.00
C190   C     0.46489   0.49368   0.49454   0.00000  Uiso   1.00
C191   C     0.42646   0.51028   0.02675   0.00000  Uiso   1.00
C192   C     0.44796   0.49473   0.43798   0.00000  Uiso   1.00
C193   C     0.52133   0.47817   0.01635   0.00000  Uiso   1.00
C194   C     0.55281   0.45185   0.48261   0.00000  Uiso   1.00
C195   C     0.53273   0.45210   0.42650   0.00000  Uiso   1.00
C196   C     0.49055   0.48624   0.40790   0.00000  Uiso   1.00
C197   C     0.54956   0.49349   0.06885   0.00000  Uiso   1.00
C198   C     0.63315   0.44642   0.05967   0.00000  Uiso   1.00
H199   H     0.34220   0.43291   0.07714   0.00000  Uiso   1.00
H200   H     0.39841   0.33650   0.24388   0.00000  Uiso   1.00
H201   H     0.60186   0.66357   0.25694   0.00000  Uiso   1.00
H202   H     0.49049   0.45448   0.21459   0.00000  Uiso   1.00
H203   H     0.50918   0.54814   0.28029   0.00000  Uiso   1.00
H204   H     0.63084   0.41081   0.48152   0.00000  Uiso   1.00
H205   H     0.52968   0.51954   0.09292   0.00000  Uiso   1.00
H206   H     0.64605   0.53995   0.42884   0.00000  Uiso   1.00
H207   H     0.43641   0.50872   0.07038   0.00000  Uiso   1.00
H208   H     0.34458   0.54262   0.02759   0.00000  Uiso   1.00
N209   N     0.47827   0.48556   0.23543   0.00000  Uiso   1.00
N210   N     0.52173   0.51444   0.26458   0.00000  Uiso   1.00
O211   O     0.63102   0.57963   0.25358   0.00000  Uiso   1.00
O212   O     0.39075   0.57038   0.24423   0.00000  Uiso   1.00
O213   O     0.64823   0.50691   0.33380   0.00000  Uiso   1.00
O214   O     0.40796   0.49766   0.32446   0.00000  Uiso   1.00
O215   O     0.60925   0.42962   0.25577   0.00000  Uiso   1.00
O216   O     0.36898   0.42037   0.24642   0.00000  Uiso   1.00
O217   O     0.59204   0.50234   0.17554   0.00000  Uiso   1.00
O218   O     0.35177   0.49309   0.16620   0.00000  Uiso   1.00
Zn219  Zn    0.60453   0.50618   0.25624   0.00000  Uiso   1.00
Zn220  Zn    0.39547   0.49382   0.24376   0.00000  Uiso   1.00
Br221  Br    0.90393   0.41912   0.37551   0.00000  Uiso   1.00
Br222  Br    0.85612   0.55070   0.38704   0.00000  Uiso   1.00
C223   C     0.68152   0.59821   0.24875   0.00000  Uiso   1.00
C224   C     0.72512   0.50940   0.41365   0.00000  Uiso   1.00
C225   C     0.68930   0.65277   0.24814   0.00000  Uiso   1.00
C226   C     0.70383   0.50484   0.35449   0.00000  Uiso   1.00
C227   C     0.97761   0.34728   0.25260   0.00000  Uiso   1.00
C228   C     0.98524   0.40181   0.25153   0.00000  Uiso   1.00
C229   C     0.96284   0.49368   0.14631   0.00000  Uiso   1.00
C230   C     0.94020   0.43282   0.00558   0.00000  Uiso   1.00
C231   C     0.93884   0.47923   0.08999   0.00000  Uiso   1.00
C232   C     0.68852   0.52710   0.44652   0.00000  Uiso   1.00
C233   C     0.70640   0.52860   0.00265   0.00000  Uiso   1.00
C234   C     0.79823   0.49368   0.49454   0.00000  Uiso   1.00
C235   C     0.75979   0.51028   0.02675   0.00000  Uiso   1.00
C236   C     0.78129   0.49473   0.43798   0.00000  Uiso   1.00
C237   C     0.85467   0.47817   0.01635   0.00000  Uiso   1.00
C238   C     0.88614   0.45185   0.48261   0.00000  Uiso   1.00
C239   C     0.86606   0.45210   0.42650   0.00000  Uiso   1.00
C240   C     0.82388   0.48624   0.40790   0.00000  Uiso   1.00
C241   C     0.88289   0.49349   0.06885   0.00000  Uiso   1.00
C242   C     0.96648   0.44642   0.05967   0.00000  Uiso   1.00
H243   H     0.67553   0.43291   0.07714   0.00000  Uiso   1.00
H244   H     0.73174   0.33650   0.24388   0.00000  Uiso   1.00
H245   H     0.93520   0.66357   0.25694   0.00000  Uiso   1.00
H246   H     0.82382   0.45448   0.21459   0.00000  Uiso   1.00
H247   H     0.84252   0.54814   0.28029   0.00000  Uiso   1.00
H248   H     0.96418   0.41081   0.48152   0.00000  Uiso   1.00
H249   H     0.86301   0.51954   0.09292   0.00000  Uiso   1.00
H250   H     0.97938   0.53995   0.42884   0.00000  Uiso   1.00
H251   H     0.76974   0.50872   0.07038   0.00000  Uiso   1.00
H252   H     0.67792   0.54262   0.02759   0.00000  Uiso   1.00
N253   N     0.81160   0.48556   0.23543   0.00000  Uiso   1.00
N254   N     0.85507   0.51444   0.26458   0.00000  Uiso   1.00
O255   O     0.96435   0.57963   0.25358   0.00000  Uiso   1.00
O256   O     0.72408   0.57038   0.24423   0.00000  Uiso   1.00
O257   O     0.98157   0.50691   0.33380   0.00000  Uiso   1.00
O258   O     0.74130   0.49766   0.32446   0.00000  Uiso   1.00
O259   O     0.94258   0.42962   0.25577   0.00000  Uiso   1.00
O260   O     0.70231   0.42037   0.24642   0.00000  Uiso   1.00
O261   O     0.92537   0.50234   0.17554   0.00000  Uiso   1.00
O262   O     0.68510   0.49309   0.16620   0.00000  Uiso   1.00
Zn263  Zn    0.93786   0.50618   0.25624   0.00000  Uiso   1.00
Zn264  Zn    0.72881   0.49382   0.24376   0.00000  Uiso   1.00
Br265  Br    0.23727   0.75245   0.37551   0.00000  Uiso   1.00
Br266  Br    0.18945   0.88403   0.38704   0.00000  Uiso   1.00
C267   C     0.01486   0.93154   0.24875   0.00000  Uiso   1.00
C268   C     0.05845   0.84273   0.41365   0.00000  Uiso   1.00
C269   C     0.02263   0.98610   0.24814   0.00000  Uiso   1.00
C270   C     0.03716   0.83817   0.35449   0.00000  Uiso   1.00
C271   C     0.31095   0.68062   0.25260   0.00000  Uiso   1.00
C272   C     0.31857   0.73514   0.25153   0.00000  Uiso   1.00
C273   C     0.29617   0.82701   0.14631   0.00000  Uiso   1.00
C274   C     0.27354   0.76616   0.00558   0.00000  Uiso   1.00
C275   C     0.27218   0.81256   0.08999   0.00000  Uiso   1.00
C276   C     0.02185   0.86043   0.44652   0.00000  Uiso   1.00
C277   C     0.03974   0.86193   0.00265   0.00000  Uiso   1.00
C278   C     0.13156   0.82701   0.49454   0.00000  Uiso   1.00
C279   C     0.09312   0.84361   0.02675   0.00000  Uiso   1.00
C280   C     0.11463   0.82806   0.43798   0.00000  Uiso   1.00
C281   C     0.18800   0.81151   0.01635   0.00000  Uiso   1.00
C282   C     0.21948   0.78518   0.48261   0.00000  Uiso   1.00
C283   C     0.19939   0.78543   0.42650   0.00000  Uiso   1.00
C284   C     0.15722   0.81957   0.40790   0.00000  Uiso   1.00
C285   C     0.21622   0.82683   0.06885   0.00000  Uiso   1.00
C286   C     0.29982   0.77975   0.05967   0.00000  Uiso   1.00
H287   H     0.00886   0.76625   0.07714   0.00000  Uiso   1.00
H288   H     0.06508   0.66983   0.24388   0.00000  Uiso   1.00
H289   H     0.26853   0.99690   0.25694   0.00000  Uiso   1.00
H290   H     0.15715   0.78781   0.21459   0.00000  Uiso   1.00
H291   H     0.17585   0.88147   0.28029   0.00000  Uiso   1.00
H292   H     0.29751   0.74414   0.48152   0.00000  Uiso   1.00
H293   H     0.19635   0.85287   0.09292   0.00000  Uiso   1.00
H294   H     0.31271   0.87328   0.42884   0.00000  Uiso   1.00
H295   H     0.10307   0.84206   0.07038   0.00000  Uiso   1.00
H296   H     0.01125   0.87596   0.02759   0.00000  Uiso   1.00
N297   N     0.14493   0.81890   0.23543   0.00000  Uiso   1.00
N298   N     0.18840   0.84777   0.26458   0.00000  Uiso   1.00
O299   O     0.29769   0.91296   0.25358   0.00000  Uiso   1.00
O300   O     0.05742   0.90371   0.24423   0.00000  Uiso   1.00
O301   O     0.31490   0.84024   0.33380   0.00000  Uiso   1.00
O302   O     0.07463   0.83099   0.32446   0.00000  Uiso   1.00
O303   O     0.27592   0.76296   0.25577   0.00000  Uiso   1.00
O304   O     0.03565   0.75371   0.24642   0.00000  Uiso   1.00
O305   O     0.25870   0.83567   0.17554   0.00000  Uiso   1.00
O306   O     0.01843   0.82642   0.16620   0.00000  Uiso   1.00
Zn307  Zn    0.27119   0.83951   0.25624   0.00000  Uiso   1.00
Zn308  Zn    0.06214   0.82716   0.24376   0.00000  Uiso   1.00
Br309  Br    0.57060   0.75245   0.37551   0.00000  Uiso   1.00
Br310  Br    0.52279   0.88403   0.38704   0.00000  Uiso   1.00
C311   C     0.34819   0.93154   0.24875   0.00000  Uiso   1.00
C312   C     0.39178   0.84273   0.41365   0.00000  Uiso   1.00
C313   C     0.35596   0.98610   0.24814   0.00000  Uiso   1.00
C314   C     0.37050   0.83817   0.35449   0.00000  Uiso   1.00
C315   C     0.64428   0.68062   0.25260   0.00000  Uiso   1.00
C316   C     0.65190   0.73514   0.25153   0.00000  Uiso   1.00
C317   C     0.62950   0.82701   0.14631   0.00000  Uiso   1.00
C318   C     0.60687   0.76616   0.00558   0.00000  Uiso   1.00
C319   C     0.60551   0.81256   0.08999   0.00000  Uiso   1.00
C320   C     0.35519   0.86043   0.44652   0.00000  Uiso   1.00
C321   C     0.37307   0.86193   0.00265   0.00000  Uiso   1.00
C322   C     0.46489   0.82701   0.49454   0.00000  Uiso   1.00
C323   C     0.42646   0.84361   0.02675   0.00000  Uiso   1.00
C324   C     0.44796   0.82806   0.43798   0.00000  Uiso   1.00
C325   C     0.52133   0.81151   0.01635   0.00000  Uiso   1.00
C326   C     0.55281   0.78518   0.48261   0.00000  Uiso   1.00
C327   C     0.53273   0.78543   0.42650   0.00000  Uiso   1.00
C328   C     0.49055   0.81957   0.40790   0.00000  Uiso   1.00
C329   C     0.54956   0.82683   0.06885   0.00000  Uiso   1.00
C330   C     0.63315   0.77975   0.05967   0.00000  Uiso   1.00
H331   H     0.34220   0.76625   0.07714   0.00000  Uiso   1.00
H332   H     0.39841   0.66983   0.24388   0.00000  Uiso   1.00
H333   H     0.60186   0.99690   0.25694   0.00000  Uiso   1.00
H334   H     0.49049   0.78781   0.21459   0.00000  Uiso   1.00
H335   H     0.50918   0.88147   0.28029   0.00000  Uiso   1.00
H336   H     0.63084   0.74414   0.48152   0.00000  Uiso   1.00
H337   H     0.52968   0.85287   0.09292   0.00000  Uiso   1.00
H338   H     0.64605   0.87328   0.42884   0.00000  Uiso   1.00
H339   H     0.43641   0.84206   0.07038   0.00000  Uiso   1.00
H340   H     0.34458   0.87596   0.02759   0.00000  Uiso   1.00
N341   N     0.47827   0.81890   0.23543   0.00000  Uiso   1.00
N342   N     0.52173   0.84777   0.26458   0.00000  Uiso   1.00
O343   O     0.63102   0.91296   0.25358   0.00000  Uiso   1.00
O344   O     0.39075   0.90371   0.24423   0.00000  Uiso   1.00
O345   O     0.64823   0.84024   0.33380   0.00000  Uiso   1.00
O346   O     0.40796   0.83099   0.32446   0.00000  Uiso   1.00
O347   O     0.60925   0.76296   0.25577   0.00000  Uiso   1.00
O348   O     0.36898   0.75371   0.24642   0.00000  Uiso   1.00
O349   O     0.59204   0.83567   0.17554   0.00000  Uiso   1.00
O350   O     0.35177   0.82642   0.16620   0.00000  Uiso   1.00
Zn351  Zn    0.60453   0.83951   0.25624   0.00000  Uiso   1.00
Zn352  Zn    0.39547   0.82716   0.24376   0.00000  Uiso   1.00
Br353  Br    0.90393   0.75245   0.37551   0.00000  Uiso   1.00
Br354  Br    0.85612   0.88403   0.38704   0.00000  Uiso   1.00
C355   C     0.68152   0.93154   0.24875   0.00000  Uiso   1.00
C356   C     0.72512   0.84273   0.41365   0.00000  Uiso   1.00
C357   C     0.68930   0.98610   0.24814   0.00000  Uiso   1.00
C358   C     0.70383   0.83817   0.35449   0.00000  Uiso   1.00
C359   C     0.97761   0.68062   0.25260   0.00000  Uiso   1.00
C360   C     0.98524   0.73514   0.25153   0.00000  Uiso   1.00
C361   C     0.96284   0.82701   0.14631   0.00000  Uiso   1.00
C362   C     0.94020   0.76616   0.00558   0.00000  Uiso   1.00
C363   C     0.93884   0.81256   0.08999   0.00000  Uiso   1.00
C364   C     0.68852   0.86043   0.44652   0.00000  Uiso   1.00
C365   C     0.70640   0.86193   0.00265   0.00000  Uiso   1.00
C366   C     0.79823   0.82701   0.49454   0.00000  Uiso   1.00
C367   C     0.75979   0.84361   0.02675   0.00000  Uiso   1.00
C368   C     0.78129   0.82806   0.43798   0.00000  Uiso   1.00
C369   C     0.85467   0.81151   0.01635   0.00000  Uiso   1.00
C370   C     0.88614   0.78518   0.48261   0.00000  Uiso   1.00
C371   C     0.86606   0.78543   0.42650   0.00000  Uiso   1.00
C372   C     0.82388   0.81957   0.40790   0.00000  Uiso   1.00
C373   C     0.88289   0.82683   0.06885   0.00000  Uiso   1.00
C374   C     0.96648   0.77975   0.05967   0.00000  Uiso   1.00
H375   H     0.67553   0.76625   0.07714   0.00000  Uiso   1.00
H376   H     0.73174   0.66983   0.24388   0.00000  Uiso   1.00
H377   H     0.93520   0.99690   0.25694   0.00000  Uiso   1.00
H378   H     0.82382   0.78781   0.21459   0.00000  Uiso   1.00
H379   H     0.84252   0.88147   0.28029   0.00000  Uiso   1.00
H380   H     0.96418   0.74414   0.48152   0.00000  Uiso   1.00
H381   H     0.86301   0.85287   0.09292   0.00000  Uiso   1.00
H382   H     0.97938   0.87328   0.42884   0.00000  Uiso   1.00
H383   H     0.76974   0.84206   0.07038   0.00000  Uiso   1.00
H384   H     0.67792   0.87596   0.02759   0.00000  Uiso   1.00
N385   N     0.81160   0.81890   0.23543   0.00000  Uiso   1.00
N386   N     0.85507   0.84777   0.26458   0.00000  Uiso   1.00
O387   O     0.96435   0.91296   0.25358   0.00000  Uiso   1.00
O388   O     0.72408   0.90371   0.24423   0.00000  Uiso   1.00
O389   O     0.98157   0.84024   0.33380   0.00000  Uiso   1.00
O390   O     0.74130   0.83099   0.32446   0.00000  Uiso   1.00
O391   O     0.94258   0.76296   0.25577   0.00000  Uiso   1.00
O392   O     0.70231   0.75371   0.24642   0.00000  Uiso   1.00
O393   O     0.92537   0.83567   0.17554   0.00000  Uiso   1.00
O394   O     0.68510   0.82642   0.16620   0.00000  Uiso   1.00
Zn395  Zn    0.93786   0.83951   0.25624   0.00000  Uiso   1.00
Zn396  Zn    0.72881   0.82716   0.24376   0.00000  Uiso   1.00
Br397  Br    0.23727   0.08578   0.87551   0.00000  Uiso   1.00
Br398  Br    0.18945   0.21736   0.88704   0.00000  Uiso   1.00
C399   C     0.01486   0.26488   0.74875   0.00000  Uiso   1.00
C400   C     0.05845   0.17606   0.91365   0.00000  Uiso   1.00
C401   C     0.02263   0.31944   0.74814   0.00000  Uiso   1.00
C402   C     0.03716   0.17150   0.85449   0.00000  Uiso   1.00
C403   C     0.31095   0.01395   0.75260   0.00000  Uiso   1.00
C404   C     0.31857   0.06847   0.75153   0.00000  Uiso   1.00
C405   C     0.29617   0.16035   0.64631   0.00000  Uiso   1.00
C406   C     0.27354   0.09949   0.50558   0.00000  Uiso   1.00
C407   C     0.27218   0.14589   0.58999   0.00000  Uiso   1.00
C408   C     0.02185   0.19377   0.94652   0.00000  Uiso   1.00
C409   C     0.03974   0.19526   0.50265   0.00000  Uiso   1.00
C410   C     0.13156   0.16035   0.99454   0.00000  Uiso   1.00
C411   C     0.09312   0.17695   0.52675   0.00000  Uiso   1.00
C412   C     0.11463   0.16139   0.93798   0.00000  Uiso   1.00
C413   C     0.18800   0.14484   0.51635   0.00000  Uiso   1.00
C414   C     0.21948   0.11852   0.98261   0.00000  Uiso   1.00
C415   C     0.19939   0.11877   0.92650   0.00000  Uiso   1.00
C416   C     0.15722   0.15290   0.90790   0.00000  Uiso   1.00
C417   C     0.21622   0.16016   0.56885   0.00000  Uiso   1.00
C418   C     0.29982   0.11308   0.55967   0.00000  Uiso   1.00
H419   H     0.00886   0.09958   0.57714   0.00000  Uiso   1.00
H420   H     0.06508   0.00316   0.74388   0.00000  Uiso   1.00
H421   H     0.26853   0.33024   0.75694   0.00000  Uiso   1.00
H422   H     0.15715   0.12114   0.71459   0.00000  Uiso   1.00
H423   H     0.17585   0.21481   0.78029   0.00000  Uiso   1.00
H424   H     0.29751   0.07748   0.98152   0.00000  Uiso   1.00
H425   H     0.19635   0.18621   0.59292   0.00000  Uiso   1.00
H426   H     0.31271   0.20661   0.92884   0.00000  Uiso   1.00
H427   H     0.10307   0.17539   0.57038   0.00000  Uiso   1.00
H428   H     0.01125   0.20929   0.52759   0.00000  Uiso   1.00
N429   N     0.14493   0.15223   0.73543   0.00000  Uiso   1.00
N430   N     0.18840   0.18110   0.76458   0.00000  Uiso   1.00
O431   O     0.29769   0.24629   0.75358   0.00000  Uiso   1.00
O432   O     0.05742   0.23704   0.74423   0.00000  Uiso   1.00
O433   O     0.31490   0.17358   0.83380   0.00000  Uiso   1.00
O434   O     0.07463   0.16433   0.82446   0.00000  Uiso   1.00
O435   O     0.27592   0.09629   0.75577   0.00000  Uiso   1.00
O436   O     0.03565   0.08704   0.74642   0.00000  Uiso   1.00
O437   O     0.25870   0.16901   0.67554   0.00000  Uiso   1.00
O438   O     0.01843   0.15976   0.66620   0.00000  Uiso   1.00
Zn439  Zn    0.27119   0.17284   0.75624   0.00000  Uiso   1.00
Zn440  Zn    0.06214   0.16049   0.74376   0.00000  Uiso   1.00
Br441  Br    0.57060   0.08578   0.87551   0.00000  Uiso   1.00
Br442  Br    0.52279   0.21736   0.88704   0.00000  Uiso   1.00
C443   C     0.34819   0.26488   0.74875   0.00000  Uiso   1.00
C444   C     0.39178   0.17606   0.91365   0.00000  Uiso   1.00
C445   C     0.35596   0.31944   0.74814   0.00000  Uiso   1.00
C446   C     0.37050   0.17150   0.85449   0.00000  Uiso   1.00
C447   C     0.64428   0.01395   0.75260   0.00000  Uiso   1.00
C448   C     0.65190   0.06847   0.75153   0.00000  Uiso   1.00
C449   C     0.62950   0.16035   0.64631   0.00000  Uiso   1.00
C450   C     0.60687   0.09949   0.50558   0.00000  Uiso   1.00
C451   C     0.60551   0.14589   0.58999   0.00000  Uiso   1.00
C452   C     0.35519   0.19377   0.94652   0.00000  Uiso   1.00
C453   C     0.37307   0.19526   0.50265   0.00000  Uiso   1.00
C454   C     0.46489   0.16035   0.99454   0.00000  Uiso   1.00
C455   C     0.42646   0.17695   0.52675   0.00000  Uiso   1.00
C456   C     0.44796   0.16139   0.93798   0.00000  Uiso   1.00
C457   C     0.52133   0.14484   0.51635   0.00000  Uiso   1.00
C458   C     0.55281   0.11852   0.98261   0.00000  Uiso   1.00
C459   C     0.53273   0.11877   0.92650   0.00000  Uiso   1.00
C460   C     0.49055   0.15290   0.90790   0.00000  Uiso   1.00
C461   C     0.54956   0.16016   0.56885   0.00000  Uiso   1.00
C462   C     0.63315   0.11308   0.55967   0.00000  Uiso   1.00
H463   H     0.34220   0.09958   0.57714   0.00000  Uiso   1.00
H464   H     0.39841   0.00316   0.74388   0.00000  Uiso   1.00
H465   H     0.60186   0.33024   0.75694   0.00000  Uiso   1.00
H466   H     0.49049   0.12114   0.71459   0.00000  Uiso   1.00
H467   H     0.50918   0.21481   0.78029   0.00000  Uiso   1.00
H468   H     0.63084   0.07748   0.98152   0.00000  Uiso   1.00
H469   H     0.52968   0.18621   0.59292   0.00000  Uiso   1.00
H470   H     0.64605   0.20661   0.92884   0.00000  Uiso   1.00
H471   H     0.43641   0.17539   0.57038   0.00000  Uiso   1.00
H472   H     0.34458   0.20929   0.52759   0.00000  Uiso   1.00
N473   N     0.47827   0.15223   0.73543   0.00000  Uiso   1.00
N474   N     0.52173   0.18110   0.76458   0.00000  Uiso   1.00
O475   O     0.63102   0.24629   0.75358   0.00000  Uiso   1.00
O476   O     0.39075   0.23704   0.74423   0.00000  Uiso   1.00
O477   O     0.64823   0.17358   0.83380   0.00000  Uiso   1.00
O478   O     0.40796   0.16433   0.82446   0.00000  Uiso   1.00
O479   O     0.60925   0.09629   0.75577   0.00000  Uiso   1.00
O480   O     0.36898   0.08704   0.74642   0.00000  Uiso   1.00
O481   O     0.59204   0.16901   0.67554   0.00000  Uiso   1.00
O482   O     0.35177   0.15976   0.66620   0.00000  Uiso   1.00
Zn483  Zn    0.60453   0.17284   0.75624   0.00000  Uiso   1.00
Zn484  Zn    0.39547   0.16049   0.74376   0.00000  Uiso   1.00
Br485  Br    0.90393   0.08578   0.87551   0.00000  Uiso   1.00
Br486  Br    0.85612   0.21736   0.88704   0.00000  Uiso   1.00
C487   C     0.68152   0.26488   0.74875   0.00000  Uiso   1.00
C488   C     0.72512   0.17606   0.91365   0.00000  Uiso   1.00
C489   C     0.68930   0.31944   0.74814   0.00000  Uiso   1.00
C490   C     0.70383   0.17150   0.85449   0.00000  Uiso   1.00
C491   C     0.97761   0.01395   0.75260   0.00000  Uiso   1.00
C492   C     0.98524   0.06847   0.75153   0.00000  Uiso   1.00
C493   C     0.96284   0.16035   0.64631   0.00000  Uiso   1.00
C494   C     0.94020   0.09949   0.50558   0.00000  Uiso   1.00
C495   C     0.93884   0.14589   0.58999   0.00000  Uiso   1.00
C496   C     0.68852   0.19377   0.94652   0.00000  Uiso   1.00
C497   C     0.70640   0.19526   0.50265   0.00000  Uiso   1.00
C498   C     0.79823   0.16035   0.99454   0.00000  Uiso   1.00
C499   C     0.75979   0.17695   0.52675   0.00000  Uiso   1.00
C500   C     0.78129   0.16139   0.93798   0.00000  Uiso   1.00
C501   C     0.85467   0.14484   0.51635   0.00000  Uiso   1.00
C502   C     0.88614   0.11852   0.98261   0.00000  Uiso   1.00
C503   C     0.86606   0.11877   0.92650   0.00000  Uiso   1.00
C504   C     0.82388   0.15290   0.90790   0.00000  Uiso   1.00
C505   C     0.88289   0.16016   0.56885   0.00000  Uiso   1.00
C506   C     0.96648   0.11308   0.55967   0.00000  Uiso   1.00
H507   H     0.67553   0.09958   0.57714   0.00000  Uiso   1.00
H508   H     0.73174   0.00316   0.74388   0.00000  Uiso   1.00
H509   H     0.93520   0.33024   0.75694   0.00000  Uiso   1.00
H510   H     0.82382   0.12114   0.71459   0.00000  Uiso   1.00
H511   H     0.84252   0.21481   0.78029   0.00000  Uiso   1.00
H512   H     0.96418   0.07748   0.98152   0.00000  Uiso   1.00
H513   H     0.86301   0.18621   0.59292   0.00000  Uiso   1.00
H514   H     0.97938   0.20661   0.92884   0.00000  Uiso   1.00
H515   H     0.76974   0.17539   0.57038   0.00000  Uiso   1.00
H516   H     0.67792   0.20929   0.52759   0.00000  Uiso   1.00
N517   N     0.81160   0.15223   0.73543   0.00000  Uiso   1.00
N518   N     0.85507   0.18110   0.76458   0.00000  Uiso   1.00
O519   O     0.96435   0.24629   0.75358   0.00000  Uiso   1.00
O520   O     0.72408   0.23704   0.74423   0.00000  Uiso   1.00
O521   O     0.98157   0.17358   0.83380   0.00000  Uiso   1.00
O522   O     0.74130   0.16433   0.82446   0.00000  Uiso   1.00
O523   O     0.94258   0.09629   0.75577   0.00000  Uiso   1.00
O524   O     0.70231   0.08704   0.74642   0.00000  Uiso   1.00
O525   O     0.92537   0.16901   0.67554   0.00000  Uiso   1.00
O526   O     0.68510   0.15976   0.66620   0.00000  Uiso   1.00
Zn527  Zn    0.93786   0.17284   0.75624   0.00000  Uiso   1.00
Zn528  Zn    0.72881   0.16049   0.74376   0.00000  Uiso   1.00
Br529  Br    0.23727   0.41912   0.87551   0.00000  Uiso   1.00
Br530  Br    0.18945   0.55070   0.88704   0.00000  Uiso   1.00
C531   C     0.01486   0.59821   0.74875   0.00000  Uiso   1.00
C532   C     0.05845   0.50940   0.91365   0.00000  Uiso   1.00
C533   C     0.02263   0.65277   0.74814   0.00000  Uiso   1.00
C534   C     0.03716   0.50484   0.85449   0.00000  Uiso   1.00
C535   C     0.31095   0.34728   0.75260   0.00000  Uiso   1.00
C536   C     0.31857   0.40181   0.75153   0.00000  Uiso   1.00
C537   C     0.29617   0.49368   0.64631   0.00000  Uiso   1.00
C538   C     0.27354   0.43282   0.50558   0.00000  Uiso   1.00
C539   C     0.27218   0.47923   0.58999   0.00000  Uiso   1.00
C540   C     0.02185   0.52710   0.94652   0.00000  Uiso   1.00
C541   C     0.03974   0.52860   0.50265   0.00000  Uiso   1.00
C542   C     0.13156   0.49368   0.99454   0.00000  Uiso   1.00
C543   C     0.09312   0.51028   0.52675   0.00000  Uiso   1.00
C544   C     0.11463   0.49473   0.93798   0.00000  Uiso   1.00
C545   C     0.18800   0.47817   0.51635   0.00000  Uiso   1.00
C546   C     0.21948   0.45185   0.98261   0.00000  Uiso   1.00
C547   C     0.19939   0.45210   0.92650   0.00000  Uiso   1.00
C548   C     0.15722   0.48624   0.90790   0.00000  Uiso   1.00
C549   C     0.21622   0.49349   0.56885   0.00000  Uiso   1.00
C550   C     0.29982   0.44642   0.55967   0.00000  Uiso   1.00
H551   H     0.00886   0.43291   0.57714   0.00000  Uiso   1.00
H552   H     0.06508   0.33650   0.74388   0.00000  Uiso   1.00
H553   H     0.26853   0.66357   0.75694   0.00000  Uiso   1.00
H554   H     0.15715   0.45448   0.71459   0.00000  Uiso   1.00
H555   H     0.17585   0.54814   0.78029   0.00000  Uiso   1.00
H556   H     0.29751   0.41081   0.98152   0.00000  Uiso   1.00
H557   H     0.19635   0.51954   0.59292   0.00000  Uiso   1.00
H558   H     0.31271   0.53995   0.92884   0.00000  Uiso   1.00
H559   H     0.10307   0.50872   0.57038   0.00000  Uiso   1.00
H560   H     0.01125   0.54262   0.52759   0.00000  Uiso   1.00
N561   N     0.14493   0.48556   0.73543   0.00000  Uiso   1.00
N562   N     0.18840   0.51444   0.76458   0.00000  Uiso   1.00
O563   O     0.29769   0.57963   0.75358   0.00000  Uiso   1.00
O564   O     0.05742   0.57038   0.74423   0.00000  Uiso   1.00
O565   O     0.31490   0.50691   0.83380   0.00000  Uiso   1.00
O566   O     0.07463   0.49766   0.82446   0.00000  Uiso   1.00
O567   O     0.27592   0.42962   0.75577   0.00000  Uiso   1.00
O568   O     0.03565   0.42037   0.74642   0.00000  Uiso   1.00
O569   O     0.25870   0.50234   0.67554   0.00000  Uiso   1.00
O570   O     0.01843   0.49309   0.66620   0.00000  Uiso   1.00
Zn571  Zn    0.27119   0.50618   0.75624   0.00000  Uiso   1.00
Zn572  Zn    0.06214   0.49382   0.74376   0.00000  Uiso   1.00
Br573  Br    0.57060   0.41912   0.87551   0.00000  Uiso   1.00
Br574  Br    0.52279   0.55070   0.88704   0.00000  Uiso   1.00
C575   C     0.34819   0.59821   0.74875   0.00000  Uiso   1.00
C576   C     0.39178   0.50940   0.91365   0.00000  Uiso   1.00
C577   C     0.35596   0.65277   0.74814   0.00000  Uiso   1.00
C578   C     0.37050   0.50484   0.85449   0.00000  Uiso   1.00
C579   C     0.64428   0.34728   0.75260   0.00000  Uiso   1.00
C580   C     0.65190   0.40181   0.75153   0.00000  Uiso   1.00
C581   C     0.62950   0.49368   0.64631   0.00000  Uiso   1.00
C582   C     0.60687   0.43282   0.50558   0.00000  Uiso   1.00
C583   C     0.60551   0.47923   0.58999   0.00000  Uiso   1.00
C584   C     0.35519   0.52710   0.94652   0.00000  Uiso   1.00
C585   C     0.37307   0.52860   0.50265   0.00000  Uiso   1.00
C586   C     0.46489   0.49368   0.99454   0.00000  Uiso   1.00
C587   C     0.42646   0.51028   0.52675   0.00000  Uiso   1.00
C588   C     0.44796   0.49473   0.93798   0.00000  Uiso   1.00
C589   C     0.52133   0.47817   0.51635   0.00000  Uiso   1.00
C590   C     0.55281   0.45185   0.98261   0.00000  Uiso   1.00
C591   C     0.53273   0.45210   0.92650   0.00000  Uiso   1.00
C592   C     0.49055   0.48624   0.90790   0.00000  Uiso   1.00
C593   C     0.54956   0.49349   0.56885   0.00000  Uiso   1.00
C594   C     0.63315   0.44642   0.55967   0.00000  Uiso   1.00
H595   H     0.34220   0.43291   0.57714   0.00000  Uiso   1.00
H596   H     0.39841   0.33650   0.74388   0.00000  Uiso   1.00
H597   H     0.60186   0.66357   0.75694   0.00000  Uiso   1.00
H598   H     0.49049   0.45448   0.71459   0.00000  Uiso   1.00
H599   H     0.50918   0.54814   0.78029   0.00000  Uiso   1.00
H600   H     0.63084   0.41081   0.98152   0.00000  Uiso   1.00
H601   H     0.52968   0.51954   0.59292   0.00000  Uiso   1.00
H602   H     0.64605   0.53995   0.92884   0.00000  Uiso   1.00
H603   H     0.43641   0.50872   0.57038   0.00000  Uiso   1.00
H604   H     0.34458   0.54262   0.52759   0.00000  Uiso   1.00
N605   N     0.47827   0.48556   0.73543   0.00000  Uiso   1.00
N606   N     0.52173   0.51444   0.76458   0.00000  Uiso   1.00
O607   O     0.63102   0.57963   0.75358   0.00000  Uiso   1.00
O608   O     0.39075   0.57038   0.74423   0.00000  Uiso   1.00
O609   O     0.64823   0.50691   0.83380   0.00000  Uiso   1.00
O610   O     0.40796   0.49766   0.82446   0.00000  Uiso   1.00
O611   O     0.60925   0.42962   0.75577   0.00000  Uiso   1.00
O612   O     0.36898   0.42037   0.74642   0.00000  Uiso   1.00
O613   O     0.59204   0.50234   0.67554   0.00000  Uiso   1.00
O614   O     0.35177   0.49309   0.66620   0.00000  Uiso   1.00
Zn615  Zn    0.60453   0.50618   0.75624   0.00000  Uiso   1.00
Zn616  Zn    0.39547   0.49382   0.74376   0.00000  Uiso   1.00
Br617  Br    0.90393   0.41912   0.87551   0.00000  Uiso   1.00
Br618  Br    0.85612   0.55070   0.88704   0.00000  Uiso   1.00
C619   C     0.68152   0.59821   0.74875   0.00000  Uiso   1.00
C620   C     0.72512   0.50940   0.91365   0.00000  Uiso   1.00
C621   C     0.68930   0.65277   0.74814   0.00000  Uiso   1.00
C622   C     0.70383   0.50484   0.85449   0.00000  Uiso   1.00
C623   C     0.97761   0.34728   0.75260   0.00000  Uiso   1.00
C624   C     0.98524   0.40181   0.75153   0.00000  Uiso   1.00
C625   C     0.96284   0.49368   0.64631   0.00000  Uiso   1.00
C626   C     0.94020   0.43282   0.50558   0.00000  Uiso   1.00
C627   C     0.93884   0.47923   0.58999   0.00000  Uiso   1.00
C628   C     0.68852   0.52710   0.94652   0.00000  Uiso   1.00
C629   C     0.70640   0.52860   0.50265   0.00000  Uiso   1.00
C630   C     0.79823   0.49368   0.99454   0.00000  Uiso   1.00
C631   C     0.75979   0.51028   0.52675   0.00000  Uiso   1.00
C632   C     0.78129   0.49473   0.93798   0.00000  Uiso   1.00
C633   C     0.85467   0.47817   0.51635   0.00000  Uiso   1.00
C634   C     0.88614   0.45185   0.98261   0.00000  Uiso   1.00
C635   C     0.86606   0.45210   0.92650   0.00000  Uiso   1.00
C636   C     0.82388   0.48624   0.90790   0.00000  Uiso   1.00
C637   C     0.88289   0.49349   0.56885   0.00000  Uiso   1.00
C638   C     0.96648   0.44642   0.55967   0.00000  Uiso   1.00
H639   H     0.67553   0.43291   0.57714   0.00000  Uiso   1.00
H640   H     0.73174   0.33650   0.74388   0.00000  Uiso   1.00
H641   H     0.93520   0.66357   0.75694   0.00000  Uiso   1.00
H642   H     0.82382   0.45448   0.71459   0.00000  Uiso   1.00
H643   H     0.84252   0.54814   0.78029   0.00000  Uiso   1.00
H644   H     0.96418   0.41081   0.98152   0.00000  Uiso   1.00
H645   H     0.86301   0.51954   0.59292   0.00000  Uiso   1.00
H646   H     0.97938   0.53995   0.92884   0.00000  Uiso   1.00
H647   H     0.76974   0.50872   0.57038   0.00000  Uiso   1.00
H648   H     0.67792   0.54262   0.52759   0.00000  Uiso   1.00
N649   N     0.81160   0.48556   0.73543   0.00000  Uiso   1.00
N650   N     0.85507   0.51444   0.76458   0.00000  Uiso   1.00
O651   O     0.96435   0.57963   0.75358   0.00000  Uiso   1.00
O652   O     0.72408   0.57038   0.74423   0.00000  Uiso   1.00
O653   O     0.98157   0.50691   0.83380   0.00000  Uiso   1.00
O654   O     0.74130   0.49766   0.82446   0.00000  Uiso   1.00
O655   O     0.94258   0.42962   0.75577   0.00000  Uiso   1.00
O656   O     0.70231   0.42037   0.74642   0.00000  Uiso   1.00
O657   O     0.92537   0.50234   0.67554   0.00000  Uiso   1.00
O658   O     0.68510   0.49309   0.66620   0.00000  Uiso   1.00
Zn659  Zn    0.93786   0.50618   0.75624   0.00000  Uiso   1.00
Zn660  Zn    0.72881   0.49382   0.74376   0.00000  Uiso   1.00
Br661  Br    0.23727   0.75245   0.87551   0.00000  Uiso   1.00
Br662  Br    0.18945   0.88403   0.88704   0.00000  Uiso   1.00
C663   C     0.01486   0.93154   0.74875   0.00000  Uiso   1.00
C664   C     0.05845   0.84273   0.91365   0.00000  Uiso   1.00
C665   C     0.02263   0.98610   0.74814   0.00000  Uiso   1.00
C666   C     0.03716   0.83817   0.85449   0.00000  Uiso   1.00
C667   C     0.31095   0.68062   0.75260   0.00000  Uiso   1.00
C668   C     0.31857   0.73514   0.75153   0.00000  Uiso   1.00
C669   C     0.29617   0.82701   0.64631   0.00000  Uiso   1.00
C670   C     0.27354   0.76616   0.50558   0.00000  Uiso   1.00
C671   C     0.27218   0.81256   0.58999   0.00000  Uiso   1.00
C672   C     0.02185   0.86043   0.94652   0.00000  Uiso   1.00
C673   C     0.03974   0.86193   0.50265   0.00000  Uiso   1.00
C674   C     0.13156   0.82701   0.99454   0.00000  Uiso   1.00
C675   C     0.09312   0.84361   0.52675   0.00000  Uiso   1.00
C676   C     0.11463   0.82806   0.93798   0.00000  Uiso   1.00
C677   C     0.18800   0.81151   0.51635   0.00000  Uiso   1.00
C678   C     0.21948   0.78518   0.98261   0.00000  Uiso   1.00
C679   C     0.19939   0.78543   0.92650   0.00000  Uiso   1.00
C680   C     0.15722   0.81957   0.90790   0.00000  Uiso   1.00
C681   C     0.21622   0.82683   0.56885   0.00000  Uiso   1.00
C682   C     0.29982   0.77975   0.55967   0.00000  Uiso   1.00
H683   H     0.00886   0.76625   0.57714   0.00000  Uiso   1.00
H684   H     0.06508   0.66983   0.74388   0.00000  Uiso   1.00
H685   H     0.26853   0.99690   0.75694   0.00000  Uiso   1.00
H686   H     0.15715   0.78781   0.71459   0.00000  Uiso   1.00
H687   H     0.17585   0.88147   0.78029   0.00000  Uiso   1.00
H688   H     0.29751   0.74414   0.98152   0.00000  Uiso   1.00
H689   H     0.19635   0.85287   0.59292   0.00000  Uiso   1.00
H690   H     0.31271   0.87328   0.92884   0.00000  Uiso   1.00
H691   H     0.10307   0.84206   0.57038   0.00000  Uiso   1.00
H692   H     0.01125   0.87596   0.52759   0.00000  Uiso   1.00
N693   N     0.14493   0.81890   0.73543   0.00000  Uiso   1.00
N694   N     0.18840   0.84777   0.76458   0.00000  Uiso   1.00
O695   O     0.29769   0.91296   0.75358   0.00000  Uiso   1.00
O696   O     0.05742   0.90371   0.74423   0.00000  Uiso   1.00
O697   O     0.31490   0.84024   0.83380   0.00000  Uiso   1.00
O698   O     0.07463   0.83099   0.82446   0.00000  Uiso   1.00
O699   O     0.27592   0.76296   0.75577   0.00000  Uiso   1.00
O700   O     0.03565   0.75371   0.74642   0.00000  Uiso   1.00
O701   O     0.25870   0.83567   0.67554   0.00000  Uiso   1.00
O702   O     0.01843   0.82642   0.66620   0.00000  Uiso   1.00
Zn703  Zn    0.27119   0.83951   0.75624   0.00000  Uiso   1.00
Zn704  Zn    0.06214   0.82716   0.74376   0.00000  Uiso   1.00
Br705  Br    0.57060   0.75245   0.87551   0.00000  Uiso   1.00
Br706  Br    0.52279   0.88403   0.88704   0.00000  Uiso   1.00
C707   C     0.34819   0.93154   0.74875   0.00000  Uiso   1.00
C708   C     0.39178   0.84273   0.91365   0.00000  Uiso   1.00
C709   C     0.35596   0.98610   0.74814   0.00000  Uiso   1.00
C710   C     0.37050   0.83817   0.85449   0.00000  Uiso   1.00
C711   C     0.64428   0.68062   0.75260   0.00000  Uiso   1.00
C712   C     0.65190   0.73514   0.75153   0.00000  Uiso   1.00
C713   C     0.62950   0.82701   0.64631   0.00000  Uiso   1.00
C714   C     0.60687   0.76616   0.50558   0.00000  Uiso   1.00
C715   C     0.60551   0.81256   0.58999   0.00000  Uiso   1.00
C716   C     0.35519   0.86043   0.94652   0.00000  Uiso   1.00
C717   C     0.37307   0.86193   0.50265   0.00000  Uiso   1.00
C718   C     0.46489   0.82701   0.99454   0.00000  Uiso   1.00
C719   C     0.42646   0.84361   0.52675   0.00000  Uiso   1.00
C720   C     0.44796   0.82806   0.93798   0.00000  Uiso   1.00
C721   C     0.52133   0.81151   0.51635   0.00000  Uiso   1.00
C722   C     0.55281   0.78518   0.98261   0.00000  Uiso   1.00
C723   C     0.53273   0.78543   0.92650   0.00000  Uiso   1.00
C724   C     0.49055   0.81957   0.90790   0.00000  Uiso   1.00
C725   C     0.54956   0.82683   0.56885   0.00000  Uiso   1.00
C726   C     0.63315   0.77975   0.55967   0.00000  Uiso   1.00
H727   H     0.34220   0.76625   0.57714   0.00000  Uiso   1.00
H728   H     0.39841   0.66983   0.74388   0.00000  Uiso   1.00
H729   H     0.60186   0.99690   0.75694   0.00000  Uiso   1.00
H730   H     0.49049   0.78781   0.71459   0.00000  Uiso   1.00
H731   H     0.50918   0.88147   0.78029   0.00000  Uiso   1.00
H732   H     0.63084   0.74414   0.98152   0.00000  Uiso   1.00
H733   H     0.52968   0.85287   0.59292   0.00000  Uiso   1.00
H734   H     0.64605   0.87328   0.92884   0.00000  Uiso   1.00
H735   H     0.43641   0.84206   0.57038   0.00000  Uiso   1.00
H736   H     0.34458   0.87596   0.52759   0.00000  Uiso   1.00
N737   N     0.47827   0.81890   0.73543   0.00000  Uiso   1.00
N738   N     0.52173   0.84777   0.76458   0.00000  Uiso   1.00
O739   O     0.63102   0.91296   0.75358   0.00000  Uiso   1.00
O740   O     0.39075   0.90371   0.74423   0.00000  Uiso   1.00
O741   O     0.64823   0.84024   0.83380   0.00000  Uiso   1.00
O742   O     0.40796   0.83099   0.82446   0.00000  Uiso   1.00
O743   O     0.60925   0.76296   0.75577   0.00000  Uiso   1.00
O744   O     0.36898   0.75371   0.74642   0.00000  Uiso   1.00
O745   O     0.59204   0.83567   0.67554   0.00000  Uiso   1.00
O746   O     0.35177   0.82642   0.66620   0.00000  Uiso   1.00
Zn747  Zn    0.60453   0.83951   0.75624   0.00000  Uiso   1.00
Zn748  Zn    0.39547   0.82716   0.74376   0.00000  Uiso   1.00
Br749  Br    0.90393   0.75245   0.87551   0.00000  Uiso   1.00
Br750  Br    0.85612   0.88403   0.88704   0.00000  Uiso   1.00
C751   C     0.68152   0.93154   0.74875   0.00000  Uiso   1.00
C752   C     0.72512   0.84273   0.91365   0.00000  Uiso   1.00
C753   C     0.68930   0.98610   0.74814   0.00000  Uiso   1.00
C754   C     0.70383   0.83817   0.85449   0.00000  Uiso   1.00
C755   C     0.97761   0.68062   0.75260   0.00000  Uiso   1.00
C756   C     0.98524   0.73514   0.75153   0.00000  Uiso   1.00
C757   C     0.96284   0.82701   0.64631   0.00000  Uiso   1.00
C758   C     0.94020   0.76616   0.50558   0.00000  Uiso   1.00
C759   C     0.93884   0.81256   0.58999   0.00000  Uiso   1.00
C760   C     0.68852   0.86043   0.94652   0.00000  Uiso   1.00
C761   C     0.70640   0.86193   0.50265   0.00000  Uiso   1.00
C762   C     0.79823   0.82701   0.99454   0.00000  Uiso   1.00
C763   C     0.75979   0.84361   0.52675   0.00000  Uiso   1.00
C764   C     0.78129   0.82806   0.93798   0.00000  Uiso   1.00
C765   C     0.85467   0.81151   0.51635   0.00000  Uiso   1.00
C766   C     0.88614   0.78518   0.98261   0.00000  Uiso   1.00
C767   C     0.86606   0.78543   0.92650   0.00000  Uiso   1.00
C768   C     0.82388   0.81957   0.90790   0.00000  Uiso   1.00
C769   C     0.88289   0.82683   0.56885   0.00000  Uiso   1.00
C770   C     0.96648   0.77975   0.55967   0.00000  Uiso   1.00
H771   H     0.67553   0.76625   0.57714   0.00000  Uiso   1.00
H772   H     0.73174   0.66983   0.74388   0.00000  Uiso   1.00
H773   H     0.93520   0.99690   0.75694   0.00000  Uiso   1.00
H774   H     0.82382   0.78781   0.71459   0.00000  Uiso   1.00
H775   H     0.84252   0.88147   0.78029   0.00000  Uiso   1.00
H776   H     0.96418   0.74414   0.98152   0.00000  Uiso   1.00
H777   H     0.86301   0.85287   0.59292   0.00000  Uiso   1.00
H778   H     0.97938   0.87328   0.92884   0.00000  Uiso   1.00
H779   H     0.76974   0.84206   0.57038   0.00000  Uiso   1.00
H780   H     0.67792   0.87596   0.52759   0.00000  Uiso   1.00
N781   N     0.81160   0.81890   0.73543   0.00000  Uiso   1.00
N782   N     0.85507   0.84777   0.76458   0.00000  Uiso   1.00
O783   O     0.96435   0.91296   0.75358   0.00000  Uiso   1.00
O784   O     0.72408   0.90371   0.74423   0.00000  Uiso   1.00
O785   O     0.98157   0.84024   0.83380   0.00000  Uiso   1.00
O786   O     0.74130   0.83099   0.82446   0.00000  Uiso   1.00
O787   O     0.94258   0.76296   0.75577   0.00000  Uiso   1.00
O788   O     0.70231   0.75371   0.74642   0.00000  Uiso   1.00
O789   O     0.92537   0.83567   0.67554   0.00000  Uiso   1.00
O790   O     0.68510   0.82642   0.66620   0.00000  Uiso   1.00
Zn791  Zn    0.93786   0.83951   0.75624   0.00000  Uiso   1.00
Zn792  Zn    0.72881   0.82716   0.74376   0.00000  Uiso   1.00
loop_
_geom_bond_atom_site_label_1
_geom_bond_atom_site_label_2
_geom_bond_distance
_geom_bond_site_symmetry_2
_ccdc_geom_bond_type
Br1    C19     1.918   .     S
Br2    C20     1.916   .     S
C3     O36     1.290   .     A
C3     C5      1.403   .     S
C3     O123    1.278   1_455 S
C4     C12     1.402   .     A
C4     C16     1.411   .     A
C4     C6      1.467   .     S
C5     C227    1.338   1_455 S
C5     H156    1.088   .     S
C6     O38     1.298   .     A
C6     O125    1.300   1_455 S
C7     C8      1.403   .     S
C7     C313    1.338   1_545 S
C7     H289    1.088   1_545 S
C8     O39     1.290   .     A
C8     O84     1.278   .     S
C9     O41     1.290   .     A
C9     C11     1.435   .     S
C9     O86     1.292   .     S
C10    C22     1.391   .     A
C10    C414    1.405   1_554 S
C10    H424    1.082   1_554 S
C11    C22     1.399   .     A
C11    C21     1.386   .     A
C12    C409    1.388   .     S
C12    H118    1.080   1_455 S
C13    H32     1.082   .     S
C13    C15     1.391   .     A
C13    C408    1.388   1_554 S
C14    C16     1.401   .     A
C14    C411    1.414   .     S
C14    C413    1.410   .     S
C15    H31     1.080   .     S
C15    C410    1.414   1_554 S
C16    C20     1.404   .     A
C17    C21     1.375   .     A
C17    C410    1.410   1_554 S
C17    C414    1.423   1_554 S
C18    C19     1.395   .     A
C18    C413    1.423   .     S
C18    C406    1.405   .     S
C19    C20     1.387   .     A
C21    H29     1.081   .     S
C22    H67     1.083   .     S
H23    C110    1.083   1_455 S
H24    C269    1.088   1_545 S
H25    C139    1.088   .     S
H26    N33     1.029   .     S
H27    N34     1.026   .     S
H28    C406    1.082   .     S
H30    C56     1.080   .     S
N33    N34     1.285   .     D
N33    Zn44    2.022   .     S
N34    Zn43    2.022   .     S
O35    Zn43    1.955   .     S
O35    C47     1.278   .     S
O36    Zn44    1.979   .     S
O37    Zn43    2.005   .     S
O37    C50     1.300   .     S
O38    Zn44    1.995   .     S
O39    Zn43    1.979   .     S
O40    Zn44    1.955   .     S
O40    C96     1.278   1_455 S
O41    Zn43    1.995   .     S
O42    Zn44    2.005   .     S
O42    C97     1.292   1_455 S
Br45   C63     1.918   .     S
Br46   C64     1.916   .     S
C47    O80     1.290   .     A
C47    C49     1.403   .     S
C48    C56     1.402   .     A
C48    C60     1.411   .     A
C48    C50     1.467   .     S
C49    C139    1.338   .     S
C49    H200    1.088   .     S
C50    O82     1.298   .     A
C51    C52     1.403   .     S
C51    C357    1.338   1_545 S
C51    H333    1.088   1_545 S
C52    O83     1.290   .     A
C52    O128    1.278   .     S
C53    O85     1.290   .     A
C53    C55     1.435   .     S
C53    O130    1.292   .     S
C54    C66     1.391   .     A
C54    C458    1.405   1_554 S
C54    H468    1.082   1_554 S
C55    C66     1.399   .     A
C55    C65     1.386   .     A
C56    C453    1.388   .     S
C57    H76     1.082   .     S
C57    C59     1.391   .     A
C57    C452    1.388   1_554 S
C58    C60     1.401   .     A
C58    C455    1.414   .     S
C58    C457    1.410   .     S
C59    H75     1.080   .     S
C59    C454    1.414   1_554 S
C60    C64     1.404   .     A
C61    C65     1.375   .     A
C61    C454    1.410   1_554 S
C61    C458    1.423   1_554 S
C62    C63     1.395   .     A
C62    C457    1.423   .     S
C62    C450    1.405   .     S
C63    C64     1.387   .     A
C65    H73     1.081   .     S
C66    H111    1.083   .     S
H68    C313    1.088   1_545 S
H69    C183    1.088   .     S
H70    N77     1.029   .     S
H71    N78     1.026   .     S
H72    C450    1.082   .     S
H74    C100    1.080   .     S
N77    N78     1.285   .     D
N77    Zn88    2.022   .     S
N78    Zn87    2.022   .     S
O79    Zn87    1.955   .     S
O79    C91     1.278   .     S
O80    Zn88    1.979   .     S
O81    Zn87    2.005   .     S
O81    C94     1.300   .     S
O82    Zn88    1.995   .     S
O83    Zn87    1.979   .     S
O84    Zn88    1.955   .     S
O85    Zn87    1.995   .     S
O86    Zn88    2.005   .     S
Br89   C107    1.918   .     S
Br90   C108    1.916   .     S
C91    O124    1.290   .     A
C91    C93     1.403   .     S
C92    C100    1.402   .     A
C92    C104    1.411   .     A
C92    C94     1.467   .     S
C93    C183    1.338   .     S
C93    H244    1.088   .     S
C94    O126    1.298   .     A
C95    C96     1.403   .     S
C95    C269    1.338   1_645 S
C95    H377    1.088   1_545 S
C96    O127    1.290   .     A
C96    O40     1.278   1_655 S
C97    O129    1.290   .     A
C97    C99     1.435   .     S
C97    O42     1.292   1_655 S
C98    C110    1.391   .     A
C98    C502    1.405   1_554 S
C98    H512    1.082   1_554 S
C99    C110    1.399   .     A
C99    C109    1.386   .     A
C100   C497    1.388   .     S
C101   H120    1.082   .     S
C101   C103    1.391   .     A
C101   C496    1.388   1_554 S
C102   C104    1.401   .     A
C102   C499    1.414   .     S
C102   C501    1.410   .     S
C103   H119    1.080   .     S
C103   C498    1.414   1_554 S
C104   C108    1.404   .     A
C105   C109    1.375   .     A
C105   C498    1.410   1_554 S
C105   C502    1.423   1_554 S
C106   C107    1.395   .     A
C106   C501    1.423   .     S
C106   C494    1.405   .     S
C107   C108    1.387   .     A
C109   H117    1.081   .     S
C110   H23     1.083   1_655 S
H112   C357    1.088   1_545 S
H113   C227    1.088   .     S
H114   N121    1.029   .     S
H115   N122    1.026   .     S
H116   C494    1.082   .     S
H118   C12     1.080   1_655 S
N121   N122    1.285   .     D
N121   Zn132   2.022   .     S
N122   Zn131   2.022   .     S
O123   Zn131   1.955   .     S
O123   C3      1.278   1_655 S
O124   Zn132   1.979   .     S
O125   Zn131   2.005   .     S
O125   C6      1.300   1_655 S
O126   Zn132   1.995   .     S
O127   Zn131   1.979   .     S
O128   Zn132   1.955   .     S
O129   Zn131   1.995   .     S
O130   Zn132   2.005   .     S
Br133  C151    1.918   .     S
Br134  C152    1.916   .     S
C135   O168    1.290   .     A
C135   C137    1.403   .     S
C135   O255    1.278   1_455 S
C136   C144    1.402   .     A
C136   C148    1.411   .     A
C136   C138    1.467   .     S
C137   C359    1.338   1_455 S
C137   H288    1.088   .     S
C138   O170    1.298   .     A
C138   O257    1.300   1_455 S
C139   C140    1.403   .     S
C140   O171    1.290   .     A
C140   O216    1.278   .     S
C141   O173    1.290   .     A
C141   C143    1.435   .     S
C141   O218    1.292   .     S
C142   C154    1.391   .     A
C142   C546    1.405   1_554 S
C142   H556    1.082   1_554 S
C143   C154    1.399   .     A
C143   C153    1.386   .     A
C144   C541    1.388   .     S
C144   H250    1.080   1_455 S
C145   H164    1.082   .     S
C145   C147    1.391   .     A
C145   C540    1.388   1_554 S
C146   C148    1.401   .     A
C146   C543    1.414   .     S
C146   C545    1.410   .     S
C147   H163    1.080   .     S
C147   C542    1.414   1_554 S
C148   C152    1.404   .     A
C149   C153    1.375   .     A
C149   C542    1.410   1_554 S
C149   C546    1.423   1_554 S
C150   C151    1.395   .     A
C150   C545    1.423   .     S
C150   C538    1.405   .     S
C151   C152    1.387   .     A
C153   H161    1.081   .     S
C154   H199    1.083   .     S
H155   C242    1.083   1_455 S
H157   C271    1.088   .     S
H158   N165    1.029   .     S
H159   N166    1.026   .     S
H160   C538    1.082   .     S
H162   C188    1.080   .     S
N165   N166    1.285   .     D
N165   Zn176   2.022   .     S
N166   Zn175   2.022   .     S
O167   Zn175   1.955   .     S
O167   C179    1.278   .     S
O168   Zn176   1.979   .     S
O169   Zn175   2.005   .     S
O169   C182    1.300   .     S
O170   Zn176   1.995   .     S
O171   Zn175   1.979   .     S
O172   Zn176   1.955   .     S
O172   C228    1.278   1_455 S
O173   Zn175   1.995   .     S
O174   Zn176   2.005   .     S
O174   C229    1.292   1_455 S
Br177  C195    1.918   .     S
Br178  C196    1.916   .     S
C179   O212    1.290   .     A
C179   C181    1.403   .     S
C180   C188    1.402   .     A
C180   C192    1.411   .     A
C180   C182    1.467   .     S
C181   C271    1.338   .     S
C181   H332    1.088   .     S
C182   O214    1.298   .     A
C183   C184    1.403   .     S
C184   O215    1.290   .     A
C184   O260    1.278   .     S
C185   O217    1.290   .     A
C185   C187    1.435   .     S
C185   O262    1.292   .     S
C186   C198    1.391   .     A
C186   C590    1.405   1_554 S
C186   H600    1.082   1_554 S
C187   C198    1.399   .     A
C187   C197    1.386   .     A
C188   C585    1.388   .     S
C189   H208    1.082   .     S
C189   C191    1.391   .     A
C189   C584    1.388   1_554 S
C190   C192    1.401   .     A
C190   C587    1.414   .     S
C190   C589    1.410   .     S
C191   H207    1.080   .     S
C191   C586    1.414   1_554 S
C192   C196    1.404   .     A
C193   C197    1.375   .     A
C193   C586    1.410   1_554 S
C193   C590    1.423   1_554 S
C194   C195    1.395   .     A
C194   C589    1.423   .     S
C194   C582    1.405   .     S
C195   C196    1.387   .     A
C197   H205    1.081   .     S
C198   H243    1.083   .     S
H201   C315    1.088   .     S
H202   N209    1.029   .     S
H203   N210    1.026   .     S
H204   C582    1.082   .     S
H206   C232    1.080   .     S
N209   N210    1.285   .     D
N209   Zn220   2.022   .     S
N210   Zn219   2.022   .     S
O211   Zn219   1.955   .     S
O211   C223    1.278   .     S
O212   Zn220   1.979   .     S
O213   Zn219   2.005   .     S
O213   C226    1.300   .     S
O214   Zn220   1.995   .     S
O215   Zn219   1.979   .     S
O216   Zn220   1.955   .     S
O217   Zn219   1.995   .     S
O218   Zn220   2.005   .     S
Br221  C239    1.918   .     S
Br222  C240    1.916   .     S
C223   O256    1.290   .     A
C223   C225    1.403   .     S
C224   C232    1.402   .     A
C224   C236    1.411   .     A
C224   C226    1.467   .     S
C225   C315    1.338   .     S
C225   H376    1.088   .     S
C226   O258    1.298   .     A
C227   C228    1.403   .     S
C227   C5      1.338   1_655 S
C228   O259    1.290   .     A
C228   O172    1.278   1_655 S
C229   O261    1.290   .     A
C229   C231    1.435   .     S
C229   O174    1.292   1_655 S
C230   C242    1.391   .     A
C230   C634    1.405   1_554 S
C230   H644    1.082   1_554 S
C231   C242    1.399   .     A
C231   C241    1.386   .     A
C232   C629    1.388   .     S
C233   H252    1.082   .     S
C233   C235    1.391   .     A
C233   C628    1.388   1_554 S
C234   C236    1.401   .     A
C234   C631    1.414   .     S
C234   C633    1.410   .     S
C235   H251    1.080   .     S
C235   C630    1.414   1_554 S
C236   C240    1.404   .     A
C237   C241    1.375   .     A
C237   C630    1.410   1_554 S
C237   C634    1.423   1_554 S
C238   C239    1.395   .     A
C238   C633    1.423   .     S
C238   C626    1.405   .     S
C239   C240    1.387   .     A
C241   H249    1.081   .     S
C242   H155    1.083   1_655 S
H245   C359    1.088   .     S
H246   N253    1.029   .     S
H247   N254    1.026   .     S
H248   C626    1.082   .     S
H250   C144    1.080   1_655 S
N253   N254    1.285   .     D
N253   Zn264   2.022   .     S
N254   Zn263   2.022   .     S
O255   Zn263   1.955   .     S
O255   C135    1.278   1_655 S
O256   Zn264   1.979   .     S
O257   Zn263   2.005   .     S
O257   C138    1.300   1_655 S
O258   Zn264   1.995   .     S
O259   Zn263   1.979   .     S
O260   Zn264   1.955   .     S
O261   Zn263   1.995   .     S
O262   Zn264   2.005   .     S
Br265  C283    1.918   .     S
Br266  C284    1.916   .     S
C267   O300    1.290   .     A
C267   C269    1.403   .     S
C267   O387    1.278   1_455 S
C268   C276    1.402   .     A
C268   C280    1.411   .     A
C268   C270    1.467   .     S
C269   C95     1.338   1_465 S
C269   H24     1.088   1_565 S
C270   O302    1.298   .     A
C270   O389    1.300   1_455 S
C271   C272    1.403   .     S
C272   O303    1.290   .     A
C272   O348    1.278   .     S
C273   O305    1.290   .     A
C273   C275    1.435   .     S
C273   O350    1.292   .     S
C274   C286    1.391   .     A
C274   C678    1.405   1_554 S
C274   H688    1.082   1_554 S
C275   C286    1.399   .     A
C275   C285    1.386   .     A
C276   C673    1.388   .     S
C276   H382    1.080   1_455 S
C277   H296    1.082   .     S
C277   C279    1.391   .     A
C277   C672    1.388   1_554 S
C278   C280    1.401   .     A
C278   C675    1.414   .     S
C278   C677    1.410   .     S
C279   H295    1.080   .     S
C279   C674    1.414   1_554 S
C280   C284    1.404   .     A
C281   C285    1.375   .     A
C281   C674    1.410   1_554 S
C281   C678    1.423   1_554 S
C282   C283    1.395   .     A
C282   C677    1.423   .     S
C282   C670    1.405   .     S
C283   C284    1.387   .     A
C285   H293    1.081   .     S
C286   H331    1.083   .     S
H287   C374    1.083   1_455 S
H289   C7      1.088   1_565 S
H290   N297    1.029   .     S
H291   N298    1.026   .     S
H292   C670    1.082   .     S
H294   C320    1.080   .     S
N297   N298    1.285   .     D
N297   Zn308   2.022   .     S
N298   Zn307   2.022   .     S
O299   Zn307   1.955   .     S
O299   C311    1.278   .     S
O300   Zn308   1.979   .     S
O301   Zn307   2.005   .     S
O301   C314    1.300   .     S
O302   Zn308   1.995   .     S
O303   Zn307   1.979   .     S
O304   Zn308   1.955   .     S
O304   C360    1.278   1_455 S
O305   Zn307   1.995   .     S
O306   Zn308   2.005   .     S
O306   C361    1.292   1_455 S
Br309  C327    1.918   .     S
Br310  C328    1.916   .     S
C311   O344    1.290   .     A
C311   C313    1.403   .     S
C312   C320    1.402   .     A
C312   C324    1.411   .     A
C312   C314    1.467   .     S
C313   C7      1.338   1_565 S
C313   H68     1.088   1_565 S
C314   O346    1.298   .     A
C315   C316    1.403   .     S
C316   O347    1.290   .     A
C316   O392    1.278   .     S
C317   O349    1.290   .     A
C317   C319    1.435   .     S
C317   O394    1.292   .     S
C318   C330    1.391   .     A
C318   C722    1.405   1_554 S
C318   H732    1.082   1_554 S
C319   C330    1.399   .     A
C319   C329    1.386   .     A
C320   C717    1.388   .     S
C321   H340    1.082   .     S
C321   C323    1.391   .     A
C321   C716    1.388   1_554 S
C322   C324    1.401   .     A
C322   C719    1.414   .     S
C322   C721    1.410   .     S
C323   H339    1.080   .     S
C323   C718    1.414   1_554 S
C324   C328    1.404   .     A
C325   C329    1.375   .     A
C325   C718    1.410   1_554 S
C325   C722    1.423   1_554 S
C326   C327    1.395   .     A
C326   C721    1.423   .     S
C326   C714    1.405   .     S
C327   C328    1.387   .     A
C329   H337    1.081   .     S
C330   H375    1.083   .     S
H333   C51     1.088   1_565 S
H334   N341    1.029   .     S
H335   N342    1.026   .     S
H336   C714    1.082   .     S
H338   C364    1.080   .     S
N341   N342    1.285   .     D
N341   Zn352   2.022   .     S
N342   Zn351   2.022   .     S
O343   Zn351   1.955   .     S
O343   C355    1.278   .     S
O344   Zn352   1.979   .     S
O345   Zn351   2.005   .     S
O345   C358    1.300   .     S
O346   Zn352   1.995   .     S
O347   Zn351   1.979   .     S
O348   Zn352   1.955   .     S
O349   Zn351   1.995   .     S
O350   Zn352   2.005   .     S
Br353  C371    1.918   .     S
Br354  C372    1.916   .     S
C355   O388    1.290   .     A
C355   C357    1.403   .     S
C356   C364    1.402   .     A
C356   C368    1.411   .     A
C356   C358    1.467   .     S
C357   C51     1.338   1_565 S
C357   H112    1.088   1_565 S
C358   O390    1.298   .     A
C359   C360    1.403   .     S
C359   C137    1.338   1_655 S
C360   O391    1.290   .     A
C360   O304    1.278   1_655 S
C361   O393    1.290   .     A
C361   C363    1.435   .     S
C361   O306    1.292   1_655 S
C362   C374    1.391   .     A
C362   C766    1.405   1_554 S
C362   H776    1.082   1_554 S
C363   C374    1.399   .     A
C363   C373    1.386   .     A
C364   C761    1.388   .     S
C365   H384    1.082   .     S
C365   C367    1.391   .     A
C365   C760    1.388   1_554 S
C366   C368    1.401   .     A
C366   C763    1.414   .     S
C366   C765    1.410   .     S
C367   H383    1.080   .     S
C367   C762    1.414   1_554 S
C368   C372    1.404   .     A
C369   C373    1.375   .     A
C369   C762    1.410   1_554 S
C369   C766    1.423   1_554 S
C370   C371    1.395   .     A
C370   C765    1.423   .     S
C370   C758    1.405   .     S
C371   C372    1.387   .     A
C373   H381    1.081   .     S
C374   H287    1.083   1_655 S
H377   C95     1.088   1_565 S
H378   N385    1.029   .     S
H379   N386    1.026   .     S
H380   C758    1.082   .     S
H382   C276    1.080   1_655 S
N385   N386    1.285   .     D
N385   Zn396   2.022   .     S
N386   Zn395   2.022   .     S
O387   Zn395   1.955   .     S
O387   C267    1.278   1_655 S
O388   Zn396   1.979   .     S
O389   Zn395   2.005   .     S
O389   C270    1.300   1_655 S
O390   Zn396   1.995   .     S
O391   Zn395   1.979   .     S
O392   Zn396   1.955   .     S
O393   Zn395   1.995   .     S
O394   Zn396   2.005   .     S
Br397  C415    1.918   .     S
Br398  C416    1.916   .     S
C399   O432    1.290   .     A
C399   C401    1.403   .     S
C399   O519    1.278   1_455 S
C400   C408    1.402   .     A
C400   C412    1.411   .     A
C400   C402    1.467   .     S
C401   C623    1.338   1_455 S
C401   H552    1.088   .     S
C402   O434    1.298   .     A
C402   O521    1.300   1_455 S
C403   C404    1.403   .     S
C403   C709    1.338   1_545 S
C403   H685    1.088   1_545 S
C404   O435    1.290   .     A
C404   O480    1.278   .     S
C405   O437    1.290   .     A
C405   C407    1.435   .     S
C405   O482    1.292   .     S
C406   C418    1.391   .     A
C407   C418    1.399   .     A
C407   C417    1.386   .     A
C408   C13     1.388   1_556 S
C408   H514    1.080   1_455 S
C409   H428    1.082   .     S
C409   C411    1.391   .     A
C410   C412    1.401   .     A
C410   C15     1.414   1_556 S
C410   C17     1.410   1_556 S
C411   H427    1.080   .     S
C412   C416    1.404   .     A
C413   C417    1.375   .     A
C414   C415    1.395   .     A
C414   C17     1.423   1_556 S
C414   C10     1.405   1_556 S
C415   C416    1.387   .     A
C417   H425    1.081   .     S
C418   H463    1.083   .     S
H419   C506    1.083   1_455 S
H420   C665    1.088   1_545 S
H421   C535    1.088   .     S
H422   N429    1.029   .     S
H423   N430    1.026   .     S
H424   C10     1.082   1_556 S
H426   C452    1.080   .     S
N429   N430    1.285   .     D
N429   Zn440   2.022   .     S
N430   Zn439   2.022   .     S
O431   Zn439   1.955   .     S
O431   C443    1.278   .     S
O432   Zn440   1.979   .     S
O433   Zn439   2.005   .     S
O433   C446    1.300   .     S
O434   Zn440   1.995   .     S
O435   Zn439   1.979   .     S
O436   Zn440   1.955   .     S
O436   C492    1.278   1_455 S
O437   Zn439   1.995   .     S
O438   Zn440   2.005   .     S
O438   C493    1.292   1_455 S
Br441  C459    1.918   .     S
Br442  C460    1.916   .     S
C443   O476    1.290   .     A
C443   C445    1.403   .     S
C444   C452    1.402   .     A
C444   C456    1.411   .     A
C444   C446    1.467   .     S
C445   C535    1.338   .     S
C445   H596    1.088   .     S
C446   O478    1.298   .     A
C447   C448    1.403   .     S
C447   C753    1.338   1_545 S
C447   H729    1.088   1_545 S
C448   O479    1.290   .     A
C448   O524    1.278   .     S
C449   O481    1.290   .     A
C449   C451    1.435   .     S
C449   O526    1.292   .     S
C450   C462    1.391   .     A
C451   C462    1.399   .     A
C451   C461    1.386   .     A
C452   C57     1.388   1_556 S
C453   H472    1.082   .     S
C453   C455    1.391   .     A
C454   C456    1.401   .     A
C454   C59     1.414   1_556 S
C454   C61     1.410   1_556 S
C455   H471    1.080   .     S
C456   C460    1.404   .     A
C457   C461    1.375   .     A
C458   C459    1.395   .     A
C458   C61     1.423   1_556 S
C458   C54     1.405   1_556 S
C459   C460    1.387   .     A
C461   H469    1.081   .     S
C462   H507    1.083   .     S
H464   C709    1.088   1_545 S
H465   C579    1.088   .     S
H466   N473    1.029   .     S
H467   N474    1.026   .     S
H468   C54     1.082   1_556 S
H470   C496    1.080   .     S
N473   N474    1.285   .     D
N473   Zn484   2.022   .     S
N474   Zn483   2.022   .     S
O475   Zn483   1.955   .     S
O475   C487    1.278   .     S
O476   Zn484   1.979   .     S
O477   Zn483   2.005   .     S
O477   C490    1.300   .     S
O478   Zn484   1.995   .     S
O479   Zn483   1.979   .     S
O480   Zn484   1.955   .     S
O481   Zn483   1.995   .     S
O482   Zn484   2.005   .     S
Br485  C503    1.918   .     S
Br486  C504    1.916   .     S
C487   O520    1.290   .     A
C487   C489    1.403   .     S
C488   C496    1.402   .     A
C488   C500    1.411   .     A
C488   C490    1.467   .     S
C489   C579    1.338   .     S
C489   H640    1.088   .     S
C490   O522    1.298   .     A
C491   C492    1.403   .     S
C491   C665    1.338   1_645 S
C491   H773    1.088   1_545 S
C492   O523    1.290   .     A
C492   O436    1.278   1_655 S
C493   O525    1.290   .     A
C493   C495    1.435   .     S
C493   O438    1.292   1_655 S
C494   C506    1.391   .     A
C495   C506    1.399   .     A
C495   C505    1.386   .     A
C496   C101    1.388   1_556 S
C497   H516    1.082   .     S
C497   C499    1.391   .     A
C498   C500    1.401   .     A
C498   C103    1.414   1_556 S
C498   C105    1.410   1_556 S
C499   H515    1.080   .     S
C500   C504    1.404   .     A
C501   C505    1.375   .     A
C502   C503    1.395   .     A
C502   C105    1.423   1_556 S
C502   C98     1.405   1_556 S
C503   C504    1.387   .     A
C505   H513    1.081   .     S
C506   H419    1.083   1_655 S
H508   C753    1.088   1_545 S
H509   C623    1.088   .     S
H510   N517    1.029   .     S
H511   N518    1.026   .     S
H512   C98     1.082   1_556 S
H514   C408    1.080   1_655 S
N517   N518    1.285   .     D
N517   Zn528   2.022   .     S
N518   Zn527   2.022   .     S
O519   Zn527   1.955   .     S
O519   C399    1.278   1_655 S
O520   Zn528   1.979   .     S
O521   Zn527   2.005   .     S
O521   C402    1.300   1_655 S
O522   Zn528   1.995   .     S
O523   Zn527   1.979   .     S
O524   Zn528   1.955   .     S
O525   Zn527   1.995   .     S
O526   Zn528   2.005   .     S
Br529  C547    1.918   .     S
Br530  C548    1.916   .     S
C531   O564    1.290   .     A
C531   C533    1.403   .     S
C531   O651    1.278   1_455 S
C532   C540    1.402   .     A
C532   C544    1.411   .     A
C532   C534    1.467   .     S
C533   C755    1.338   1_455 S
C533   H684    1.088   .     S
C534   O566    1.298   .     A
C534   O653    1.300   1_455 S
C535   C536    1.403   .     S
C536   O567    1.290   .     A
C536   O612    1.278   .     S
C537   O569    1.290   .     A
C537   C539    1.435   .     S
C537   O614    1.292   .     S
C538   C550    1.391   .     A
C539   C550    1.399   .     A
C539   C549    1.386   .     A
C540   C145    1.388   1_556 S
C540   H646    1.080   1_455 S
C541   H560    1.082   .     S
C541   C543    1.391   .     A
C542   C544    1.401   .     A
C542   C147    1.414   1_556 S
C542   C149    1.410   1_556 S
C543   H559    1.080   .     S
C544   C548    1.404   .     A
C545   C549    1.375   .     A
C546   C547    1.395   .     A
C546   C149    1.423   1_556 S
C546   C142    1.405   1_556 S
C547   C548    1.387   .     A
C549   H557    1.081   .     S
C550   H595    1.083   .     S
H551   C638    1.083   1_455 S
H553   C667    1.088   .     S
H554   N561    1.029   .     S
H555   N562    1.026   .     S
H556   C142    1.082   1_556 S
H558   C584    1.080   .     S
N561   N562    1.285   .     D
N561   Zn572   2.022   .     S
N562   Zn571   2.022   .     S
O563   Zn571   1.955   .     S
O563   C575    1.278   .     S
O564   Zn572   1.979   .     S
O565   Zn571   2.005   .     S
O565   C578    1.300   .     S
O566   Zn572   1.995   .     S
O567   Zn571   1.979   .     S
O568   Zn572   1.955   .     S
O568   C624    1.278   1_455 S
O569   Zn571   1.995   .     S
O570   Zn572   2.005   .     S
O570   C625    1.292   1_455 S
Br573  C591    1.918   .     S
Br574  C592    1.916   .     S
C575   O608    1.290   .     A
C575   C577    1.403   .     S
C576   C584    1.402   .     A
C576   C588    1.411   .     A
C576   C578    1.467   .     S
C577   C667    1.338   .     S
C577   H728    1.088   .     S
C578   O610    1.298   .     A
C579   C580    1.403   .     S
C580   O611    1.290   .     A
C580   O656    1.278   .     S
C581   O613    1.290   .     A
C581   C583    1.435   .     S
C581   O658    1.292   .     S
C582   C594    1.391   .     A
C583   C594    1.399   .     A
C583   C593    1.386   .     A
C584   C189    1.388   1_556 S
C585   H604    1.082   .     S
C585   C587    1.391   .     A
C586   C588    1.401   .     A
C586   C191    1.414   1_556 S
C586   C193    1.410   1_556 S
C587   H603    1.080   .     S
C588   C592    1.404   .     A
C589   C593    1.375   .     A
C590   C591    1.395   .     A
C590   C193    1.423   1_556 S
C590   C186    1.405   1_556 S
C591   C592    1.387   .     A
C593   H601    1.081   .     S
C594   H639    1.083   .     S
H597   C711    1.088   .     S
H598   N605    1.029   .     S
H599   N606    1.026   .     S
H600   C186    1.082   1_556 S
H602   C628    1.080   .     S
N605   N606    1.285   .     D
N605   Zn616   2.022   .     S
N606   Zn615   2.022   .     S
O607   Zn615   1.955   .     S
O607   C619    1.278   .     S
O608   Zn616   1.979   .     S
O609   Zn615   2.005   .     S
O609   C622    1.300   .     S
O610   Zn616   1.995   .     S
O611   Zn615   1.979   .     S
O612   Zn616   1.955   .     S
O613   Zn615   1.995   .     S
O614   Zn616   2.005   .     S
Br617  C635    1.918   .     S
Br618  C636    1.916   .     S
C619   O652    1.290   .     A
C619   C621    1.403   .     S
C620   C628    1.402   .     A
C620   C632    1.411   .     A
C620   C622    1.467   .     S
C621   C711    1.338   .     S
C621   H772    1.088   .     S
C622   O654    1.298   .     A
C623   C624    1.403   .     S
C623   C401    1.338   1_655 S
C624   O655    1.290   .     A
C624   O568    1.278   1_655 S
C625   O657    1.290   .     A
C625   C627    1.435   .     S
C625   O570    1.292   1_655 S
C626   C638    1.391   .     A
C627   C638    1.399   .     A
C627   C637    1.386   .     A
C628   C233    1.388   1_556 S
C629   H648    1.082   .     S
C629   C631    1.391   .     A
C630   C632    1.401   .     A
C630   C235    1.414   1_556 S
C630   C237    1.410   1_556 S
C631   H647    1.080   .     S
C632   C636    1.404   .     A
C633   C637    1.375   .     A
C634   C635    1.395   .     A
C634   C237    1.423   1_556 S
C634   C230    1.405   1_556 S
C635   C636    1.387   .     A
C637   H645    1.081   .     S
C638   H551    1.083   1_655 S
H641   C755    1.088   .     S
H642   N649    1.029   .     S
H643   N650    1.026   .     S
H644   C230    1.082   1_556 S
H646   C540    1.080   1_655 S
N649   N650    1.285   .     D
N649   Zn660   2.022   .     S
N650   Zn659   2.022   .     S
O651   Zn659   1.955   .     S
O651   C531    1.278   1_655 S
O652   Zn660   1.979   .     S
O653   Zn659   2.005   .     S
O653   C534    1.300   1_655 S
O654   Zn660   1.995   .     S
O655   Zn659   1.979   .     S
O656   Zn660   1.955   .     S
O657   Zn659   1.995   .     S
O658   Zn660   2.005   .     S
Br661  C679    1.918   .     S
Br662  C680    1.916   .     S
C663   O696    1.290   .     A
C663   C665    1.403   .     S
C663   O783    1.278   1_455 S
C664   C672    1.402   .     A
C664   C676    1.411   .     A
C664   C666    1.467   .     S
C665   C491    1.338   1_465 S
C665   H420    1.088   1_565 S
C666   O698    1.298   .     A
C666   O785    1.300   1_455 S
C667   C668    1.403   .     S
C668   O699    1.290   .     A
C668   O744    1.278   .     S
C669   O701    1.290   .     A
C669   C671    1.435   .     S
C669   O746    1.292   .     S
C670   C682    1.391   .     A
C671   C682    1.399   .     A
C671   C681    1.386   .     A
C672   C277    1.388   1_556 S
C672   H778    1.080   1_455 S
C673   H692    1.082   .     S
C673   C675    1.391   .     A
C674   C676    1.401   .     A
C674   C279    1.414   1_556 S
C674   C281    1.410   1_556 S
C675   H691    1.080   .     S
C676   C680    1.404   .     A
C677   C681    1.375   .     A
C678   C679    1.395   .     A
C678   C281    1.423   1_556 S
C678   C274    1.405   1_556 S
C679   C680    1.387   .     A
C681   H689    1.081   .     S
C682   H727    1.083   .     S
H683   C770    1.083   1_455 S
H685   C403    1.088   1_565 S
H686   N693    1.029   .     S
H687   N694    1.026   .     S
H688   C274    1.082   1_556 S
H690   C716    1.080   .     S
N693   N694    1.285   .     D
N693   Zn704   2.022   .     S
N694   Zn703   2.022   .     S
O695   Zn703   1.955   .     S
O695   C707    1.278   .     S
O696   Zn704   1.979   .     S
O697   Zn703   2.005   .     S
O697   C710    1.300   .     S
O698   Zn704   1.995   .     S
O699   Zn703   1.979   .     S
O700   Zn704   1.955   .     S
O700   C756    1.278   1_455 S
O701   Zn703   1.995   .     S
O702   Zn704   2.005   .     S
O702   C757    1.292   1_455 S
Br705  C723    1.918   .     S
Br706  C724    1.916   .     S
C707   O740    1.290   .     A
C707   C709    1.403   .     S
C708   C716    1.402   .     A
C708   C720    1.411   .     A
C708   C710    1.467   .     S
C709   C403    1.338   1_565 S
C709   H464    1.088   1_565 S
C710   O742    1.298   .     A
C711   C712    1.403   .     S
C712   O743    1.290   .     A
C712   O788    1.278   .     S
C713   O745    1.290   .     A
C713   C715    1.435   .     S
C713   O790    1.292   .     S
C714   C726    1.391   .     A
C715   C726    1.399   .     A
C715   C725    1.386   .     A
C716   C321    1.388   1_556 S
C717   H736    1.082   .     S
C717   C719    1.391   .     A
C718   C720    1.401   .     A
C718   C323    1.414   1_556 S
C718   C325    1.410   1_556 S
C719   H735    1.080   .     S
C720   C724    1.404   .     A
C721   C725    1.375   .     A
C722   C723    1.395   .     A
C722   C325    1.423   1_556 S
C722   C318    1.405   1_556 S
C723   C724    1.387   .     A
C725   H733    1.081   .     S
C726   H771    1.083   .     S
H729   C447    1.088   1_565 S
H730   N737    1.029   .     S
H731   N738    1.026   .     S
H732   C318    1.082   1_556 S
H734   C760    1.080   .     S
N737   N738    1.285   .     D
N737   Zn748   2.022   .     S
N738   Zn747   2.022   .     S
O739   Zn747   1.955   .     S
O739   C751    1.278   .     S
O740   Zn748   1.979   .     S
O741   Zn747   2.005   .     S
O741   C754    1.300   .     S
O742   Zn748   1.995   .     S
O743   Zn747   1.979   .     S
O744   Zn748   1.955   .     S
O745   Zn747   1.995   .     S
O746   Zn748   2.005   .     S
Br749  C767    1.918   .     S
Br750  C768    1.916   .     S
C751   O784    1.290   .     A
C751   C753    1.403   .     S
C752   C760    1.402   .     A
C752   C764    1.411   .     A
C752   C754    1.467   .     S
C753   C447    1.338   1_565 S
C753   H508    1.088   1_565 S
C754   O786    1.298   .     A
C755   C756    1.403   .     S
C755   C533    1.338   1_655 S
C756   O787    1.290   .     A
C756   O700    1.278   1_655 S
C757   O789    1.290   .     A
C757   C759    1.435   .     S
C757   O702    1.292   1_655 S
C758   C770    1.391   .     A
C759   C770    1.399   .     A
C759   C769    1.386   .     A
C760   C365    1.388   1_556 S
C761   H780    1.082   .     S
C761   C763    1.391   .     A
C762   C764    1.401   .     A
C762   C367    1.414   1_556 S
C762   C369    1.410   1_556 S
C763   H779    1.080   .     S
C764   C768    1.404   .     A
C765   C769    1.375   .     A
C766   C767    1.395   .     A
C766   C369    1.423   1_556 S
C766   C362    1.405   1_556 S
C767   C768    1.387   .     A
C769   H777    1.081   .     S
C770   H683    1.083   1_655 S
H773   C491    1.088   1_565 S
H774   N781    1.029   .     S
H775   N782    1.026   .     S
H776   C362    1.082   1_556 S
H778   C672    1.080   1_655 S
N781   N782    1.285   .     D
N781   Zn792   2.022   .     S
N782   Zn791   2.022   .     S
O783   Zn791   1.955   .     S
O783   C663    1.278   1_655 S
O784   Zn792   1.979   .     S
O785   Zn791   2.005   .     S
O785   C666    1.300   1_655 S
O786   Zn792   1.995   .     S
O787   Zn791   1.979   .     S
O788   Zn792   1.955   .     S
O789   Zn791   1.995   .     S
O790   Zn792   2.005   .     S
