data_str_m2_o1_o16_pcu_sym.188
_audit_creation_date              2020-01-03
_audit_creation_method            'Materials Studio'
_symmetry_space_group_name_H-M    'P1'
_symmetry_Int_Tables_number       1
_symmetry_cell_setting            triclinic
loop_
_symmetry_equiv_pos_as_xyz
  x,y,z
_cell_length_a                    28.6290
_cell_length_b                    32.4950
_cell_length_c                    26.9299
_cell_angle_alpha                 90.4271
_cell_angle_beta                  72.8967
_cell_angle_gamma                 89.8236
loop_
_atom_site_label
_atom_site_type_symbol
_atom_site_fract_x
_atom_site_fract_y
_atom_site_fract_z
_atom_site_U_iso_or_equiv
_atom_site_adp_type
_atom_site_occupancy
C1     C     0.16661   0.24595   0.25009   0.00000  Uiso   1.00
C2     C     0.14882   0.14620   0.48739   0.00000  Uiso   1.00
C3     C     0.16404   0.14635   0.43227   0.00000  Uiso   1.00
C4     C     0.18438   0.15260   0.01415   0.00000  Uiso   1.00
C5     C     0.23438   0.15605   0.48549   0.00000  Uiso   1.00
C6     C     0.24915   0.14827   0.43242   0.00000  Uiso   1.00
C7     C     0.21461   0.14154   0.40664   0.00000  Uiso   1.00
C8     C     0.17176   0.15733   0.06826   0.00000  Uiso   1.00
C9     C     0.25625   0.16988   0.06412   0.00000  Uiso   1.00
C10    C     0.12807   0.15062   0.40525   0.00000  Uiso   1.00
C11    C     0.20847   0.31194   0.25212   0.00000  Uiso   1.00
C12    C     0.14122   0.16170   0.34945   0.00000  Uiso   1.00
C13    C     0.20851   0.02118   0.25210   0.00000  Uiso   1.00
C14    C     0.16670   0.04276   0.25005   0.00000  Uiso   1.00
C15    C     0.12480   0.02140   0.24812   0.00000  Uiso   1.00
C16    C     0.12473   0.31216   0.24819   0.00000  Uiso   1.00
C17    C     0.16658   0.29059   0.25014   0.00000  Uiso   1.00
C18    C     0.29920   0.19152   0.28339   0.00000  Uiso   1.00
C19    C     0.01541   0.19144   0.28344   0.00000  Uiso   1.00
C20    C     0.03445   0.14187   0.21674   0.00000  Uiso   1.00
C21    C     0.31849   0.14166   0.21658   0.00000  Uiso   1.00
C22    C     0.16670   0.08738   0.24998   0.00000  Uiso   1.00
C23    C     0.19266   0.16672   0.15009   0.00000  Uiso   1.00
C24    C     0.26940   0.16612   0.01035   0.00000  Uiso   1.00
C25    C     0.20744   0.16480   0.09333   0.00000  Uiso   1.00
C26    C     0.07875   0.14454   0.43259   0.00000  Uiso   1.00
C27    C     0.06499   0.13665   0.48561   0.00000  Uiso   1.00
C28    C     0.09892   0.13920   0.01323   0.00000  Uiso   1.00
Cu29   Cu    0.11978   0.16666   0.25000   0.00000  Uiso   1.00
Cu30   Cu    0.21355   0.16667   0.25000   0.00000  Uiso   1.00
H31    H     0.28412   0.17680   0.08273   0.00000  Uiso   1.00
H32    H     0.24121   0.03710   0.25378   0.00000  Uiso   1.00
H33    H     0.09210   0.03750   0.24648   0.00000  Uiso   1.00
H34    H     0.09200   0.29624   0.24663   0.00000  Uiso   1.00
H35    H     0.27311   0.21144   0.31017   0.00000  Uiso   1.00
H36    H     0.02654   0.21132   0.31026   0.00000  Uiso   1.00
H37    H     0.06087   0.12201   0.19023   0.00000  Uiso   1.00
H38    H     0.28761   0.14699   0.41075   0.00000  Uiso   1.00
H39    H     0.30684   0.17141   0.48785   0.00000  Uiso   1.00
H40    H     0.13427   0.15563   0.09176   0.00000  Uiso   1.00
H41    H     0.05083   0.14514   0.41283   0.00000  Uiso   1.00
H42    H     0.08514   0.13417   0.05447   0.00000  Uiso   1.00
H43    H     0.02756   0.12929   0.00608   0.00000  Uiso   1.00
H44    H     0.22888   0.13106   0.36702   0.00000  Uiso   1.00
H45    H     0.24117   0.29585   0.25376   0.00000  Uiso   1.00
N46    N     0.04931   0.16666   0.24999   0.00000  Uiso   1.00
N47    N     0.28402   0.16669   0.25000   0.00000  Uiso   1.00
O48    O     0.12708   0.22678   0.25001   0.00000  Uiso   1.00
O49    O     0.20627   0.22679   0.25001   0.00000  Uiso   1.00
O50    O     0.10775   0.16665   0.32549   0.00000  Uiso   1.00
O51    O     0.18694   0.16666   0.32549   0.00000  Uiso   1.00
O52    O     0.12706   0.10654   0.25000   0.00000  Uiso   1.00
O53    O     0.20625   0.10655   0.25000   0.00000  Uiso   1.00
O54    O     0.14640   0.16667   0.17451   0.00000  Uiso   1.00
O55    O     0.22559   0.16668   0.17451   0.00000  Uiso   1.00
Br56   Br    0.30312   0.10480   0.16791   0.00000  Uiso   1.00
C57    C     0.49994   0.24595   0.25009   0.00000  Uiso   1.00
C58    C     0.48216   0.14620   0.48739   0.00000  Uiso   1.00
C59    C     0.49737   0.14635   0.43227   0.00000  Uiso   1.00
C60    C     0.51771   0.15260   0.01415   0.00000  Uiso   1.00
C61    C     0.56772   0.15605   0.48549   0.00000  Uiso   1.00
C62    C     0.58248   0.14827   0.43242   0.00000  Uiso   1.00
C63    C     0.54794   0.14154   0.40664   0.00000  Uiso   1.00
C64    C     0.50510   0.15733   0.06826   0.00000  Uiso   1.00
C65    C     0.58958   0.16988   0.06412   0.00000  Uiso   1.00
C66    C     0.46141   0.15062   0.40525   0.00000  Uiso   1.00
C67    C     0.54180   0.31194   0.25212   0.00000  Uiso   1.00
C68    C     0.47455   0.16170   0.34945   0.00000  Uiso   1.00
C69    C     0.54185   0.02118   0.25210   0.00000  Uiso   1.00
C70    C     0.50003   0.04276   0.25005   0.00000  Uiso   1.00
C71    C     0.45813   0.02140   0.24812   0.00000  Uiso   1.00
C72    C     0.45807   0.31216   0.24819   0.00000  Uiso   1.00
C73    C     0.49991   0.29059   0.25014   0.00000  Uiso   1.00
C74    C     0.63253   0.19152   0.28339   0.00000  Uiso   1.00
C75    C     0.34874   0.19144   0.28344   0.00000  Uiso   1.00
C76    C     0.36778   0.14187   0.21674   0.00000  Uiso   1.00
C77    C     0.65182   0.14166   0.21658   0.00000  Uiso   1.00
C78    C     0.50004   0.08738   0.24998   0.00000  Uiso   1.00
C79    C     0.52600   0.16672   0.15009   0.00000  Uiso   1.00
C80    C     0.60274   0.16612   0.01035   0.00000  Uiso   1.00
C81    C     0.54077   0.16480   0.09333   0.00000  Uiso   1.00
C82    C     0.41209   0.14454   0.43259   0.00000  Uiso   1.00
C83    C     0.39832   0.13665   0.48561   0.00000  Uiso   1.00
C84    C     0.43226   0.13920   0.01323   0.00000  Uiso   1.00
Cu85   Cu    0.45311   0.16666   0.25000   0.00000  Uiso   1.00
Cu86   Cu    0.54689   0.16667   0.25000   0.00000  Uiso   1.00
H87    H     0.61745   0.17680   0.08273   0.00000  Uiso   1.00
H88    H     0.57454   0.03710   0.25378   0.00000  Uiso   1.00
H89    H     0.42543   0.03750   0.24648   0.00000  Uiso   1.00
H90    H     0.42533   0.29624   0.24663   0.00000  Uiso   1.00
H91    H     0.60645   0.21144   0.31017   0.00000  Uiso   1.00
H92    H     0.35988   0.21132   0.31026   0.00000  Uiso   1.00
H93    H     0.39420   0.12201   0.19023   0.00000  Uiso   1.00
H94    H     0.62095   0.14699   0.41075   0.00000  Uiso   1.00
H95    H     0.64017   0.17141   0.48785   0.00000  Uiso   1.00
H96    H     0.46760   0.15563   0.09176   0.00000  Uiso   1.00
H97    H     0.38417   0.14514   0.41283   0.00000  Uiso   1.00
H98    H     0.41848   0.13417   0.05447   0.00000  Uiso   1.00
H99    H     0.36090   0.12929   0.00608   0.00000  Uiso   1.00
H100   H     0.56222   0.13106   0.36702   0.00000  Uiso   1.00
H101   H     0.57450   0.29585   0.25376   0.00000  Uiso   1.00
N102   N     0.38265   0.16666   0.24999   0.00000  Uiso   1.00
N103   N     0.61735   0.16669   0.25000   0.00000  Uiso   1.00
O104   O     0.46042   0.22678   0.25001   0.00000  Uiso   1.00
O105   O     0.53961   0.22679   0.25001   0.00000  Uiso   1.00
O106   O     0.44108   0.16665   0.32549   0.00000  Uiso   1.00
O107   O     0.52027   0.16666   0.32549   0.00000  Uiso   1.00
O108   O     0.46039   0.10654   0.25000   0.00000  Uiso   1.00
O109   O     0.53958   0.10655   0.25000   0.00000  Uiso   1.00
O110   O     0.47973   0.16667   0.17451   0.00000  Uiso   1.00
O111   O     0.55892   0.16668   0.17451   0.00000  Uiso   1.00
Br112  Br    0.63645   0.10480   0.16791   0.00000  Uiso   1.00
C113   C     0.83328   0.24595   0.25009   0.00000  Uiso   1.00
C114   C     0.81549   0.14620   0.48739   0.00000  Uiso   1.00
C115   C     0.83070   0.14635   0.43227   0.00000  Uiso   1.00
C116   C     0.85104   0.15260   0.01415   0.00000  Uiso   1.00
C117   C     0.90105   0.15605   0.48549   0.00000  Uiso   1.00
C118   C     0.91582   0.14827   0.43242   0.00000  Uiso   1.00
C119   C     0.88127   0.14154   0.40664   0.00000  Uiso   1.00
C120   C     0.83843   0.15733   0.06826   0.00000  Uiso   1.00
C121   C     0.92292   0.16988   0.06412   0.00000  Uiso   1.00
C122   C     0.79474   0.15062   0.40525   0.00000  Uiso   1.00
C123   C     0.87513   0.31194   0.25212   0.00000  Uiso   1.00
C124   C     0.80788   0.16170   0.34945   0.00000  Uiso   1.00
C125   C     0.87518   0.02118   0.25210   0.00000  Uiso   1.00
C126   C     0.83337   0.04276   0.25005   0.00000  Uiso   1.00
C127   C     0.79147   0.02140   0.24812   0.00000  Uiso   1.00
C128   C     0.79140   0.31216   0.24819   0.00000  Uiso   1.00
C129   C     0.83325   0.29059   0.25014   0.00000  Uiso   1.00
C130   C     0.96586   0.19152   0.28339   0.00000  Uiso   1.00
C131   C     0.68208   0.19144   0.28344   0.00000  Uiso   1.00
C132   C     0.70112   0.14187   0.21674   0.00000  Uiso   1.00
C133   C     0.98515   0.14166   0.21658   0.00000  Uiso   1.00
C134   C     0.83337   0.08738   0.24998   0.00000  Uiso   1.00
C135   C     0.85933   0.16672   0.15009   0.00000  Uiso   1.00
C136   C     0.93607   0.16612   0.01035   0.00000  Uiso   1.00
C137   C     0.87410   0.16480   0.09333   0.00000  Uiso   1.00
C138   C     0.74542   0.14454   0.43259   0.00000  Uiso   1.00
C139   C     0.73165   0.13665   0.48561   0.00000  Uiso   1.00
C140   C     0.76559   0.13920   0.01323   0.00000  Uiso   1.00
Cu141  Cu    0.78645   0.16666   0.25000   0.00000  Uiso   1.00
Cu142  Cu    0.88022   0.16667   0.25000   0.00000  Uiso   1.00
H143   H     0.95079   0.17680   0.08273   0.00000  Uiso   1.00
H144   H     0.90788   0.03710   0.25378   0.00000  Uiso   1.00
H145   H     0.75877   0.03750   0.24648   0.00000  Uiso   1.00
H146   H     0.75867   0.29624   0.24663   0.00000  Uiso   1.00
H147   H     0.93978   0.21144   0.31017   0.00000  Uiso   1.00
H148   H     0.69321   0.21132   0.31026   0.00000  Uiso   1.00
H149   H     0.72754   0.12201   0.19023   0.00000  Uiso   1.00
H150   H     0.95428   0.14699   0.41075   0.00000  Uiso   1.00
H151   H     0.97350   0.17141   0.48785   0.00000  Uiso   1.00
H152   H     0.80093   0.15563   0.09176   0.00000  Uiso   1.00
H153   H     0.71750   0.14514   0.41283   0.00000  Uiso   1.00
H154   H     0.75181   0.13417   0.05447   0.00000  Uiso   1.00
H155   H     0.69423   0.12929   0.00608   0.00000  Uiso   1.00
H156   H     0.89555   0.13106   0.36702   0.00000  Uiso   1.00
H157   H     0.90783   0.29585   0.25376   0.00000  Uiso   1.00
N158   N     0.71598   0.16666   0.24999   0.00000  Uiso   1.00
N159   N     0.95069   0.16669   0.25000   0.00000  Uiso   1.00
O160   O     0.79375   0.22678   0.25001   0.00000  Uiso   1.00
O161   O     0.87294   0.22679   0.25001   0.00000  Uiso   1.00
O162   O     0.77441   0.16665   0.32549   0.00000  Uiso   1.00
O163   O     0.85360   0.16666   0.32549   0.00000  Uiso   1.00
O164   O     0.79373   0.10654   0.25000   0.00000  Uiso   1.00
O165   O     0.87292   0.10655   0.25000   0.00000  Uiso   1.00
O166   O     0.81306   0.16667   0.17451   0.00000  Uiso   1.00
O167   O     0.89225   0.16668   0.17451   0.00000  Uiso   1.00
Br168  Br    0.96978   0.10480   0.16791   0.00000  Uiso   1.00
C169   C     0.16661   0.57929   0.25009   0.00000  Uiso   1.00
C170   C     0.14882   0.47953   0.48739   0.00000  Uiso   1.00
C171   C     0.16404   0.47968   0.43227   0.00000  Uiso   1.00
C172   C     0.18438   0.48593   0.01415   0.00000  Uiso   1.00
C173   C     0.23438   0.48938   0.48549   0.00000  Uiso   1.00
C174   C     0.24915   0.48161   0.43242   0.00000  Uiso   1.00
C175   C     0.21461   0.47488   0.40664   0.00000  Uiso   1.00
C176   C     0.17176   0.49067   0.06826   0.00000  Uiso   1.00
C177   C     0.25625   0.50321   0.06412   0.00000  Uiso   1.00
C178   C     0.12807   0.48396   0.40525   0.00000  Uiso   1.00
C179   C     0.20847   0.64528   0.25212   0.00000  Uiso   1.00
C180   C     0.14122   0.49503   0.34945   0.00000  Uiso   1.00
C181   C     0.20851   0.35452   0.25210   0.00000  Uiso   1.00
C182   C     0.16670   0.37609   0.25005   0.00000  Uiso   1.00
C183   C     0.12480   0.35474   0.24812   0.00000  Uiso   1.00
C184   C     0.12473   0.64549   0.24819   0.00000  Uiso   1.00
C185   C     0.16658   0.62392   0.25014   0.00000  Uiso   1.00
C186   C     0.29920   0.52485   0.28339   0.00000  Uiso   1.00
C187   C     0.01541   0.52478   0.28344   0.00000  Uiso   1.00
C188   C     0.03445   0.47520   0.21674   0.00000  Uiso   1.00
C189   C     0.31849   0.47499   0.21658   0.00000  Uiso   1.00
C190   C     0.16670   0.42071   0.24998   0.00000  Uiso   1.00
C191   C     0.19266   0.50005   0.15009   0.00000  Uiso   1.00
C192   C     0.26940   0.49945   0.01035   0.00000  Uiso   1.00
C193   C     0.20744   0.49813   0.09333   0.00000  Uiso   1.00
C194   C     0.07875   0.47788   0.43259   0.00000  Uiso   1.00
C195   C     0.06499   0.46999   0.48561   0.00000  Uiso   1.00
C196   C     0.09892   0.47253   0.01323   0.00000  Uiso   1.00
Cu197  Cu    0.11978   0.49999   0.25000   0.00000  Uiso   1.00
Cu198  Cu    0.21355   0.50001   0.25000   0.00000  Uiso   1.00
H199   H     0.28412   0.51013   0.08273   0.00000  Uiso   1.00
H200   H     0.24121   0.37043   0.25378   0.00000  Uiso   1.00
H201   H     0.09210   0.37083   0.24648   0.00000  Uiso   1.00
H202   H     0.09200   0.62957   0.24663   0.00000  Uiso   1.00
H203   H     0.27311   0.54477   0.31017   0.00000  Uiso   1.00
H204   H     0.02654   0.54466   0.31026   0.00000  Uiso   1.00
H205   H     0.06087   0.45534   0.19023   0.00000  Uiso   1.00
H206   H     0.28761   0.48032   0.41075   0.00000  Uiso   1.00
H207   H     0.30684   0.50475   0.48785   0.00000  Uiso   1.00
H208   H     0.13427   0.48897   0.09176   0.00000  Uiso   1.00
H209   H     0.05083   0.47847   0.41283   0.00000  Uiso   1.00
H210   H     0.08514   0.46751   0.05447   0.00000  Uiso   1.00
H211   H     0.02756   0.46262   0.00608   0.00000  Uiso   1.00
H212   H     0.22888   0.46439   0.36702   0.00000  Uiso   1.00
H213   H     0.24117   0.62919   0.25376   0.00000  Uiso   1.00
N214   N     0.04931   0.49999   0.24999   0.00000  Uiso   1.00
N215   N     0.28402   0.50002   0.25000   0.00000  Uiso   1.00
O216   O     0.12708   0.56011   0.25001   0.00000  Uiso   1.00
O217   O     0.20627   0.56012   0.25001   0.00000  Uiso   1.00
O218   O     0.10775   0.49998   0.32549   0.00000  Uiso   1.00
O219   O     0.18694   0.49999   0.32549   0.00000  Uiso   1.00
O220   O     0.12706   0.43988   0.25000   0.00000  Uiso   1.00
O221   O     0.20625   0.43989   0.25000   0.00000  Uiso   1.00
O222   O     0.14640   0.50001   0.17451   0.00000  Uiso   1.00
O223   O     0.22559   0.50002   0.17451   0.00000  Uiso   1.00
Br224  Br    0.30312   0.43813   0.16791   0.00000  Uiso   1.00
C225   C     0.49994   0.57929   0.25009   0.00000  Uiso   1.00
C226   C     0.48216   0.47953   0.48739   0.00000  Uiso   1.00
C227   C     0.49737   0.47968   0.43227   0.00000  Uiso   1.00
C228   C     0.51771   0.48593   0.01415   0.00000  Uiso   1.00
C229   C     0.56772   0.48938   0.48549   0.00000  Uiso   1.00
C230   C     0.58248   0.48161   0.43242   0.00000  Uiso   1.00
C231   C     0.54794   0.47488   0.40664   0.00000  Uiso   1.00
C232   C     0.50510   0.49067   0.06826   0.00000  Uiso   1.00
C233   C     0.58958   0.50321   0.06412   0.00000  Uiso   1.00
C234   C     0.46141   0.48396   0.40525   0.00000  Uiso   1.00
C235   C     0.54180   0.64528   0.25212   0.00000  Uiso   1.00
C236   C     0.47455   0.49503   0.34945   0.00000  Uiso   1.00
C237   C     0.54185   0.35452   0.25210   0.00000  Uiso   1.00
C238   C     0.50003   0.37609   0.25005   0.00000  Uiso   1.00
C239   C     0.45813   0.35474   0.24812   0.00000  Uiso   1.00
C240   C     0.45807   0.64549   0.24819   0.00000  Uiso   1.00
C241   C     0.49991   0.62392   0.25014   0.00000  Uiso   1.00
C242   C     0.63253   0.52485   0.28339   0.00000  Uiso   1.00
C243   C     0.34874   0.52478   0.28344   0.00000  Uiso   1.00
C244   C     0.36778   0.47520   0.21674   0.00000  Uiso   1.00
C245   C     0.65182   0.47499   0.21658   0.00000  Uiso   1.00
C246   C     0.50004   0.42071   0.24998   0.00000  Uiso   1.00
C247   C     0.52600   0.50005   0.15009   0.00000  Uiso   1.00
C248   C     0.60274   0.49945   0.01035   0.00000  Uiso   1.00
C249   C     0.54077   0.49813   0.09333   0.00000  Uiso   1.00
C250   C     0.41209   0.47788   0.43259   0.00000  Uiso   1.00
C251   C     0.39832   0.46999   0.48561   0.00000  Uiso   1.00
C252   C     0.43226   0.47253   0.01323   0.00000  Uiso   1.00
Cu253  Cu    0.45311   0.49999   0.25000   0.00000  Uiso   1.00
Cu254  Cu    0.54689   0.50001   0.25000   0.00000  Uiso   1.00
H255   H     0.61745   0.51013   0.08273   0.00000  Uiso   1.00
H256   H     0.57454   0.37043   0.25378   0.00000  Uiso   1.00
H257   H     0.42543   0.37083   0.24648   0.00000  Uiso   1.00
H258   H     0.42533   0.62957   0.24663   0.00000  Uiso   1.00
H259   H     0.60645   0.54477   0.31017   0.00000  Uiso   1.00
H260   H     0.35988   0.54466   0.31026   0.00000  Uiso   1.00
H261   H     0.39420   0.45534   0.19023   0.00000  Uiso   1.00
H262   H     0.62095   0.48032   0.41075   0.00000  Uiso   1.00
H263   H     0.64017   0.50475   0.48785   0.00000  Uiso   1.00
H264   H     0.46760   0.48897   0.09176   0.00000  Uiso   1.00
H265   H     0.38417   0.47847   0.41283   0.00000  Uiso   1.00
H266   H     0.41848   0.46751   0.05447   0.00000  Uiso   1.00
H267   H     0.36090   0.46262   0.00608   0.00000  Uiso   1.00
H268   H     0.56222   0.46439   0.36702   0.00000  Uiso   1.00
H269   H     0.57450   0.62919   0.25376   0.00000  Uiso   1.00
N270   N     0.38265   0.49999   0.24999   0.00000  Uiso   1.00
N271   N     0.61735   0.50002   0.25000   0.00000  Uiso   1.00
O272   O     0.46042   0.56011   0.25001   0.00000  Uiso   1.00
O273   O     0.53961   0.56012   0.25001   0.00000  Uiso   1.00
O274   O     0.44108   0.49998   0.32549   0.00000  Uiso   1.00
O275   O     0.52027   0.49999   0.32549   0.00000  Uiso   1.00
O276   O     0.46039   0.43988   0.25000   0.00000  Uiso   1.00
O277   O     0.53958   0.43989   0.25000   0.00000  Uiso   1.00
O278   O     0.47973   0.50001   0.17451   0.00000  Uiso   1.00
O279   O     0.55892   0.50002   0.17451   0.00000  Uiso   1.00
Br280  Br    0.63645   0.43813   0.16791   0.00000  Uiso   1.00
C281   C     0.83328   0.57929   0.25009   0.00000  Uiso   1.00
C282   C     0.81549   0.47953   0.48739   0.00000  Uiso   1.00
C283   C     0.83070   0.47968   0.43227   0.00000  Uiso   1.00
C284   C     0.85104   0.48593   0.01415   0.00000  Uiso   1.00
C285   C     0.90105   0.48938   0.48549   0.00000  Uiso   1.00
C286   C     0.91582   0.48161   0.43242   0.00000  Uiso   1.00
C287   C     0.88127   0.47488   0.40664   0.00000  Uiso   1.00
C288   C     0.83843   0.49067   0.06826   0.00000  Uiso   1.00
C289   C     0.92292   0.50321   0.06412   0.00000  Uiso   1.00
C290   C     0.79474   0.48396   0.40525   0.00000  Uiso   1.00
C291   C     0.87513   0.64528   0.25212   0.00000  Uiso   1.00
C292   C     0.80788   0.49503   0.34945   0.00000  Uiso   1.00
C293   C     0.87518   0.35452   0.25210   0.00000  Uiso   1.00
C294   C     0.83337   0.37609   0.25005   0.00000  Uiso   1.00
C295   C     0.79147   0.35474   0.24812   0.00000  Uiso   1.00
C296   C     0.79140   0.64549   0.24819   0.00000  Uiso   1.00
C297   C     0.83325   0.62392   0.25014   0.00000  Uiso   1.00
C298   C     0.96586   0.52485   0.28339   0.00000  Uiso   1.00
C299   C     0.68208   0.52478   0.28344   0.00000  Uiso   1.00
C300   C     0.70112   0.47520   0.21674   0.00000  Uiso   1.00
C301   C     0.98515   0.47499   0.21658   0.00000  Uiso   1.00
C302   C     0.83337   0.42071   0.24998   0.00000  Uiso   1.00
C303   C     0.85933   0.50005   0.15009   0.00000  Uiso   1.00
C304   C     0.93607   0.49945   0.01035   0.00000  Uiso   1.00
C305   C     0.87410   0.49813   0.09333   0.00000  Uiso   1.00
C306   C     0.74542   0.47788   0.43259   0.00000  Uiso   1.00
C307   C     0.73165   0.46999   0.48561   0.00000  Uiso   1.00
C308   C     0.76559   0.47253   0.01323   0.00000  Uiso   1.00
Cu309  Cu    0.78645   0.49999   0.25000   0.00000  Uiso   1.00
Cu310  Cu    0.88022   0.50001   0.25000   0.00000  Uiso   1.00
H311   H     0.95079   0.51013   0.08273   0.00000  Uiso   1.00
H312   H     0.90788   0.37043   0.25378   0.00000  Uiso   1.00
H313   H     0.75877   0.37083   0.24648   0.00000  Uiso   1.00
H314   H     0.75867   0.62957   0.24663   0.00000  Uiso   1.00
H315   H     0.93978   0.54477   0.31017   0.00000  Uiso   1.00
H316   H     0.69321   0.54466   0.31026   0.00000  Uiso   1.00
H317   H     0.72754   0.45534   0.19023   0.00000  Uiso   1.00
H318   H     0.95428   0.48032   0.41075   0.00000  Uiso   1.00
H319   H     0.97350   0.50475   0.48785   0.00000  Uiso   1.00
H320   H     0.80093   0.48897   0.09176   0.00000  Uiso   1.00
H321   H     0.71750   0.47847   0.41283   0.00000  Uiso   1.00
H322   H     0.75181   0.46751   0.05447   0.00000  Uiso   1.00
H323   H     0.69423   0.46262   0.00608   0.00000  Uiso   1.00
H324   H     0.89555   0.46439   0.36702   0.00000  Uiso   1.00
H325   H     0.90783   0.62919   0.25376   0.00000  Uiso   1.00
N326   N     0.71598   0.49999   0.24999   0.00000  Uiso   1.00
N327   N     0.95069   0.50002   0.25000   0.00000  Uiso   1.00
O328   O     0.79375   0.56011   0.25001   0.00000  Uiso   1.00
O329   O     0.87294   0.56012   0.25001   0.00000  Uiso   1.00
O330   O     0.77441   0.49998   0.32549   0.00000  Uiso   1.00
O331   O     0.85360   0.49999   0.32549   0.00000  Uiso   1.00
O332   O     0.79373   0.43988   0.25000   0.00000  Uiso   1.00
O333   O     0.87292   0.43989   0.25000   0.00000  Uiso   1.00
O334   O     0.81306   0.50001   0.17451   0.00000  Uiso   1.00
O335   O     0.89225   0.50002   0.17451   0.00000  Uiso   1.00
Br336  Br    0.96978   0.43813   0.16791   0.00000  Uiso   1.00
C337   C     0.16661   0.91262   0.25009   0.00000  Uiso   1.00
C338   C     0.14882   0.81286   0.48739   0.00000  Uiso   1.00
C339   C     0.16404   0.81301   0.43227   0.00000  Uiso   1.00
C340   C     0.18438   0.81926   0.01415   0.00000  Uiso   1.00
C341   C     0.23438   0.82271   0.48549   0.00000  Uiso   1.00
C342   C     0.24915   0.81494   0.43242   0.00000  Uiso   1.00
C343   C     0.21461   0.80821   0.40664   0.00000  Uiso   1.00
C344   C     0.17176   0.82400   0.06826   0.00000  Uiso   1.00
C345   C     0.25625   0.83654   0.06412   0.00000  Uiso   1.00
C346   C     0.12807   0.81729   0.40525   0.00000  Uiso   1.00
C347   C     0.20847   0.97861   0.25212   0.00000  Uiso   1.00
C348   C     0.14122   0.82836   0.34945   0.00000  Uiso   1.00
C349   C     0.20851   0.68785   0.25210   0.00000  Uiso   1.00
C350   C     0.16670   0.70942   0.25005   0.00000  Uiso   1.00
C351   C     0.12480   0.68807   0.24812   0.00000  Uiso   1.00
C352   C     0.12473   0.97883   0.24819   0.00000  Uiso   1.00
C353   C     0.16658   0.95725   0.25014   0.00000  Uiso   1.00
C354   C     0.29920   0.85818   0.28339   0.00000  Uiso   1.00
C355   C     0.01541   0.85811   0.28344   0.00000  Uiso   1.00
C356   C     0.03445   0.80854   0.21674   0.00000  Uiso   1.00
C357   C     0.31849   0.80833   0.21658   0.00000  Uiso   1.00
C358   C     0.16670   0.75405   0.24998   0.00000  Uiso   1.00
C359   C     0.19266   0.83338   0.15009   0.00000  Uiso   1.00
C360   C     0.26940   0.83279   0.01035   0.00000  Uiso   1.00
C361   C     0.20744   0.83146   0.09333   0.00000  Uiso   1.00
C362   C     0.07875   0.81121   0.43259   0.00000  Uiso   1.00
C363   C     0.06499   0.80332   0.48561   0.00000  Uiso   1.00
C364   C     0.09892   0.80587   0.01323   0.00000  Uiso   1.00
Cu365  Cu    0.11978   0.83333   0.25000   0.00000  Uiso   1.00
Cu366  Cu    0.21355   0.83334   0.25000   0.00000  Uiso   1.00
H367   H     0.28412   0.84346   0.08273   0.00000  Uiso   1.00
H368   H     0.24121   0.70376   0.25378   0.00000  Uiso   1.00
H369   H     0.09210   0.70416   0.24648   0.00000  Uiso   1.00
H370   H     0.09200   0.96290   0.24663   0.00000  Uiso   1.00
H371   H     0.27311   0.87810   0.31017   0.00000  Uiso   1.00
H372   H     0.02654   0.87799   0.31026   0.00000  Uiso   1.00
H373   H     0.06087   0.78867   0.19023   0.00000  Uiso   1.00
H374   H     0.28761   0.81365   0.41075   0.00000  Uiso   1.00
H375   H     0.30684   0.83808   0.48785   0.00000  Uiso   1.00
H376   H     0.13427   0.82230   0.09176   0.00000  Uiso   1.00
H377   H     0.05083   0.81181   0.41283   0.00000  Uiso   1.00
H378   H     0.08514   0.80084   0.05447   0.00000  Uiso   1.00
H379   H     0.02756   0.79595   0.00608   0.00000  Uiso   1.00
H380   H     0.22888   0.79772   0.36702   0.00000  Uiso   1.00
H381   H     0.24117   0.96252   0.25376   0.00000  Uiso   1.00
N382   N     0.04931   0.83332   0.24999   0.00000  Uiso   1.00
N383   N     0.28402   0.83335   0.25000   0.00000  Uiso   1.00
O384   O     0.12708   0.89345   0.25001   0.00000  Uiso   1.00
O385   O     0.20627   0.89346   0.25001   0.00000  Uiso   1.00
O386   O     0.10775   0.83332   0.32549   0.00000  Uiso   1.00
O387   O     0.18694   0.83333   0.32549   0.00000  Uiso   1.00
O388   O     0.12706   0.77321   0.25000   0.00000  Uiso   1.00
O389   O     0.20625   0.77322   0.25000   0.00000  Uiso   1.00
O390   O     0.14640   0.83334   0.17451   0.00000  Uiso   1.00
O391   O     0.22559   0.83335   0.17451   0.00000  Uiso   1.00
Br392  Br    0.30312   0.77146   0.16791   0.00000  Uiso   1.00
C393   C     0.49994   0.91262   0.25009   0.00000  Uiso   1.00
C394   C     0.48216   0.81286   0.48739   0.00000  Uiso   1.00
C395   C     0.49737   0.81301   0.43227   0.00000  Uiso   1.00
C396   C     0.51771   0.81926   0.01415   0.00000  Uiso   1.00
C397   C     0.56772   0.82271   0.48549   0.00000  Uiso   1.00
C398   C     0.58248   0.81494   0.43242   0.00000  Uiso   1.00
C399   C     0.54794   0.80821   0.40664   0.00000  Uiso   1.00
C400   C     0.50510   0.82400   0.06826   0.00000  Uiso   1.00
C401   C     0.58958   0.83654   0.06412   0.00000  Uiso   1.00
C402   C     0.46141   0.81729   0.40525   0.00000  Uiso   1.00
C403   C     0.54180   0.97861   0.25212   0.00000  Uiso   1.00
C404   C     0.47455   0.82836   0.34945   0.00000  Uiso   1.00
C405   C     0.54185   0.68785   0.25210   0.00000  Uiso   1.00
C406   C     0.50003   0.70942   0.25005   0.00000  Uiso   1.00
C407   C     0.45813   0.68807   0.24812   0.00000  Uiso   1.00
C408   C     0.45807   0.97883   0.24819   0.00000  Uiso   1.00
C409   C     0.49991   0.95725   0.25014   0.00000  Uiso   1.00
C410   C     0.63253   0.85818   0.28339   0.00000  Uiso   1.00
C411   C     0.34874   0.85811   0.28344   0.00000  Uiso   1.00
C412   C     0.36778   0.80854   0.21674   0.00000  Uiso   1.00
C413   C     0.65182   0.80833   0.21658   0.00000  Uiso   1.00
C414   C     0.50004   0.75405   0.24998   0.00000  Uiso   1.00
C415   C     0.52600   0.83338   0.15009   0.00000  Uiso   1.00
C416   C     0.60274   0.83279   0.01035   0.00000  Uiso   1.00
C417   C     0.54077   0.83146   0.09333   0.00000  Uiso   1.00
C418   C     0.41209   0.81121   0.43259   0.00000  Uiso   1.00
C419   C     0.39832   0.80332   0.48561   0.00000  Uiso   1.00
C420   C     0.43226   0.80587   0.01323   0.00000  Uiso   1.00
Cu421  Cu    0.45311   0.83333   0.25000   0.00000  Uiso   1.00
Cu422  Cu    0.54689   0.83334   0.25000   0.00000  Uiso   1.00
H423   H     0.61745   0.84346   0.08273   0.00000  Uiso   1.00
H424   H     0.57454   0.70376   0.25378   0.00000  Uiso   1.00
H425   H     0.42543   0.70416   0.24648   0.00000  Uiso   1.00
H426   H     0.42533   0.96290   0.24663   0.00000  Uiso   1.00
H427   H     0.60645   0.87810   0.31017   0.00000  Uiso   1.00
H428   H     0.35988   0.87799   0.31026   0.00000  Uiso   1.00
H429   H     0.39420   0.78867   0.19023   0.00000  Uiso   1.00
H430   H     0.62095   0.81365   0.41075   0.00000  Uiso   1.00
H431   H     0.64017   0.83808   0.48785   0.00000  Uiso   1.00
H432   H     0.46760   0.82230   0.09176   0.00000  Uiso   1.00
H433   H     0.38417   0.81181   0.41283   0.00000  Uiso   1.00
H434   H     0.41848   0.80084   0.05447   0.00000  Uiso   1.00
H435   H     0.36090   0.79595   0.00608   0.00000  Uiso   1.00
H436   H     0.56222   0.79772   0.36702   0.00000  Uiso   1.00
H437   H     0.57450   0.96252   0.25376   0.00000  Uiso   1.00
N438   N     0.38265   0.83332   0.24999   0.00000  Uiso   1.00
N439   N     0.61735   0.83335   0.25000   0.00000  Uiso   1.00
O440   O     0.46042   0.89345   0.25001   0.00000  Uiso   1.00
O441   O     0.53961   0.89346   0.25001   0.00000  Uiso   1.00
O442   O     0.44108   0.83332   0.32549   0.00000  Uiso   1.00
O443   O     0.52027   0.83333   0.32549   0.00000  Uiso   1.00
O444   O     0.46039   0.77321   0.25000   0.00000  Uiso   1.00
O445   O     0.53958   0.77322   0.25000   0.00000  Uiso   1.00
O446   O     0.47973   0.83334   0.17451   0.00000  Uiso   1.00
O447   O     0.55892   0.83335   0.17451   0.00000  Uiso   1.00
Br448  Br    0.63645   0.77146   0.16791   0.00000  Uiso   1.00
C449   C     0.83328   0.91262   0.25009   0.00000  Uiso   1.00
C450   C     0.81549   0.81286   0.48739   0.00000  Uiso   1.00
C451   C     0.83070   0.81301   0.43227   0.00000  Uiso   1.00
C452   C     0.85104   0.81926   0.01415   0.00000  Uiso   1.00
C453   C     0.90105   0.82271   0.48549   0.00000  Uiso   1.00
C454   C     0.91582   0.81494   0.43242   0.00000  Uiso   1.00
C455   C     0.88127   0.80821   0.40664   0.00000  Uiso   1.00
C456   C     0.83843   0.82400   0.06826   0.00000  Uiso   1.00
C457   C     0.92292   0.83654   0.06412   0.00000  Uiso   1.00
C458   C     0.79474   0.81729   0.40525   0.00000  Uiso   1.00
C459   C     0.87513   0.97861   0.25212   0.00000  Uiso   1.00
C460   C     0.80788   0.82836   0.34945   0.00000  Uiso   1.00
C461   C     0.87518   0.68785   0.25210   0.00000  Uiso   1.00
C462   C     0.83337   0.70942   0.25005   0.00000  Uiso   1.00
C463   C     0.79147   0.68807   0.24812   0.00000  Uiso   1.00
C464   C     0.79140   0.97883   0.24819   0.00000  Uiso   1.00
C465   C     0.83325   0.95725   0.25014   0.00000  Uiso   1.00
C466   C     0.96586   0.85818   0.28339   0.00000  Uiso   1.00
C467   C     0.68208   0.85811   0.28344   0.00000  Uiso   1.00
C468   C     0.70112   0.80854   0.21674   0.00000  Uiso   1.00
C469   C     0.98515   0.80833   0.21658   0.00000  Uiso   1.00
C470   C     0.83337   0.75405   0.24998   0.00000  Uiso   1.00
C471   C     0.85933   0.83338   0.15009   0.00000  Uiso   1.00
C472   C     0.93607   0.83279   0.01035   0.00000  Uiso   1.00
C473   C     0.87410   0.83146   0.09333   0.00000  Uiso   1.00
C474   C     0.74542   0.81121   0.43259   0.00000  Uiso   1.00
C475   C     0.73165   0.80332   0.48561   0.00000  Uiso   1.00
C476   C     0.76559   0.80587   0.01323   0.00000  Uiso   1.00
Cu477  Cu    0.78645   0.83333   0.25000   0.00000  Uiso   1.00
Cu478  Cu    0.88022   0.83334   0.25000   0.00000  Uiso   1.00
H479   H     0.95079   0.84346   0.08273   0.00000  Uiso   1.00
H480   H     0.90788   0.70376   0.25378   0.00000  Uiso   1.00
H481   H     0.75877   0.70416   0.24648   0.00000  Uiso   1.00
H482   H     0.75867   0.96290   0.24663   0.00000  Uiso   1.00
H483   H     0.93978   0.87810   0.31017   0.00000  Uiso   1.00
H484   H     0.69321   0.87799   0.31026   0.00000  Uiso   1.00
H485   H     0.72754   0.78867   0.19023   0.00000  Uiso   1.00
H486   H     0.95428   0.81365   0.41075   0.00000  Uiso   1.00
H487   H     0.97350   0.83808   0.48785   0.00000  Uiso   1.00
H488   H     0.80093   0.82230   0.09176   0.00000  Uiso   1.00
H489   H     0.71750   0.81181   0.41283   0.00000  Uiso   1.00
H490   H     0.75181   0.80084   0.05447   0.00000  Uiso   1.00
H491   H     0.69423   0.79595   0.00608   0.00000  Uiso   1.00
H492   H     0.89555   0.79772   0.36702   0.00000  Uiso   1.00
H493   H     0.90783   0.96252   0.25376   0.00000  Uiso   1.00
N494   N     0.71598   0.83332   0.24999   0.00000  Uiso   1.00
N495   N     0.95069   0.83335   0.25000   0.00000  Uiso   1.00
O496   O     0.79375   0.89345   0.25001   0.00000  Uiso   1.00
O497   O     0.87294   0.89346   0.25001   0.00000  Uiso   1.00
O498   O     0.77441   0.83332   0.32549   0.00000  Uiso   1.00
O499   O     0.85360   0.83333   0.32549   0.00000  Uiso   1.00
O500   O     0.79373   0.77321   0.25000   0.00000  Uiso   1.00
O501   O     0.87292   0.77322   0.25000   0.00000  Uiso   1.00
O502   O     0.81306   0.83334   0.17451   0.00000  Uiso   1.00
O503   O     0.89225   0.83335   0.17451   0.00000  Uiso   1.00
Br504  Br    0.96978   0.77146   0.16791   0.00000  Uiso   1.00
C505   C     0.16661   0.24595   0.75009   0.00000  Uiso   1.00
C506   C     0.14882   0.14620   0.98739   0.00000  Uiso   1.00
C507   C     0.16404   0.14635   0.93227   0.00000  Uiso   1.00
C508   C     0.18438   0.15260   0.51415   0.00000  Uiso   1.00
C509   C     0.23438   0.15605   0.98549   0.00000  Uiso   1.00
C510   C     0.24915   0.14827   0.93242   0.00000  Uiso   1.00
C511   C     0.21461   0.14154   0.90664   0.00000  Uiso   1.00
C512   C     0.17176   0.15733   0.56826   0.00000  Uiso   1.00
C513   C     0.25625   0.16988   0.56412   0.00000  Uiso   1.00
C514   C     0.12807   0.15062   0.90525   0.00000  Uiso   1.00
C515   C     0.20847   0.31194   0.75212   0.00000  Uiso   1.00
C516   C     0.14122   0.16170   0.84945   0.00000  Uiso   1.00
C517   C     0.20851   0.02118   0.75210   0.00000  Uiso   1.00
C518   C     0.16670   0.04276   0.75005   0.00000  Uiso   1.00
C519   C     0.12480   0.02140   0.74812   0.00000  Uiso   1.00
C520   C     0.12473   0.31216   0.74819   0.00000  Uiso   1.00
C521   C     0.16658   0.29059   0.75014   0.00000  Uiso   1.00
C522   C     0.29920   0.19152   0.78339   0.00000  Uiso   1.00
C523   C     0.01541   0.19144   0.78344   0.00000  Uiso   1.00
C524   C     0.03445   0.14187   0.71674   0.00000  Uiso   1.00
C525   C     0.31849   0.14166   0.71658   0.00000  Uiso   1.00
C526   C     0.16670   0.08738   0.74998   0.00000  Uiso   1.00
C527   C     0.19266   0.16672   0.65009   0.00000  Uiso   1.00
C528   C     0.26940   0.16612   0.51035   0.00000  Uiso   1.00
C529   C     0.20744   0.16480   0.59333   0.00000  Uiso   1.00
C530   C     0.07875   0.14454   0.93259   0.00000  Uiso   1.00
C531   C     0.06499   0.13665   0.98561   0.00000  Uiso   1.00
C532   C     0.09892   0.13920   0.51323   0.00000  Uiso   1.00
Cu533  Cu    0.11978   0.16666   0.75000   0.00000  Uiso   1.00
Cu534  Cu    0.21355   0.16667   0.75000   0.00000  Uiso   1.00
H535   H     0.28412   0.17680   0.58273   0.00000  Uiso   1.00
H536   H     0.24121   0.03710   0.75378   0.00000  Uiso   1.00
H537   H     0.09210   0.03750   0.74648   0.00000  Uiso   1.00
H538   H     0.09200   0.29624   0.74663   0.00000  Uiso   1.00
H539   H     0.27311   0.21144   0.81017   0.00000  Uiso   1.00
H540   H     0.02654   0.21132   0.81026   0.00000  Uiso   1.00
H541   H     0.06087   0.12201   0.69023   0.00000  Uiso   1.00
H542   H     0.28761   0.14699   0.91075   0.00000  Uiso   1.00
H543   H     0.30684   0.17141   0.98785   0.00000  Uiso   1.00
H544   H     0.13427   0.15563   0.59176   0.00000  Uiso   1.00
H545   H     0.05083   0.14514   0.91283   0.00000  Uiso   1.00
H546   H     0.08514   0.13417   0.55447   0.00000  Uiso   1.00
H547   H     0.02756   0.12929   0.50608   0.00000  Uiso   1.00
H548   H     0.22888   0.13106   0.86702   0.00000  Uiso   1.00
H549   H     0.24117   0.29585   0.75376   0.00000  Uiso   1.00
N550   N     0.04931   0.16666   0.74999   0.00000  Uiso   1.00
N551   N     0.28402   0.16669   0.75000   0.00000  Uiso   1.00
O552   O     0.12708   0.22678   0.75001   0.00000  Uiso   1.00
O553   O     0.20627   0.22679   0.75001   0.00000  Uiso   1.00
O554   O     0.10775   0.16665   0.82549   0.00000  Uiso   1.00
O555   O     0.18694   0.16666   0.82549   0.00000  Uiso   1.00
O556   O     0.12706   0.10654   0.75000   0.00000  Uiso   1.00
O557   O     0.20625   0.10655   0.75000   0.00000  Uiso   1.00
O558   O     0.14640   0.16667   0.67451   0.00000  Uiso   1.00
O559   O     0.22559   0.16668   0.67451   0.00000  Uiso   1.00
Br560  Br    0.30312   0.10480   0.66791   0.00000  Uiso   1.00
C561   C     0.49994   0.24595   0.75009   0.00000  Uiso   1.00
C562   C     0.48216   0.14620   0.98739   0.00000  Uiso   1.00
C563   C     0.49737   0.14635   0.93227   0.00000  Uiso   1.00
C564   C     0.51771   0.15260   0.51415   0.00000  Uiso   1.00
C565   C     0.56772   0.15605   0.98549   0.00000  Uiso   1.00
C566   C     0.58248   0.14827   0.93242   0.00000  Uiso   1.00
C567   C     0.54794   0.14154   0.90664   0.00000  Uiso   1.00
C568   C     0.50510   0.15733   0.56826   0.00000  Uiso   1.00
C569   C     0.58958   0.16988   0.56412   0.00000  Uiso   1.00
C570   C     0.46141   0.15062   0.90525   0.00000  Uiso   1.00
C571   C     0.54180   0.31194   0.75212   0.00000  Uiso   1.00
C572   C     0.47455   0.16170   0.84945   0.00000  Uiso   1.00
C573   C     0.54185   0.02118   0.75210   0.00000  Uiso   1.00
C574   C     0.50003   0.04276   0.75005   0.00000  Uiso   1.00
C575   C     0.45813   0.02140   0.74812   0.00000  Uiso   1.00
C576   C     0.45807   0.31216   0.74819   0.00000  Uiso   1.00
C577   C     0.49991   0.29059   0.75014   0.00000  Uiso   1.00
C578   C     0.63253   0.19152   0.78339   0.00000  Uiso   1.00
C579   C     0.34874   0.19144   0.78344   0.00000  Uiso   1.00
C580   C     0.36778   0.14187   0.71674   0.00000  Uiso   1.00
C581   C     0.65182   0.14166   0.71658   0.00000  Uiso   1.00
C582   C     0.50004   0.08738   0.74998   0.00000  Uiso   1.00
C583   C     0.52600   0.16672   0.65009   0.00000  Uiso   1.00
C584   C     0.60274   0.16612   0.51035   0.00000  Uiso   1.00
C585   C     0.54077   0.16480   0.59333   0.00000  Uiso   1.00
C586   C     0.41209   0.14454   0.93259   0.00000  Uiso   1.00
C587   C     0.39832   0.13665   0.98561   0.00000  Uiso   1.00
C588   C     0.43226   0.13920   0.51323   0.00000  Uiso   1.00
Cu589  Cu    0.45311   0.16666   0.75000   0.00000  Uiso   1.00
Cu590  Cu    0.54689   0.16667   0.75000   0.00000  Uiso   1.00
H591   H     0.61745   0.17680   0.58273   0.00000  Uiso   1.00
H592   H     0.57454   0.03710   0.75378   0.00000  Uiso   1.00
H593   H     0.42543   0.03750   0.74648   0.00000  Uiso   1.00
H594   H     0.42533   0.29624   0.74663   0.00000  Uiso   1.00
H595   H     0.60645   0.21144   0.81017   0.00000  Uiso   1.00
H596   H     0.35988   0.21132   0.81026   0.00000  Uiso   1.00
H597   H     0.39420   0.12201   0.69023   0.00000  Uiso   1.00
H598   H     0.62095   0.14699   0.91075   0.00000  Uiso   1.00
H599   H     0.64017   0.17141   0.98785   0.00000  Uiso   1.00
H600   H     0.46760   0.15563   0.59176   0.00000  Uiso   1.00
H601   H     0.38417   0.14514   0.91283   0.00000  Uiso   1.00
H602   H     0.41848   0.13417   0.55447   0.00000  Uiso   1.00
H603   H     0.36090   0.12929   0.50608   0.00000  Uiso   1.00
H604   H     0.56222   0.13106   0.86702   0.00000  Uiso   1.00
H605   H     0.57450   0.29585   0.75376   0.00000  Uiso   1.00
N606   N     0.38265   0.16666   0.74999   0.00000  Uiso   1.00
N607   N     0.61735   0.16669   0.75000   0.00000  Uiso   1.00
O608   O     0.46042   0.22678   0.75001   0.00000  Uiso   1.00
O609   O     0.53961   0.22679   0.75001   0.00000  Uiso   1.00
O610   O     0.44108   0.16665   0.82549   0.00000  Uiso   1.00
O611   O     0.52027   0.16666   0.82549   0.00000  Uiso   1.00
O612   O     0.46039   0.10654   0.75000   0.00000  Uiso   1.00
O613   O     0.53958   0.10655   0.75000   0.00000  Uiso   1.00
O614   O     0.47973   0.16667   0.67451   0.00000  Uiso   1.00
O615   O     0.55892   0.16668   0.67451   0.00000  Uiso   1.00
Br616  Br    0.63645   0.10480   0.66791   0.00000  Uiso   1.00
C617   C     0.83328   0.24595   0.75009   0.00000  Uiso   1.00
C618   C     0.81549   0.14620   0.98739   0.00000  Uiso   1.00
C619   C     0.83070   0.14635   0.93227   0.00000  Uiso   1.00
C620   C     0.85104   0.15260   0.51415   0.00000  Uiso   1.00
C621   C     0.90105   0.15605   0.98549   0.00000  Uiso   1.00
C622   C     0.91582   0.14827   0.93242   0.00000  Uiso   1.00
C623   C     0.88127   0.14154   0.90664   0.00000  Uiso   1.00
C624   C     0.83843   0.15733   0.56826   0.00000  Uiso   1.00
C625   C     0.92292   0.16988   0.56412   0.00000  Uiso   1.00
C626   C     0.79474   0.15062   0.90525   0.00000  Uiso   1.00
C627   C     0.87513   0.31194   0.75212   0.00000  Uiso   1.00
C628   C     0.80788   0.16170   0.84945   0.00000  Uiso   1.00
C629   C     0.87518   0.02118   0.75210   0.00000  Uiso   1.00
C630   C     0.83337   0.04276   0.75005   0.00000  Uiso   1.00
C631   C     0.79147   0.02140   0.74812   0.00000  Uiso   1.00
C632   C     0.79140   0.31216   0.74819   0.00000  Uiso   1.00
C633   C     0.83325   0.29059   0.75014   0.00000  Uiso   1.00
C634   C     0.96586   0.19152   0.78339   0.00000  Uiso   1.00
C635   C     0.68208   0.19144   0.78344   0.00000  Uiso   1.00
C636   C     0.70112   0.14187   0.71674   0.00000  Uiso   1.00
C637   C     0.98515   0.14166   0.71658   0.00000  Uiso   1.00
C638   C     0.83337   0.08738   0.74998   0.00000  Uiso   1.00
C639   C     0.85933   0.16672   0.65009   0.00000  Uiso   1.00
C640   C     0.93607   0.16612   0.51035   0.00000  Uiso   1.00
C641   C     0.87410   0.16480   0.59333   0.00000  Uiso   1.00
C642   C     0.74542   0.14454   0.93259   0.00000  Uiso   1.00
C643   C     0.73165   0.13665   0.98561   0.00000  Uiso   1.00
C644   C     0.76559   0.13920   0.51323   0.00000  Uiso   1.00
Cu645  Cu    0.78645   0.16666   0.75000   0.00000  Uiso   1.00
Cu646  Cu    0.88022   0.16667   0.75000   0.00000  Uiso   1.00
H647   H     0.95079   0.17680   0.58273   0.00000  Uiso   1.00
H648   H     0.90788   0.03710   0.75378   0.00000  Uiso   1.00
H649   H     0.75877   0.03750   0.74648   0.00000  Uiso   1.00
H650   H     0.75867   0.29624   0.74663   0.00000  Uiso   1.00
H651   H     0.93978   0.21144   0.81017   0.00000  Uiso   1.00
H652   H     0.69321   0.21132   0.81026   0.00000  Uiso   1.00
H653   H     0.72754   0.12201   0.69023   0.00000  Uiso   1.00
H654   H     0.95428   0.14699   0.91075   0.00000  Uiso   1.00
H655   H     0.97350   0.17141   0.98785   0.00000  Uiso   1.00
H656   H     0.80093   0.15563   0.59176   0.00000  Uiso   1.00
H657   H     0.71750   0.14514   0.91283   0.00000  Uiso   1.00
H658   H     0.75181   0.13417   0.55447   0.00000  Uiso   1.00
H659   H     0.69423   0.12929   0.50608   0.00000  Uiso   1.00
H660   H     0.89555   0.13106   0.86702   0.00000  Uiso   1.00
H661   H     0.90783   0.29585   0.75376   0.00000  Uiso   1.00
N662   N     0.71598   0.16666   0.74999   0.00000  Uiso   1.00
N663   N     0.95069   0.16669   0.75000   0.00000  Uiso   1.00
O664   O     0.79375   0.22678   0.75001   0.00000  Uiso   1.00
O665   O     0.87294   0.22679   0.75001   0.00000  Uiso   1.00
O666   O     0.77441   0.16665   0.82549   0.00000  Uiso   1.00
O667   O     0.85360   0.16666   0.82549   0.00000  Uiso   1.00
O668   O     0.79373   0.10654   0.75000   0.00000  Uiso   1.00
O669   O     0.87292   0.10655   0.75000   0.00000  Uiso   1.00
O670   O     0.81306   0.16667   0.67451   0.00000  Uiso   1.00
O671   O     0.89225   0.16668   0.67451   0.00000  Uiso   1.00
Br672  Br    0.96978   0.10480   0.66791   0.00000  Uiso   1.00
C673   C     0.16661   0.57929   0.75009   0.00000  Uiso   1.00
C674   C     0.14882   0.47953   0.98739   0.00000  Uiso   1.00
C675   C     0.16404   0.47968   0.93227   0.00000  Uiso   1.00
C676   C     0.18438   0.48593   0.51415   0.00000  Uiso   1.00
C677   C     0.23438   0.48938   0.98549   0.00000  Uiso   1.00
C678   C     0.24915   0.48161   0.93242   0.00000  Uiso   1.00
C679   C     0.21461   0.47488   0.90664   0.00000  Uiso   1.00
C680   C     0.17176   0.49067   0.56826   0.00000  Uiso   1.00
C681   C     0.25625   0.50321   0.56412   0.00000  Uiso   1.00
C682   C     0.12807   0.48396   0.90525   0.00000  Uiso   1.00
C683   C     0.20847   0.64528   0.75212   0.00000  Uiso   1.00
C684   C     0.14122   0.49503   0.84945   0.00000  Uiso   1.00
C685   C     0.20851   0.35452   0.75210   0.00000  Uiso   1.00
C686   C     0.16670   0.37609   0.75005   0.00000  Uiso   1.00
C687   C     0.12480   0.35474   0.74812   0.00000  Uiso   1.00
C688   C     0.12473   0.64549   0.74819   0.00000  Uiso   1.00
C689   C     0.16658   0.62392   0.75014   0.00000  Uiso   1.00
C690   C     0.29920   0.52485   0.78339   0.00000  Uiso   1.00
C691   C     0.01541   0.52478   0.78344   0.00000  Uiso   1.00
C692   C     0.03445   0.47520   0.71674   0.00000  Uiso   1.00
C693   C     0.31849   0.47499   0.71658   0.00000  Uiso   1.00
C694   C     0.16670   0.42071   0.74998   0.00000  Uiso   1.00
C695   C     0.19266   0.50005   0.65009   0.00000  Uiso   1.00
C696   C     0.26940   0.49945   0.51035   0.00000  Uiso   1.00
C697   C     0.20744   0.49813   0.59333   0.00000  Uiso   1.00
C698   C     0.07875   0.47788   0.93259   0.00000  Uiso   1.00
C699   C     0.06499   0.46999   0.98561   0.00000  Uiso   1.00
C700   C     0.09892   0.47253   0.51323   0.00000  Uiso   1.00
Cu701  Cu    0.11978   0.49999   0.75000   0.00000  Uiso   1.00
Cu702  Cu    0.21355   0.50001   0.75000   0.00000  Uiso   1.00
H703   H     0.28412   0.51013   0.58273   0.00000  Uiso   1.00
H704   H     0.24121   0.37043   0.75378   0.00000  Uiso   1.00
H705   H     0.09210   0.37083   0.74648   0.00000  Uiso   1.00
H706   H     0.09200   0.62957   0.74663   0.00000  Uiso   1.00
H707   H     0.27311   0.54477   0.81017   0.00000  Uiso   1.00
H708   H     0.02654   0.54466   0.81026   0.00000  Uiso   1.00
H709   H     0.06087   0.45534   0.69023   0.00000  Uiso   1.00
H710   H     0.28761   0.48032   0.91075   0.00000  Uiso   1.00
H711   H     0.30684   0.50475   0.98785   0.00000  Uiso   1.00
H712   H     0.13427   0.48897   0.59176   0.00000  Uiso   1.00
H713   H     0.05083   0.47847   0.91283   0.00000  Uiso   1.00
H714   H     0.08514   0.46751   0.55447   0.00000  Uiso   1.00
H715   H     0.02756   0.46262   0.50608   0.00000  Uiso   1.00
H716   H     0.22888   0.46439   0.86702   0.00000  Uiso   1.00
H717   H     0.24117   0.62919   0.75376   0.00000  Uiso   1.00
N718   N     0.04931   0.49999   0.74999   0.00000  Uiso   1.00
N719   N     0.28402   0.50002   0.75000   0.00000  Uiso   1.00
O720   O     0.12708   0.56011   0.75001   0.00000  Uiso   1.00
O721   O     0.20627   0.56012   0.75001   0.00000  Uiso   1.00
O722   O     0.10775   0.49998   0.82549   0.00000  Uiso   1.00
O723   O     0.18694   0.49999   0.82549   0.00000  Uiso   1.00
O724   O     0.12706   0.43988   0.75000   0.00000  Uiso   1.00
O725   O     0.20625   0.43989   0.75000   0.00000  Uiso   1.00
O726   O     0.14640   0.50001   0.67451   0.00000  Uiso   1.00
O727   O     0.22559   0.50002   0.67451   0.00000  Uiso   1.00
Br728  Br    0.30312   0.43813   0.66791   0.00000  Uiso   1.00
C729   C     0.49994   0.57929   0.75009   0.00000  Uiso   1.00
C730   C     0.48216   0.47953   0.98739   0.00000  Uiso   1.00
C731   C     0.49737   0.47968   0.93227   0.00000  Uiso   1.00
C732   C     0.51771   0.48593   0.51415   0.00000  Uiso   1.00
C733   C     0.56772   0.48938   0.98549   0.00000  Uiso   1.00
C734   C     0.58248   0.48161   0.93242   0.00000  Uiso   1.00
C735   C     0.54794   0.47488   0.90664   0.00000  Uiso   1.00
C736   C     0.50510   0.49067   0.56826   0.00000  Uiso   1.00
C737   C     0.58958   0.50321   0.56412   0.00000  Uiso   1.00
C738   C     0.46141   0.48396   0.90525   0.00000  Uiso   1.00
C739   C     0.54180   0.64528   0.75212   0.00000  Uiso   1.00
C740   C     0.47455   0.49503   0.84945   0.00000  Uiso   1.00
C741   C     0.54185   0.35452   0.75210   0.00000  Uiso   1.00
C742   C     0.50003   0.37609   0.75005   0.00000  Uiso   1.00
C743   C     0.45813   0.35474   0.74812   0.00000  Uiso   1.00
C744   C     0.45807   0.64549   0.74819   0.00000  Uiso   1.00
C745   C     0.49991   0.62392   0.75014   0.00000  Uiso   1.00
C746   C     0.63253   0.52485   0.78339   0.00000  Uiso   1.00
C747   C     0.34874   0.52478   0.78344   0.00000  Uiso   1.00
C748   C     0.36778   0.47520   0.71674   0.00000  Uiso   1.00
C749   C     0.65182   0.47499   0.71658   0.00000  Uiso   1.00
C750   C     0.50004   0.42071   0.74998   0.00000  Uiso   1.00
C751   C     0.52600   0.50005   0.65009   0.00000  Uiso   1.00
C752   C     0.60274   0.49945   0.51035   0.00000  Uiso   1.00
C753   C     0.54077   0.49813   0.59333   0.00000  Uiso   1.00
C754   C     0.41209   0.47788   0.93259   0.00000  Uiso   1.00
C755   C     0.39832   0.46999   0.98561   0.00000  Uiso   1.00
C756   C     0.43226   0.47253   0.51323   0.00000  Uiso   1.00
Cu757  Cu    0.45311   0.49999   0.75000   0.00000  Uiso   1.00
Cu758  Cu    0.54689   0.50001   0.75000   0.00000  Uiso   1.00
H759   H     0.61745   0.51013   0.58273   0.00000  Uiso   1.00
H760   H     0.57454   0.37043   0.75378   0.00000  Uiso   1.00
H761   H     0.42543   0.37083   0.74648   0.00000  Uiso   1.00
H762   H     0.42533   0.62957   0.74663   0.00000  Uiso   1.00
H763   H     0.60645   0.54477   0.81017   0.00000  Uiso   1.00
H764   H     0.35988   0.54466   0.81026   0.00000  Uiso   1.00
H765   H     0.39420   0.45534   0.69023   0.00000  Uiso   1.00
H766   H     0.62095   0.48032   0.91075   0.00000  Uiso   1.00
H767   H     0.64017   0.50475   0.98785   0.00000  Uiso   1.00
H768   H     0.46760   0.48897   0.59176   0.00000  Uiso   1.00
H769   H     0.38417   0.47847   0.91283   0.00000  Uiso   1.00
H770   H     0.41848   0.46751   0.55447   0.00000  Uiso   1.00
H771   H     0.36090   0.46262   0.50608   0.00000  Uiso   1.00
H772   H     0.56222   0.46439   0.86702   0.00000  Uiso   1.00
H773   H     0.57450   0.62919   0.75376   0.00000  Uiso   1.00
N774   N     0.38265   0.49999   0.74999   0.00000  Uiso   1.00
N775   N     0.61735   0.50002   0.75000   0.00000  Uiso   1.00
O776   O     0.46042   0.56011   0.75001   0.00000  Uiso   1.00
O777   O     0.53961   0.56012   0.75001   0.00000  Uiso   1.00
O778   O     0.44108   0.49998   0.82549   0.00000  Uiso   1.00
O779   O     0.52027   0.49999   0.82549   0.00000  Uiso   1.00
O780   O     0.46039   0.43988   0.75000   0.00000  Uiso   1.00
O781   O     0.53958   0.43989   0.75000   0.00000  Uiso   1.00
O782   O     0.47973   0.50001   0.67451   0.00000  Uiso   1.00
O783   O     0.55892   0.50002   0.67451   0.00000  Uiso   1.00
Br784  Br    0.63645   0.43813   0.66791   0.00000  Uiso   1.00
C785   C     0.83328   0.57929   0.75009   0.00000  Uiso   1.00
C786   C     0.81549   0.47953   0.98739   0.00000  Uiso   1.00
C787   C     0.83070   0.47968   0.93227   0.00000  Uiso   1.00
C788   C     0.85104   0.48593   0.51415   0.00000  Uiso   1.00
C789   C     0.90105   0.48938   0.98549   0.00000  Uiso   1.00
C790   C     0.91582   0.48161   0.93242   0.00000  Uiso   1.00
C791   C     0.88127   0.47488   0.90664   0.00000  Uiso   1.00
C792   C     0.83843   0.49067   0.56826   0.00000  Uiso   1.00
C793   C     0.92292   0.50321   0.56412   0.00000  Uiso   1.00
C794   C     0.79474   0.48396   0.90525   0.00000  Uiso   1.00
C795   C     0.87513   0.64528   0.75212   0.00000  Uiso   1.00
C796   C     0.80788   0.49503   0.84945   0.00000  Uiso   1.00
C797   C     0.87518   0.35452   0.75210   0.00000  Uiso   1.00
C798   C     0.83337   0.37609   0.75005   0.00000  Uiso   1.00
C799   C     0.79147   0.35474   0.74812   0.00000  Uiso   1.00
C800   C     0.79140   0.64549   0.74819   0.00000  Uiso   1.00
C801   C     0.83325   0.62392   0.75014   0.00000  Uiso   1.00
C802   C     0.96586   0.52485   0.78339   0.00000  Uiso   1.00
C803   C     0.68208   0.52478   0.78344   0.00000  Uiso   1.00
C804   C     0.70112   0.47520   0.71674   0.00000  Uiso   1.00
C805   C     0.98515   0.47499   0.71658   0.00000  Uiso   1.00
C806   C     0.83337   0.42071   0.74998   0.00000  Uiso   1.00
C807   C     0.85933   0.50005   0.65009   0.00000  Uiso   1.00
C808   C     0.93607   0.49945   0.51035   0.00000  Uiso   1.00
C809   C     0.87410   0.49813   0.59333   0.00000  Uiso   1.00
C810   C     0.74542   0.47788   0.93259   0.00000  Uiso   1.00
C811   C     0.73165   0.46999   0.98561   0.00000  Uiso   1.00
C812   C     0.76559   0.47253   0.51323   0.00000  Uiso   1.00
Cu813  Cu    0.78645   0.49999   0.75000   0.00000  Uiso   1.00
Cu814  Cu    0.88022   0.50001   0.75000   0.00000  Uiso   1.00
H815   H     0.95079   0.51013   0.58273   0.00000  Uiso   1.00
H816   H     0.90788   0.37043   0.75378   0.00000  Uiso   1.00
H817   H     0.75877   0.37083   0.74648   0.00000  Uiso   1.00
H818   H     0.75867   0.62957   0.74663   0.00000  Uiso   1.00
H819   H     0.93978   0.54477   0.81017   0.00000  Uiso   1.00
H820   H     0.69321   0.54466   0.81026   0.00000  Uiso   1.00
H821   H     0.72754   0.45534   0.69023   0.00000  Uiso   1.00
H822   H     0.95428   0.48032   0.91075   0.00000  Uiso   1.00
H823   H     0.97350   0.50475   0.98785   0.00000  Uiso   1.00
H824   H     0.80093   0.48897   0.59176   0.00000  Uiso   1.00
H825   H     0.71750   0.47847   0.91283   0.00000  Uiso   1.00
H826   H     0.75181   0.46751   0.55447   0.00000  Uiso   1.00
H827   H     0.69423   0.46262   0.50608   0.00000  Uiso   1.00
H828   H     0.89555   0.46439   0.86702   0.00000  Uiso   1.00
H829   H     0.90783   0.62919   0.75376   0.00000  Uiso   1.00
N830   N     0.71598   0.49999   0.74999   0.00000  Uiso   1.00
N831   N     0.95069   0.50002   0.75000   0.00000  Uiso   1.00
O832   O     0.79375   0.56011   0.75001   0.00000  Uiso   1.00
O833   O     0.87294   0.56012   0.75001   0.00000  Uiso   1.00
O834   O     0.77441   0.49998   0.82549   0.00000  Uiso   1.00
O835   O     0.85360   0.49999   0.82549   0.00000  Uiso   1.00
O836   O     0.79373   0.43988   0.75000   0.00000  Uiso   1.00
O837   O     0.87292   0.43989   0.75000   0.00000  Uiso   1.00
O838   O     0.81306   0.50001   0.67451   0.00000  Uiso   1.00
O839   O     0.89225   0.50002   0.67451   0.00000  Uiso   1.00
Br840  Br    0.96978   0.43813   0.66791   0.00000  Uiso   1.00
C841   C     0.16661   0.91262   0.75009   0.00000  Uiso   1.00
C842   C     0.14882   0.81286   0.98739   0.00000  Uiso   1.00
C843   C     0.16404   0.81301   0.93227   0.00000  Uiso   1.00
C844   C     0.18438   0.81926   0.51415   0.00000  Uiso   1.00
C845   C     0.23438   0.82271   0.98549   0.00000  Uiso   1.00
C846   C     0.24915   0.81494   0.93242   0.00000  Uiso   1.00
C847   C     0.21461   0.80821   0.90664   0.00000  Uiso   1.00
C848   C     0.17176   0.82400   0.56826   0.00000  Uiso   1.00
C849   C     0.25625   0.83654   0.56412   0.00000  Uiso   1.00
C850   C     0.12807   0.81729   0.90525   0.00000  Uiso   1.00
C851   C     0.20847   0.97861   0.75212   0.00000  Uiso   1.00
C852   C     0.14122   0.82836   0.84945   0.00000  Uiso   1.00
C853   C     0.20851   0.68785   0.75210   0.00000  Uiso   1.00
C854   C     0.16670   0.70942   0.75005   0.00000  Uiso   1.00
C855   C     0.12480   0.68807   0.74812   0.00000  Uiso   1.00
C856   C     0.12473   0.97883   0.74819   0.00000  Uiso   1.00
C857   C     0.16658   0.95725   0.75014   0.00000  Uiso   1.00
C858   C     0.29920   0.85818   0.78339   0.00000  Uiso   1.00
C859   C     0.01541   0.85811   0.78344   0.00000  Uiso   1.00
C860   C     0.03445   0.80854   0.71674   0.00000  Uiso   1.00
C861   C     0.31849   0.80833   0.71658   0.00000  Uiso   1.00
C862   C     0.16670   0.75405   0.74998   0.00000  Uiso   1.00
C863   C     0.19266   0.83338   0.65009   0.00000  Uiso   1.00
C864   C     0.26940   0.83279   0.51035   0.00000  Uiso   1.00
C865   C     0.20744   0.83146   0.59333   0.00000  Uiso   1.00
C866   C     0.07875   0.81121   0.93259   0.00000  Uiso   1.00
C867   C     0.06499   0.80332   0.98561   0.00000  Uiso   1.00
C868   C     0.09892   0.80587   0.51323   0.00000  Uiso   1.00
Cu869  Cu    0.11978   0.83333   0.75000   0.00000  Uiso   1.00
Cu870  Cu    0.21355   0.83334   0.75000   0.00000  Uiso   1.00
H871   H     0.28412   0.84346   0.58273   0.00000  Uiso   1.00
H872   H     0.24121   0.70376   0.75378   0.00000  Uiso   1.00
H873   H     0.09210   0.70416   0.74648   0.00000  Uiso   1.00
H874   H     0.09200   0.96290   0.74663   0.00000  Uiso   1.00
H875   H     0.27311   0.87810   0.81017   0.00000  Uiso   1.00
H876   H     0.02654   0.87799   0.81026   0.00000  Uiso   1.00
H877   H     0.06087   0.78867   0.69023   0.00000  Uiso   1.00
H878   H     0.28761   0.81365   0.91075   0.00000  Uiso   1.00
H879   H     0.30684   0.83808   0.98785   0.00000  Uiso   1.00
H880   H     0.13427   0.82230   0.59176   0.00000  Uiso   1.00
H881   H     0.05083   0.81181   0.91283   0.00000  Uiso   1.00
H882   H     0.08514   0.80084   0.55447   0.00000  Uiso   1.00
H883   H     0.02756   0.79595   0.50608   0.00000  Uiso   1.00
H884   H     0.22888   0.79772   0.86702   0.00000  Uiso   1.00
H885   H     0.24117   0.96252   0.75376   0.00000  Uiso   1.00
N886   N     0.04931   0.83332   0.74999   0.00000  Uiso   1.00
N887   N     0.28402   0.83335   0.75000   0.00000  Uiso   1.00
O888   O     0.12708   0.89345   0.75001   0.00000  Uiso   1.00
O889   O     0.20627   0.89346   0.75001   0.00000  Uiso   1.00
O890   O     0.10775   0.83332   0.82549   0.00000  Uiso   1.00
O891   O     0.18694   0.83333   0.82549   0.00000  Uiso   1.00
O892   O     0.12706   0.77321   0.75000   0.00000  Uiso   1.00
O893   O     0.20625   0.77322   0.75000   0.00000  Uiso   1.00
O894   O     0.14640   0.83334   0.67451   0.00000  Uiso   1.00
O895   O     0.22559   0.83335   0.67451   0.00000  Uiso   1.00
Br896  Br    0.30312   0.77146   0.66791   0.00000  Uiso   1.00
C897   C     0.49994   0.91262   0.75009   0.00000  Uiso   1.00
C898   C     0.48216   0.81286   0.98739   0.00000  Uiso   1.00
C899   C     0.49737   0.81301   0.93227   0.00000  Uiso   1.00
C900   C     0.51771   0.81926   0.51415   0.00000  Uiso   1.00
C901   C     0.56772   0.82271   0.98549   0.00000  Uiso   1.00
C902   C     0.58248   0.81494   0.93242   0.00000  Uiso   1.00
C903   C     0.54794   0.80821   0.90664   0.00000  Uiso   1.00
C904   C     0.50510   0.82400   0.56826   0.00000  Uiso   1.00
C905   C     0.58958   0.83654   0.56412   0.00000  Uiso   1.00
C906   C     0.46141   0.81729   0.90525   0.00000  Uiso   1.00
C907   C     0.54180   0.97861   0.75212   0.00000  Uiso   1.00
C908   C     0.47455   0.82836   0.84945   0.00000  Uiso   1.00
C909   C     0.54185   0.68785   0.75210   0.00000  Uiso   1.00
C910   C     0.50003   0.70942   0.75005   0.00000  Uiso   1.00
C911   C     0.45813   0.68807   0.74812   0.00000  Uiso   1.00
C912   C     0.45807   0.97883   0.74819   0.00000  Uiso   1.00
C913   C     0.49991   0.95725   0.75014   0.00000  Uiso   1.00
C914   C     0.63253   0.85818   0.78339   0.00000  Uiso   1.00
C915   C     0.34874   0.85811   0.78344   0.00000  Uiso   1.00
C916   C     0.36778   0.80854   0.71674   0.00000  Uiso   1.00
C917   C     0.65182   0.80833   0.71658   0.00000  Uiso   1.00
C918   C     0.50004   0.75405   0.74998   0.00000  Uiso   1.00
C919   C     0.52600   0.83338   0.65009   0.00000  Uiso   1.00
C920   C     0.60274   0.83279   0.51035   0.00000  Uiso   1.00
C921   C     0.54077   0.83146   0.59333   0.00000  Uiso   1.00
C922   C     0.41209   0.81121   0.93259   0.00000  Uiso   1.00
C923   C     0.39832   0.80332   0.98561   0.00000  Uiso   1.00
C924   C     0.43226   0.80587   0.51323   0.00000  Uiso   1.00
Cu925  Cu    0.45311   0.83333   0.75000   0.00000  Uiso   1.00
Cu926  Cu    0.54689   0.83334   0.75000   0.00000  Uiso   1.00
H927   H     0.61745   0.84346   0.58273   0.00000  Uiso   1.00
H928   H     0.57454   0.70376   0.75378   0.00000  Uiso   1.00
H929   H     0.42543   0.70416   0.74648   0.00000  Uiso   1.00
H930   H     0.42533   0.96290   0.74663   0.00000  Uiso   1.00
H931   H     0.60645   0.87810   0.81017   0.00000  Uiso   1.00
H932   H     0.35988   0.87799   0.81026   0.00000  Uiso   1.00
H933   H     0.39420   0.78867   0.69023   0.00000  Uiso   1.00
H934   H     0.62095   0.81365   0.91075   0.00000  Uiso   1.00
H935   H     0.64017   0.83808   0.98785   0.00000  Uiso   1.00
H936   H     0.46760   0.82230   0.59176   0.00000  Uiso   1.00
H937   H     0.38417   0.81181   0.91283   0.00000  Uiso   1.00
H938   H     0.41848   0.80084   0.55447   0.00000  Uiso   1.00
H939   H     0.36090   0.79595   0.50608   0.00000  Uiso   1.00
H940   H     0.56222   0.79772   0.86702   0.00000  Uiso   1.00
H941   H     0.57450   0.96252   0.75376   0.00000  Uiso   1.00
N942   N     0.38265   0.83332   0.74999   0.00000  Uiso   1.00
N943   N     0.61735   0.83335   0.75000   0.00000  Uiso   1.00
O944   O     0.46042   0.89345   0.75001   0.00000  Uiso   1.00
O945   O     0.53961   0.89346   0.75001   0.00000  Uiso   1.00
O946   O     0.44108   0.83332   0.82549   0.00000  Uiso   1.00
O947   O     0.52027   0.83333   0.82549   0.00000  Uiso   1.00
O948   O     0.46039   0.77321   0.75000   0.00000  Uiso   1.00
O949   O     0.53958   0.77322   0.75000   0.00000  Uiso   1.00
O950   O     0.47973   0.83334   0.67451   0.00000  Uiso   1.00
O951   O     0.55892   0.83335   0.67451   0.00000  Uiso   1.00
Br952  Br    0.63645   0.77146   0.66791   0.00000  Uiso   1.00
C953   C     0.83328   0.91262   0.75009   0.00000  Uiso   1.00
C954   C     0.81549   0.81286   0.98739   0.00000  Uiso   1.00
C955   C     0.83070   0.81301   0.93227   0.00000  Uiso   1.00
C956   C     0.85104   0.81926   0.51415   0.00000  Uiso   1.00
C957   C     0.90105   0.82271   0.98549   0.00000  Uiso   1.00
C958   C     0.91582   0.81494   0.93242   0.00000  Uiso   1.00
C959   C     0.88127   0.80821   0.90664   0.00000  Uiso   1.00
C960   C     0.83843   0.82400   0.56826   0.00000  Uiso   1.00
C961   C     0.92292   0.83654   0.56412   0.00000  Uiso   1.00
C962   C     0.79474   0.81729   0.90525   0.00000  Uiso   1.00
C963   C     0.87513   0.97861   0.75212   0.00000  Uiso   1.00
C964   C     0.80788   0.82836   0.84945   0.00000  Uiso   1.00
C965   C     0.87518   0.68785   0.75210   0.00000  Uiso   1.00
C966   C     0.83337   0.70942   0.75005   0.00000  Uiso   1.00
C967   C     0.79147   0.68807   0.74812   0.00000  Uiso   1.00
C968   C     0.79140   0.97883   0.74819   0.00000  Uiso   1.00
C969   C     0.83325   0.95725   0.75014   0.00000  Uiso   1.00
C970   C     0.96586   0.85818   0.78339   0.00000  Uiso   1.00
C971   C     0.68208   0.85811   0.78344   0.00000  Uiso   1.00
C972   C     0.70112   0.80854   0.71674   0.00000  Uiso   1.00
C973   C     0.98515   0.80833   0.71658   0.00000  Uiso   1.00
C974   C     0.83337   0.75405   0.74998   0.00000  Uiso   1.00
C975   C     0.85933   0.83338   0.65009   0.00000  Uiso   1.00
C976   C     0.93607   0.83279   0.51035   0.00000  Uiso   1.00
C977   C     0.87410   0.83146   0.59333   0.00000  Uiso   1.00
C978   C     0.74542   0.81121   0.93259   0.00000  Uiso   1.00
C979   C     0.73165   0.80332   0.98561   0.00000  Uiso   1.00
C980   C     0.76559   0.80587   0.51323   0.00000  Uiso   1.00
Cu981  Cu    0.78645   0.83333   0.75000   0.00000  Uiso   1.00
Cu982  Cu    0.88022   0.83334   0.75000   0.00000  Uiso   1.00
H983   H     0.95079   0.84346   0.58273   0.00000  Uiso   1.00
H984   H     0.90788   0.70376   0.75378   0.00000  Uiso   1.00
H985   H     0.75877   0.70416   0.74648   0.00000  Uiso   1.00
H986   H     0.75867   0.96290   0.74663   0.00000  Uiso   1.00
H987   H     0.93978   0.87810   0.81017   0.00000  Uiso   1.00
H988   H     0.69321   0.87799   0.81026   0.00000  Uiso   1.00
H989   H     0.72754   0.78867   0.69023   0.00000  Uiso   1.00
H990   H     0.95428   0.81365   0.91075   0.00000  Uiso   1.00
H991   H     0.97350   0.83808   0.98785   0.00000  Uiso   1.00
H992   H     0.80093   0.82230   0.59176   0.00000  Uiso   1.00
H993   H     0.71750   0.81181   0.91283   0.00000  Uiso   1.00
H994   H     0.75181   0.80084   0.55447   0.00000  Uiso   1.00
H995   H     0.69423   0.79595   0.50608   0.00000  Uiso   1.00
H996   H     0.89555   0.79772   0.86702   0.00000  Uiso   1.00
H997   H     0.90783   0.96252   0.75376   0.00000  Uiso   1.00
N998   N     0.71598   0.83332   0.74999   0.00000  Uiso   1.00
N999   N     0.95069   0.83335   0.75000   0.00000  Uiso   1.00
O1000  O     0.79375   0.89345   0.75001   0.00000  Uiso   1.00
O1001  O     0.87294   0.89346   0.75001   0.00000  Uiso   1.00
O1002  O     0.77441   0.83332   0.82549   0.00000  Uiso   1.00
O1003  O     0.85360   0.83333   0.82549   0.00000  Uiso   1.00
O1004  O     0.79373   0.77321   0.75000   0.00000  Uiso   1.00
O1005  O     0.87292   0.77322   0.75000   0.00000  Uiso   1.00
O1006  O     0.81306   0.83334   0.67451   0.00000  Uiso   1.00
O1007  O     0.89225   0.83335   0.67451   0.00000  Uiso   1.00
Br1008 Br    0.96978   0.77146   0.66791   0.00000  Uiso   1.00
loop_
_geom_bond_atom_site_label_1
_geom_bond_atom_site_label_2
_geom_bond_distance
_geom_bond_site_symmetry_2
_ccdc_geom_bond_type
C1     C17     1.450   .     S
C1     O48     1.294   .     A
C1     O49     1.293   .     A
C2     C3      1.419   .     A
C2     C508    1.424   .     S
C2     C532    1.413   .     S
C3     C10     1.432   .     A
C3     C7      1.416   .     A
C4     C8      1.401   .     A
C4     C506    1.424   1_554 S
C4     C509    1.418   1_554 S
C5     C6      1.387   .     A
C5     C508    1.418   .     S
C5     C528    1.398   .     S
C6     H38     1.085   .     S
C6     C7      1.382   .     A
C7     H44     1.076   .     S
C8     C25     1.401   .     A
C8     H40     1.076   .     S
C9     C24     1.389   .     A
C9     C25     1.398   .     A
C9     H31     1.083   .     S
C10    C26     1.403   .     A
C10    C12     1.485   .     S
C11    H45     1.083   .     S
C11    C17     1.402   .     A
C11    C181    1.383   .     S
C12    O50     1.313   .     A
C12    O51     1.289   .     A
C13    H32     1.083   .     S
C13    C14     1.401   .     A
C13    C347    1.383   1_545 S
C14    C22     1.450   .     S
C14    C15     1.402   .     A
C15    H33     1.083   .     S
C15    C352    1.384   1_545 S
C16    H34     1.083   .     S
C16    C17     1.401   .     A
C16    C183    1.384   .     S
C18    H35     1.082   .     S
C18    N47     1.367   .     A
C18    C75     1.419   .     S
C19    N46     1.368   .     A
C19    H36     1.082   .     S
C19    C130    1.419   1_455 S
C20    H37     1.082   .     S
C20    N46     1.359   .     A
C20    C133    1.413   1_455 S
C21    Br56    1.914   .     S
C21    N47     1.381   .     A
C21    C76     1.413   .     S
C22    O53     1.294   .     A
C22    O52     1.293   .     A
C23    O55     1.298   .     A
C23    C25     1.462   .     S
C23    O54     1.294   .     A
C24    C509    1.398   1_554 S
C24    H543    1.080   1_554 S
C26    C27     1.391   .     A
C26    H41     1.083   .     S
C27    C532    1.389   .     S
C27    H547    1.079   .     S
C28    H42     1.078   .     S
C28    C531    1.389   1_554 S
C28    C506    1.413   1_554 S
Cu29   N46     2.018   .     S
Cu29   Cu30    2.685   .     S
Cu29   O50     1.959   .     S
Cu29   O54     1.950   .     S
Cu29   O48     1.965   .     S
Cu29   O52     1.964   .     S
Cu30   O51     1.950   .     S
Cu30   O49     1.964   .     S
Cu30   O53     1.965   .     S
Cu30   N47     2.017   .     S
Cu30   O55     1.959   .     S
H39    C528    1.080   .     S
H43    C531    1.079   1_554 S
C57    C73     1.450   .     S
C57    O104    1.294   .     A
C57    O105    1.293   .     A
C58    C59     1.419   .     A
C58    C564    1.424   .     S
C58    C588    1.413   .     S
C59    C66     1.432   .     A
C59    C63     1.416   .     A
C60    C64     1.401   .     A
C60    C562    1.424   1_554 S
C60    C565    1.418   1_554 S
C61    C62     1.387   .     A
C61    C564    1.418   .     S
C61    C584    1.398   .     S
C62    H94     1.085   .     S
C62    C63     1.382   .     A
C63    H100    1.076   .     S
C64    C81     1.401   .     A
C64    H96     1.076   .     S
C65    C80     1.389   .     A
C65    C81     1.398   .     A
C65    H87     1.083   .     S
C66    C82     1.403   .     A
C66    C68     1.485   .     S
C67    H101    1.083   .     S
C67    C73     1.402   .     A
C67    C237    1.383   .     S
C68    O106    1.313   .     A
C68    O107    1.289   .     A
C69    H88     1.083   .     S
C69    C70     1.401   .     A
C69    C403    1.383   1_545 S
C70    C78     1.450   .     S
C70    C71     1.402   .     A
C71    H89     1.083   .     S
C71    C408    1.384   1_545 S
C72    H90     1.083   .     S
C72    C73     1.401   .     A
C72    C239    1.384   .     S
C74    H91     1.082   .     S
C74    N103    1.367   .     A
C74    C131    1.419   .     S
C75    N102    1.368   .     A
C75    H92     1.082   .     S
C76    H93     1.082   .     S
C76    N102    1.359   .     A
C77    Br112   1.914   .     S
C77    N103    1.381   .     A
C77    C132    1.413   .     S
C78    O109    1.294   .     A
C78    O108    1.293   .     A
C79    O111    1.298   .     A
C79    C81     1.462   .     S
C79    O110    1.294   .     A
C80    C565    1.398   1_554 S
C80    H599    1.080   1_554 S
C82    C83     1.391   .     A
C82    H97     1.083   .     S
C83    C588    1.389   .     S
C83    H603    1.079   .     S
C84    H98     1.078   .     S
C84    C587    1.389   1_554 S
C84    C562    1.413   1_554 S
Cu85   N102    2.018   .     S
Cu85   Cu86    2.685   .     S
Cu85   O106    1.959   .     S
Cu85   O110    1.950   .     S
Cu85   O104    1.965   .     S
Cu85   O108    1.964   .     S
Cu86   O107    1.950   .     S
Cu86   O105    1.964   .     S
Cu86   O109    1.965   .     S
Cu86   N103    2.017   .     S
Cu86   O111    1.959   .     S
H95    C584    1.080   .     S
H99    C587    1.079   1_554 S
C113   C129    1.450   .     S
C113   O160    1.294   .     A
C113   O161    1.293   .     A
C114   C115    1.419   .     A
C114   C620    1.424   .     S
C114   C644    1.413   .     S
C115   C122    1.432   .     A
C115   C119    1.416   .     A
C116   C120    1.401   .     A
C116   C618    1.424   1_554 S
C116   C621    1.418   1_554 S
C117   C118    1.387   .     A
C117   C620    1.418   .     S
C117   C640    1.398   .     S
C118   H150    1.085   .     S
C118   C119    1.382   .     A
C119   H156    1.076   .     S
C120   C137    1.401   .     A
C120   H152    1.076   .     S
C121   C136    1.389   .     A
C121   C137    1.398   .     A
C121   H143    1.083   .     S
C122   C138    1.403   .     A
C122   C124    1.485   .     S
C123   H157    1.083   .     S
C123   C129    1.402   .     A
C123   C293    1.383   .     S
C124   O162    1.313   .     A
C124   O163    1.289   .     A
C125   H144    1.083   .     S
C125   C126    1.401   .     A
C125   C459    1.383   1_545 S
C126   C134    1.450   .     S
C126   C127    1.402   .     A
C127   H145    1.083   .     S
C127   C464    1.384   1_545 S
C128   H146    1.083   .     S
C128   C129    1.401   .     A
C128   C295    1.384   .     S
C130   H147    1.082   .     S
C130   N159    1.367   .     A
C130   C19     1.419   1_655 S
C131   N158    1.368   .     A
C131   H148    1.082   .     S
C132   H149    1.082   .     S
C132   N158    1.359   .     A
C133   Br168   1.914   .     S
C133   N159    1.381   .     A
C133   C20     1.413   1_655 S
C134   O165    1.294   .     A
C134   O164    1.293   .     A
C135   O167    1.298   .     A
C135   C137    1.462   .     S
C135   O166    1.294   .     A
C136   C621    1.398   1_554 S
C136   H655    1.080   1_554 S
C138   C139    1.391   .     A
C138   H153    1.083   .     S
C139   C644    1.389   .     S
C139   H659    1.079   .     S
C140   H154    1.078   .     S
C140   C643    1.389   1_554 S
C140   C618    1.413   1_554 S
Cu141  N158    2.018   .     S
Cu141  Cu142   2.685   .     S
Cu141  O162    1.959   .     S
Cu141  O166    1.950   .     S
Cu141  O160    1.965   .     S
Cu141  O164    1.964   .     S
Cu142  O163    1.950   .     S
Cu142  O161    1.964   .     S
Cu142  O165    1.965   .     S
Cu142  N159    2.017   .     S
Cu142  O167    1.959   .     S
H151   C640    1.080   .     S
H155   C643    1.079   1_554 S
C169   C185    1.450   .     S
C169   O216    1.294   .     A
C169   O217    1.293   .     A
C170   C171    1.419   .     A
C170   C676    1.424   .     S
C170   C700    1.413   .     S
C171   C178    1.432   .     A
C171   C175    1.416   .     A
C172   C176    1.401   .     A
C172   C674    1.424   1_554 S
C172   C677    1.418   1_554 S
C173   C174    1.387   .     A
C173   C676    1.418   .     S
C173   C696    1.398   .     S
C174   H206    1.085   .     S
C174   C175    1.382   .     A
C175   H212    1.076   .     S
C176   C193    1.401   .     A
C176   H208    1.076   .     S
C177   C192    1.389   .     A
C177   C193    1.398   .     A
C177   H199    1.083   .     S
C178   C194    1.403   .     A
C178   C180    1.485   .     S
C179   H213    1.083   .     S
C179   C185    1.402   .     A
C179   C349    1.383   .     S
C180   O218    1.313   .     A
C180   O219    1.289   .     A
C181   H200    1.083   .     S
C181   C182    1.401   .     A
C182   C190    1.450   .     S
C182   C183    1.402   .     A
C183   H201    1.083   .     S
C184   H202    1.083   .     S
C184   C185    1.401   .     A
C184   C351    1.384   .     S
C186   H203    1.082   .     S
C186   N215    1.367   .     A
C186   C243    1.419   .     S
C187   N214    1.368   .     A
C187   H204    1.082   .     S
C187   C298    1.419   1_455 S
C188   H205    1.082   .     S
C188   N214    1.359   .     A
C188   C301    1.413   1_455 S
C189   Br224   1.914   .     S
C189   N215    1.381   .     A
C189   C244    1.413   .     S
C190   O221    1.294   .     A
C190   O220    1.293   .     A
C191   O223    1.298   .     A
C191   C193    1.462   .     S
C191   O222    1.294   .     A
C192   C677    1.398   1_554 S
C192   H711    1.080   1_554 S
C194   C195    1.391   .     A
C194   H209    1.083   .     S
C195   C700    1.389   .     S
C195   H715    1.079   .     S
C196   H210    1.078   .     S
C196   C699    1.389   1_554 S
C196   C674    1.413   1_554 S
Cu197  N214    2.018   .     S
Cu197  Cu198   2.685   .     S
Cu197  O218    1.959   .     S
Cu197  O222    1.950   .     S
Cu197  O216    1.965   .     S
Cu197  O220    1.964   .     S
Cu198  O219    1.950   .     S
Cu198  O217    1.964   .     S
Cu198  O221    1.965   .     S
Cu198  N215    2.017   .     S
Cu198  O223    1.959   .     S
H207   C696    1.080   .     S
H211   C699    1.079   1_554 S
C225   C241    1.450   .     S
C225   O272    1.294   .     A
C225   O273    1.293   .     A
C226   C227    1.419   .     A
C226   C732    1.424   .     S
C226   C756    1.413   .     S
C227   C234    1.432   .     A
C227   C231    1.416   .     A
C228   C232    1.401   .     A
C228   C730    1.424   1_554 S
C228   C733    1.418   1_554 S
C229   C230    1.387   .     A
C229   C732    1.418   .     S
C229   C752    1.398   .     S
C230   H262    1.085   .     S
C230   C231    1.382   .     A
C231   H268    1.076   .     S
C232   C249    1.401   .     A
C232   H264    1.076   .     S
C233   C248    1.389   .     A
C233   C249    1.398   .     A
C233   H255    1.083   .     S
C234   C250    1.403   .     A
C234   C236    1.485   .     S
C235   H269    1.083   .     S
C235   C241    1.402   .     A
C235   C405    1.383   .     S
C236   O274    1.313   .     A
C236   O275    1.289   .     A
C237   H256    1.083   .     S
C237   C238    1.401   .     A
C238   C246    1.450   .     S
C238   C239    1.402   .     A
C239   H257    1.083   .     S
C240   H258    1.083   .     S
C240   C241    1.401   .     A
C240   C407    1.384   .     S
C242   H259    1.082   .     S
C242   N271    1.367   .     A
C242   C299    1.419   .     S
C243   N270    1.368   .     A
C243   H260    1.082   .     S
C244   H261    1.082   .     S
C244   N270    1.359   .     A
C245   Br280   1.914   .     S
C245   N271    1.381   .     A
C245   C300    1.413   .     S
C246   O277    1.294   .     A
C246   O276    1.293   .     A
C247   O279    1.298   .     A
C247   C249    1.462   .     S
C247   O278    1.294   .     A
C248   C733    1.398   1_554 S
C248   H767    1.080   1_554 S
C250   C251    1.391   .     A
C250   H265    1.083   .     S
C251   C756    1.389   .     S
C251   H771    1.079   .     S
C252   H266    1.078   .     S
C252   C755    1.389   1_554 S
C252   C730    1.413   1_554 S
Cu253  N270    2.018   .     S
Cu253  Cu254   2.685   .     S
Cu253  O274    1.959   .     S
Cu253  O278    1.950   .     S
Cu253  O272    1.965   .     S
Cu253  O276    1.964   .     S
Cu254  O275    1.950   .     S
Cu254  O273    1.964   .     S
Cu254  O277    1.965   .     S
Cu254  N271    2.017   .     S
Cu254  O279    1.959   .     S
H263   C752    1.080   .     S
H267   C755    1.079   1_554 S
C281   C297    1.450   .     S
C281   O328    1.294   .     A
C281   O329    1.293   .     A
C282   C283    1.419   .     A
C282   C788    1.424   .     S
C282   C812    1.413   .     S
C283   C290    1.432   .     A
C283   C287    1.416   .     A
C284   C288    1.401   .     A
C284   C786    1.424   1_554 S
C284   C789    1.418   1_554 S
C285   C286    1.387   .     A
C285   C788    1.418   .     S
C285   C808    1.398   .     S
C286   H318    1.085   .     S
C286   C287    1.382   .     A
C287   H324    1.076   .     S
C288   C305    1.401   .     A
C288   H320    1.076   .     S
C289   C304    1.389   .     A
C289   C305    1.398   .     A
C289   H311    1.083   .     S
C290   C306    1.403   .     A
C290   C292    1.485   .     S
C291   H325    1.083   .     S
C291   C297    1.402   .     A
C291   C461    1.383   .     S
C292   O330    1.313   .     A
C292   O331    1.289   .     A
C293   H312    1.083   .     S
C293   C294    1.401   .     A
C294   C302    1.450   .     S
C294   C295    1.402   .     A
C295   H313    1.083   .     S
C296   H314    1.083   .     S
C296   C297    1.401   .     A
C296   C463    1.384   .     S
C298   H315    1.082   .     S
C298   N327    1.367   .     A
C298   C187    1.419   1_655 S
C299   N326    1.368   .     A
C299   H316    1.082   .     S
C300   H317    1.082   .     S
C300   N326    1.359   .     A
C301   Br336   1.914   .     S
C301   N327    1.381   .     A
C301   C188    1.413   1_655 S
C302   O333    1.294   .     A
C302   O332    1.293   .     A
C303   O335    1.298   .     A
C303   C305    1.462   .     S
C303   O334    1.294   .     A
C304   C789    1.398   1_554 S
C304   H823    1.080   1_554 S
C306   C307    1.391   .     A
C306   H321    1.083   .     S
C307   C812    1.389   .     S
C307   H827    1.079   .     S
C308   H322    1.078   .     S
C308   C811    1.389   1_554 S
C308   C786    1.413   1_554 S
Cu309  N326    2.018   .     S
Cu309  Cu310   2.685   .     S
Cu309  O330    1.959   .     S
Cu309  O334    1.950   .     S
Cu309  O328    1.965   .     S
Cu309  O332    1.964   .     S
Cu310  O331    1.950   .     S
Cu310  O329    1.964   .     S
Cu310  O333    1.965   .     S
Cu310  N327    2.017   .     S
Cu310  O335    1.959   .     S
H319   C808    1.080   .     S
H323   C811    1.079   1_554 S
C337   C353    1.450   .     S
C337   O384    1.294   .     A
C337   O385    1.293   .     A
C338   C339    1.419   .     A
C338   C844    1.424   .     S
C338   C868    1.413   .     S
C339   C346    1.432   .     A
C339   C343    1.416   .     A
C340   C344    1.401   .     A
C340   C842    1.424   1_554 S
C340   C845    1.418   1_554 S
C341   C342    1.387   .     A
C341   C844    1.418   .     S
C341   C864    1.398   .     S
C342   H374    1.085   .     S
C342   C343    1.382   .     A
C343   H380    1.076   .     S
C344   C361    1.401   .     A
C344   H376    1.076   .     S
C345   C360    1.389   .     A
C345   C361    1.398   .     A
C345   H367    1.083   .     S
C346   C362    1.403   .     A
C346   C348    1.485   .     S
C347   H381    1.083   .     S
C347   C353    1.402   .     A
C347   C13     1.383   1_565 S
C348   O386    1.313   .     A
C348   O387    1.289   .     A
C349   H368    1.083   .     S
C349   C350    1.401   .     A
C350   C358    1.450   .     S
C350   C351    1.402   .     A
C351   H369    1.083   .     S
C352   H370    1.083   .     S
C352   C353    1.401   .     A
C352   C15     1.384   1_565 S
C354   H371    1.082   .     S
C354   N383    1.367   .     A
C354   C411    1.419   .     S
C355   N382    1.368   .     A
C355   H372    1.082   .     S
C355   C466    1.419   1_455 S
C356   H373    1.082   .     S
C356   N382    1.359   .     A
C356   C469    1.413   1_455 S
C357   Br392   1.914   .     S
C357   N383    1.381   .     A
C357   C412    1.413   .     S
C358   O389    1.294   .     A
C358   O388    1.293   .     A
C359   O391    1.298   .     A
C359   C361    1.462   .     S
C359   O390    1.294   .     A
C360   C845    1.398   1_554 S
C360   H879    1.080   1_554 S
C362   C363    1.391   .     A
C362   H377    1.083   .     S
C363   C868    1.389   .     S
C363   H883    1.079   .     S
C364   H378    1.078   .     S
C364   C867    1.389   1_554 S
C364   C842    1.413   1_554 S
Cu365  N382    2.018   .     S
Cu365  Cu366   2.685   .     S
Cu365  O386    1.959   .     S
Cu365  O390    1.950   .     S
Cu365  O384    1.965   .     S
Cu365  O388    1.964   .     S
Cu366  O387    1.950   .     S
Cu366  O385    1.964   .     S
Cu366  O389    1.965   .     S
Cu366  N383    2.017   .     S
Cu366  O391    1.959   .     S
H375   C864    1.080   .     S
H379   C867    1.079   1_554 S
C393   C409    1.450   .     S
C393   O440    1.294   .     A
C393   O441    1.293   .     A
C394   C395    1.419   .     A
C394   C900    1.424   .     S
C394   C924    1.413   .     S
C395   C402    1.432   .     A
C395   C399    1.416   .     A
C396   C400    1.401   .     A
C396   C898    1.424   1_554 S
C396   C901    1.418   1_554 S
C397   C398    1.387   .     A
C397   C900    1.418   .     S
C397   C920    1.398   .     S
C398   H430    1.085   .     S
C398   C399    1.382   .     A
C399   H436    1.076   .     S
C400   C417    1.401   .     A
C400   H432    1.076   .     S
C401   C416    1.389   .     A
C401   C417    1.398   .     A
C401   H423    1.083   .     S
C402   C418    1.403   .     A
C402   C404    1.485   .     S
C403   H437    1.083   .     S
C403   C409    1.402   .     A
C403   C69     1.383   1_565 S
C404   O442    1.313   .     A
C404   O443    1.289   .     A
C405   H424    1.083   .     S
C405   C406    1.401   .     A
C406   C414    1.450   .     S
C406   C407    1.402   .     A
C407   H425    1.083   .     S
C408   H426    1.083   .     S
C408   C409    1.401   .     A
C408   C71     1.384   1_565 S
C410   H427    1.082   .     S
C410   N439    1.367   .     A
C410   C467    1.419   .     S
C411   N438    1.368   .     A
C411   H428    1.082   .     S
C412   H429    1.082   .     S
C412   N438    1.359   .     A
C413   Br448   1.914   .     S
C413   N439    1.381   .     A
C413   C468    1.413   .     S
C414   O445    1.294   .     A
C414   O444    1.293   .     A
C415   O447    1.298   .     A
C415   C417    1.462   .     S
C415   O446    1.294   .     A
C416   C901    1.398   1_554 S
C416   H935    1.080   1_554 S
C418   C419    1.391   .     A
C418   H433    1.083   .     S
C419   C924    1.389   .     S
C419   H939    1.079   .     S
C420   H434    1.078   .     S
C420   C923    1.389   1_554 S
C420   C898    1.413   1_554 S
Cu421  N438    2.018   .     S
Cu421  Cu422   2.685   .     S
Cu421  O442    1.959   .     S
Cu421  O446    1.950   .     S
Cu421  O440    1.965   .     S
Cu421  O444    1.964   .     S
Cu422  O443    1.950   .     S
Cu422  O441    1.964   .     S
Cu422  O445    1.965   .     S
Cu422  N439    2.017   .     S
Cu422  O447    1.959   .     S
H431   C920    1.080   .     S
H435   C923    1.079   1_554 S
C449   C465    1.450   .     S
C449   O496    1.294   .     A
C449   O497    1.293   .     A
C450   C451    1.419   .     A
C450   C956    1.424   .     S
C450   C980    1.413   .     S
C451   C458    1.432   .     A
C451   C455    1.416   .     A
C452   C456    1.401   .     A
C452   C954    1.424   1_554 S
C452   C957    1.418   1_554 S
C453   C454    1.387   .     A
C453   C956    1.418   .     S
C453   C976    1.398   .     S
C454   H486    1.085   .     S
C454   C455    1.382   .     A
C455   H492    1.076   .     S
C456   C473    1.401   .     A
C456   H488    1.076   .     S
C457   C472    1.389   .     A
C457   C473    1.398   .     A
C457   H479    1.083   .     S
C458   C474    1.403   .     A
C458   C460    1.485   .     S
C459   H493    1.083   .     S
C459   C465    1.402   .     A
C459   C125    1.383   1_565 S
C460   O498    1.313   .     A
C460   O499    1.289   .     A
C461   H480    1.083   .     S
C461   C462    1.401   .     A
C462   C470    1.450   .     S
C462   C463    1.402   .     A
C463   H481    1.083   .     S
C464   H482    1.083   .     S
C464   C465    1.401   .     A
C464   C127    1.384   1_565 S
C466   H483    1.082   .     S
C466   N495    1.367   .     A
C466   C355    1.419   1_655 S
C467   N494    1.368   .     A
C467   H484    1.082   .     S
C468   H485    1.082   .     S
C468   N494    1.359   .     A
C469   Br504   1.914   .     S
C469   N495    1.381   .     A
C469   C356    1.413   1_655 S
C470   O501    1.294   .     A
C470   O500    1.293   .     A
C471   O503    1.298   .     A
C471   C473    1.462   .     S
C471   O502    1.294   .     A
C472   C957    1.398   1_554 S
C472   H991    1.080   1_554 S
C474   C475    1.391   .     A
C474   H489    1.083   .     S
C475   C980    1.389   .     S
C475   H995    1.079   .     S
C476   H490    1.078   .     S
C476   C979    1.389   1_554 S
C476   C954    1.413   1_554 S
Cu477  N494    2.018   .     S
Cu477  Cu478   2.685   .     S
Cu477  O498    1.959   .     S
Cu477  O502    1.950   .     S
Cu477  O496    1.965   .     S
Cu477  O500    1.964   .     S
Cu478  O499    1.950   .     S
Cu478  O497    1.964   .     S
Cu478  O501    1.965   .     S
Cu478  N495    2.017   .     S
Cu478  O503    1.959   .     S
H487   C976    1.080   .     S
H491   C979    1.079   1_554 S
C505   C521    1.450   .     S
C505   O552    1.294   .     A
C505   O553    1.293   .     A
C506   C507    1.419   .     A
C506   C4      1.424   1_556 S
C506   C28     1.413   1_556 S
C507   C514    1.432   .     A
C507   C511    1.416   .     A
C508   C512    1.401   .     A
C509   C510    1.387   .     A
C509   C4      1.418   1_556 S
C509   C24     1.398   1_556 S
C510   H542    1.085   .     S
C510   C511    1.382   .     A
C511   H548    1.076   .     S
C512   C529    1.401   .     A
C512   H544    1.076   .     S
C513   C528    1.389   .     A
C513   C529    1.398   .     A
C513   H535    1.083   .     S
C514   C530    1.403   .     A
C514   C516    1.485   .     S
C515   H549    1.083   .     S
C515   C521    1.402   .     A
C515   C685    1.383   .     S
C516   O554    1.313   .     A
C516   O555    1.289   .     A
C517   H536    1.083   .     S
C517   C518    1.401   .     A
C517   C851    1.383   1_545 S
C518   C526    1.450   .     S
C518   C519    1.402   .     A
C519   H537    1.083   .     S
C519   C856    1.384   1_545 S
C520   H538    1.083   .     S
C520   C521    1.401   .     A
C520   C687    1.384   .     S
C522   H539    1.082   .     S
C522   N551    1.367   .     A
C522   C579    1.419   .     S
C523   N550    1.368   .     A
C523   H540    1.082   .     S
C523   C634    1.419   1_455 S
C524   H541    1.082   .     S
C524   N550    1.359   .     A
C524   C637    1.413   1_455 S
C525   Br560   1.914   .     S
C525   N551    1.381   .     A
C525   C580    1.413   .     S
C526   O557    1.294   .     A
C526   O556    1.293   .     A
C527   O559    1.298   .     A
C527   C529    1.462   .     S
C527   O558    1.294   .     A
C530   C531    1.391   .     A
C530   H545    1.083   .     S
C531   C28     1.389   1_556 S
C531   H43     1.079   1_556 S
C532   H546    1.078   .     S
Cu533  N550    2.018   .     S
Cu533  Cu534   2.685   .     S
Cu533  O554    1.959   .     S
Cu533  O558    1.950   .     S
Cu533  O552    1.965   .     S
Cu533  O556    1.964   .     S
Cu534  O555    1.950   .     S
Cu534  O553    1.964   .     S
Cu534  O557    1.965   .     S
Cu534  N551    2.017   .     S
Cu534  O559    1.959   .     S
H543   C24     1.080   1_556 S
C561   C577    1.450   .     S
C561   O608    1.294   .     A
C561   O609    1.293   .     A
C562   C563    1.419   .     A
C562   C60     1.424   1_556 S
C562   C84     1.413   1_556 S
C563   C570    1.432   .     A
C563   C567    1.416   .     A
C564   C568    1.401   .     A
C565   C566    1.387   .     A
C565   C60     1.418   1_556 S
C565   C80     1.398   1_556 S
C566   H598    1.085   .     S
C566   C567    1.382   .     A
C567   H604    1.076   .     S
C568   C585    1.401   .     A
C568   H600    1.076   .     S
C569   C584    1.389   .     A
C569   C585    1.398   .     A
C569   H591    1.083   .     S
C570   C586    1.403   .     A
C570   C572    1.485   .     S
C571   H605    1.083   .     S
C571   C577    1.402   .     A
C571   C741    1.383   .     S
C572   O610    1.313   .     A
C572   O611    1.289   .     A
C573   H592    1.083   .     S
C573   C574    1.401   .     A
C573   C907    1.383   1_545 S
C574   C582    1.450   .     S
C574   C575    1.402   .     A
C575   H593    1.083   .     S
C575   C912    1.384   1_545 S
C576   H594    1.083   .     S
C576   C577    1.401   .     A
C576   C743    1.384   .     S
C578   H595    1.082   .     S
C578   N607    1.367   .     A
C578   C635    1.419   .     S
C579   N606    1.368   .     A
C579   H596    1.082   .     S
C580   H597    1.082   .     S
C580   N606    1.359   .     A
C581   Br616   1.914   .     S
C581   N607    1.381   .     A
C581   C636    1.413   .     S
C582   O613    1.294   .     A
C582   O612    1.293   .     A
C583   O615    1.298   .     A
C583   C585    1.462   .     S
C583   O614    1.294   .     A
C586   C587    1.391   .     A
C586   H601    1.083   .     S
C587   C84     1.389   1_556 S
C587   H99     1.079   1_556 S
C588   H602    1.078   .     S
Cu589  N606    2.018   .     S
Cu589  Cu590   2.685   .     S
Cu589  O610    1.959   .     S
Cu589  O614    1.950   .     S
Cu589  O608    1.965   .     S
Cu589  O612    1.964   .     S
Cu590  O611    1.950   .     S
Cu590  O609    1.964   .     S
Cu590  O613    1.965   .     S
Cu590  N607    2.017   .     S
Cu590  O615    1.959   .     S
H599   C80     1.080   1_556 S
C617   C633    1.450   .     S
C617   O664    1.294   .     A
C617   O665    1.293   .     A
C618   C619    1.419   .     A
C618   C116    1.424   1_556 S
C618   C140    1.413   1_556 S
C619   C626    1.432   .     A
C619   C623    1.416   .     A
C620   C624    1.401   .     A
C621   C622    1.387   .     A
C621   C116    1.418   1_556 S
C621   C136    1.398   1_556 S
C622   H654    1.085   .     S
C622   C623    1.382   .     A
C623   H660    1.076   .     S
C624   C641    1.401   .     A
C624   H656    1.076   .     S
C625   C640    1.389   .     A
C625   C641    1.398   .     A
C625   H647    1.083   .     S
C626   C642    1.403   .     A
C626   C628    1.485   .     S
C627   H661    1.083   .     S
C627   C633    1.402   .     A
C627   C797    1.383   .     S
C628   O666    1.313   .     A
C628   O667    1.289   .     A
C629   H648    1.083   .     S
C629   C630    1.401   .     A
C629   C963    1.383   1_545 S
C630   C638    1.450   .     S
C630   C631    1.402   .     A
C631   H649    1.083   .     S
C631   C968    1.384   1_545 S
C632   H650    1.083   .     S
C632   C633    1.401   .     A
C632   C799    1.384   .     S
C634   H651    1.082   .     S
C634   N663    1.367   .     A
C634   C523    1.419   1_655 S
C635   N662    1.368   .     A
C635   H652    1.082   .     S
C636   H653    1.082   .     S
C636   N662    1.359   .     A
C637   Br672   1.914   .     S
C637   N663    1.381   .     A
C637   C524    1.413   1_655 S
C638   O669    1.294   .     A
C638   O668    1.293   .     A
C639   O671    1.298   .     A
C639   C641    1.462   .     S
C639   O670    1.294   .     A
C642   C643    1.391   .     A
C642   H657    1.083   .     S
C643   C140    1.389   1_556 S
C643   H155    1.079   1_556 S
C644   H658    1.078   .     S
Cu645  N662    2.018   .     S
Cu645  Cu646   2.685   .     S
Cu645  O666    1.959   .     S
Cu645  O670    1.950   .     S
Cu645  O664    1.965   .     S
Cu645  O668    1.964   .     S
Cu646  O667    1.950   .     S
Cu646  O665    1.964   .     S
Cu646  O669    1.965   .     S
Cu646  N663    2.017   .     S
Cu646  O671    1.959   .     S
H655   C136    1.080   1_556 S
C673   C689    1.450   .     S
C673   O720    1.294   .     A
C673   O721    1.293   .     A
C674   C675    1.419   .     A
C674   C172    1.424   1_556 S
C674   C196    1.413   1_556 S
C675   C682    1.432   .     A
C675   C679    1.416   .     A
C676   C680    1.401   .     A
C677   C678    1.387   .     A
C677   C172    1.418   1_556 S
C677   C192    1.398   1_556 S
C678   H710    1.085   .     S
C678   C679    1.382   .     A
C679   H716    1.076   .     S
C680   C697    1.401   .     A
C680   H712    1.076   .     S
C681   C696    1.389   .     A
C681   C697    1.398   .     A
C681   H703    1.083   .     S
C682   C698    1.403   .     A
C682   C684    1.485   .     S
C683   H717    1.083   .     S
C683   C689    1.402   .     A
C683   C853    1.383   .     S
C684   O722    1.313   .     A
C684   O723    1.289   .     A
C685   H704    1.083   .     S
C685   C686    1.401   .     A
C686   C694    1.450   .     S
C686   C687    1.402   .     A
C687   H705    1.083   .     S
C688   H706    1.083   .     S
C688   C689    1.401   .     A
C688   C855    1.384   .     S
C690   H707    1.082   .     S
C690   N719    1.367   .     A
C690   C747    1.419   .     S
C691   N718    1.368   .     A
C691   H708    1.082   .     S
C691   C802    1.419   1_455 S
C692   H709    1.082   .     S
C692   N718    1.359   .     A
C692   C805    1.413   1_455 S
C693   Br728   1.914   .     S
C693   N719    1.381   .     A
C693   C748    1.413   .     S
C694   O725    1.294   .     A
C694   O724    1.293   .     A
C695   O727    1.298   .     A
C695   C697    1.462   .     S
C695   O726    1.294   .     A
C698   C699    1.391   .     A
C698   H713    1.083   .     S
C699   C196    1.389   1_556 S
C699   H211    1.079   1_556 S
C700   H714    1.078   .     S
Cu701  N718    2.018   .     S
Cu701  Cu702   2.685   .     S
Cu701  O722    1.959   .     S
Cu701  O726    1.950   .     S
Cu701  O720    1.965   .     S
Cu701  O724    1.964   .     S
Cu702  O723    1.950   .     S
Cu702  O721    1.964   .     S
Cu702  O725    1.965   .     S
Cu702  N719    2.017   .     S
Cu702  O727    1.959   .     S
H711   C192    1.080   1_556 S
C729   C745    1.450   .     S
C729   O776    1.294   .     A
C729   O777    1.293   .     A
C730   C731    1.419   .     A
C730   C228    1.424   1_556 S
C730   C252    1.413   1_556 S
C731   C738    1.432   .     A
C731   C735    1.416   .     A
C732   C736    1.401   .     A
C733   C734    1.387   .     A
C733   C228    1.418   1_556 S
C733   C248    1.398   1_556 S
C734   H766    1.085   .     S
C734   C735    1.382   .     A
C735   H772    1.076   .     S
C736   C753    1.401   .     A
C736   H768    1.076   .     S
C737   C752    1.389   .     A
C737   C753    1.398   .     A
C737   H759    1.083   .     S
C738   C754    1.403   .     A
C738   C740    1.485   .     S
C739   H773    1.083   .     S
C739   C745    1.402   .     A
C739   C909    1.383   .     S
C740   O778    1.313   .     A
C740   O779    1.289   .     A
C741   H760    1.083   .     S
C741   C742    1.401   .     A
C742   C750    1.450   .     S
C742   C743    1.402   .     A
C743   H761    1.083   .     S
C744   H762    1.083   .     S
C744   C745    1.401   .     A
C744   C911    1.384   .     S
C746   H763    1.082   .     S
C746   N775    1.367   .     A
C746   C803    1.419   .     S
C747   N774    1.368   .     A
C747   H764    1.082   .     S
C748   H765    1.082   .     S
C748   N774    1.359   .     A
C749   Br784   1.914   .     S
C749   N775    1.381   .     A
C749   C804    1.413   .     S
C750   O781    1.294   .     A
C750   O780    1.293   .     A
C751   O783    1.298   .     A
C751   C753    1.462   .     S
C751   O782    1.294   .     A
C754   C755    1.391   .     A
C754   H769    1.083   .     S
C755   C252    1.389   1_556 S
C755   H267    1.079   1_556 S
C756   H770    1.078   .     S
Cu757  N774    2.018   .     S
Cu757  Cu758   2.685   .     S
Cu757  O778    1.959   .     S
Cu757  O782    1.950   .     S
Cu757  O776    1.965   .     S
Cu757  O780    1.964   .     S
Cu758  O779    1.950   .     S
Cu758  O777    1.964   .     S
Cu758  O781    1.965   .     S
Cu758  N775    2.017   .     S
Cu758  O783    1.959   .     S
H767   C248    1.080   1_556 S
C785   C801    1.450   .     S
C785   O832    1.294   .     A
C785   O833    1.293   .     A
C786   C787    1.419   .     A
C786   C284    1.424   1_556 S
C786   C308    1.413   1_556 S
C787   C794    1.432   .     A
C787   C791    1.416   .     A
C788   C792    1.401   .     A
C789   C790    1.387   .     A
C789   C284    1.418   1_556 S
C789   C304    1.398   1_556 S
C790   H822    1.085   .     S
C790   C791    1.382   .     A
C791   H828    1.076   .     S
C792   C809    1.401   .     A
C792   H824    1.076   .     S
C793   C808    1.389   .     A
C793   C809    1.398   .     A
C793   H815    1.083   .     S
C794   C810    1.403   .     A
C794   C796    1.485   .     S
C795   H829    1.083   .     S
C795   C801    1.402   .     A
C795   C965    1.383   .     S
C796   O834    1.313   .     A
C796   O835    1.289   .     A
C797   H816    1.083   .     S
C797   C798    1.401   .     A
C798   C806    1.450   .     S
C798   C799    1.402   .     A
C799   H817    1.083   .     S
C800   H818    1.083   .     S
C800   C801    1.401   .     A
C800   C967    1.384   .     S
C802   H819    1.082   .     S
C802   N831    1.367   .     A
C802   C691    1.419   1_655 S
C803   N830    1.368   .     A
C803   H820    1.082   .     S
C804   H821    1.082   .     S
C804   N830    1.359   .     A
C805   Br840   1.914   .     S
C805   N831    1.381   .     A
C805   C692    1.413   1_655 S
C806   O837    1.294   .     A
C806   O836    1.293   .     A
C807   O839    1.298   .     A
C807   C809    1.462   .     S
C807   O838    1.294   .     A
C810   C811    1.391   .     A
C810   H825    1.083   .     S
C811   C308    1.389   1_556 S
C811   H323    1.079   1_556 S
C812   H826    1.078   .     S
Cu813  N830    2.018   .     S
Cu813  Cu814   2.685   .     S
Cu813  O834    1.959   .     S
Cu813  O838    1.950   .     S
Cu813  O832    1.965   .     S
Cu813  O836    1.964   .     S
Cu814  O835    1.950   .     S
Cu814  O833    1.964   .     S
Cu814  O837    1.965   .     S
Cu814  N831    2.017   .     S
Cu814  O839    1.959   .     S
H823   C304    1.080   1_556 S
C841   C857    1.450   .     S
C841   O888    1.294   .     A
C841   O889    1.293   .     A
C842   C843    1.419   .     A
C842   C340    1.424   1_556 S
C842   C364    1.413   1_556 S
C843   C850    1.432   .     A
C843   C847    1.416   .     A
C844   C848    1.401   .     A
C845   C846    1.387   .     A
C845   C340    1.418   1_556 S
C845   C360    1.398   1_556 S
C846   H878    1.085   .     S
C846   C847    1.382   .     A
C847   H884    1.076   .     S
C848   C865    1.401   .     A
C848   H880    1.076   .     S
C849   C864    1.389   .     A
C849   C865    1.398   .     A
C849   H871    1.083   .     S
C850   C866    1.403   .     A
C850   C852    1.485   .     S
C851   H885    1.083   .     S
C851   C857    1.402   .     A
C851   C517    1.383   1_565 S
C852   O890    1.313   .     A
C852   O891    1.289   .     A
C853   H872    1.083   .     S
C853   C854    1.401   .     A
C854   C862    1.450   .     S
C854   C855    1.402   .     A
C855   H873    1.083   .     S
C856   H874    1.083   .     S
C856   C857    1.401   .     A
C856   C519    1.384   1_565 S
C858   H875    1.082   .     S
C858   N887    1.367   .     A
C858   C915    1.419   .     S
C859   N886    1.368   .     A
C859   H876    1.082   .     S
C859   C970    1.419   1_455 S
C860   H877    1.082   .     S
C860   N886    1.359   .     A
C860   C973    1.413   1_455 S
C861   Br896   1.914   .     S
C861   N887    1.381   .     A
C861   C916    1.413   .     S
C862   O893    1.294   .     A
C862   O892    1.293   .     A
C863   O895    1.298   .     A
C863   C865    1.462   .     S
C863   O894    1.294   .     A
C866   C867    1.391   .     A
C866   H881    1.083   .     S
C867   C364    1.389   1_556 S
C867   H379    1.079   1_556 S
C868   H882    1.078   .     S
Cu869  N886    2.018   .     S
Cu869  Cu870   2.685   .     S
Cu869  O890    1.959   .     S
Cu869  O894    1.950   .     S
Cu869  O888    1.965   .     S
Cu869  O892    1.964   .     S
Cu870  O891    1.950   .     S
Cu870  O889    1.964   .     S
Cu870  O893    1.965   .     S
Cu870  N887    2.017   .     S
Cu870  O895    1.959   .     S
H879   C360    1.080   1_556 S
C897   C913    1.450   .     S
C897   O944    1.294   .     A
C897   O945    1.293   .     A
C898   C899    1.419   .     A
C898   C396    1.424   1_556 S
C898   C420    1.413   1_556 S
C899   C906    1.432   .     A
C899   C903    1.416   .     A
C900   C904    1.401   .     A
C901   C902    1.387   .     A
C901   C396    1.418   1_556 S
C901   C416    1.398   1_556 S
C902   H934    1.085   .     S
C902   C903    1.382   .     A
C903   H940    1.076   .     S
C904   C921    1.401   .     A
C904   H936    1.076   .     S
C905   C920    1.389   .     A
C905   C921    1.398   .     A
C905   H927    1.083   .     S
C906   C922    1.403   .     A
C906   C908    1.485   .     S
C907   H941    1.083   .     S
C907   C913    1.402   .     A
C907   C573    1.383   1_565 S
C908   O946    1.313   .     A
C908   O947    1.289   .     A
C909   H928    1.083   .     S
C909   C910    1.401   .     A
C910   C918    1.450   .     S
C910   C911    1.402   .     A
C911   H929    1.083   .     S
C912   H930    1.083   .     S
C912   C913    1.401   .     A
C912   C575    1.384   1_565 S
C914   H931    1.082   .     S
C914   N943    1.367   .     A
C914   C971    1.419   .     S
C915   N942    1.368   .     A
C915   H932    1.082   .     S
C916   H933    1.082   .     S
C916   N942    1.359   .     A
C917   Br952   1.914   .     S
C917   N943    1.381   .     A
C917   C972    1.413   .     S
C918   O949    1.294   .     A
C918   O948    1.293   .     A
C919   O951    1.298   .     A
C919   C921    1.462   .     S
C919   O950    1.294   .     A
C922   C923    1.391   .     A
C922   H937    1.083   .     S
C923   C420    1.389   1_556 S
C923   H435    1.079   1_556 S
C924   H938    1.078   .     S
Cu925  N942    2.018   .     S
Cu925  Cu926   2.685   .     S
Cu925  O946    1.959   .     S
Cu925  O950    1.950   .     S
Cu925  O944    1.965   .     S
Cu925  O948    1.964   .     S
Cu926  O947    1.950   .     S
Cu926  O945    1.964   .     S
Cu926  O949    1.965   .     S
Cu926  N943    2.017   .     S
Cu926  O951    1.959   .     S
H935   C416    1.080   1_556 S
C953   C969    1.450   .     S
C953   O1000   1.294   .     A
C953   O1001   1.293   .     A
C954   C955    1.419   .     A
C954   C452    1.424   1_556 S
C954   C476    1.413   1_556 S
C955   C962    1.432   .     A
C955   C959    1.416   .     A
C956   C960    1.401   .     A
C957   C958    1.387   .     A
C957   C452    1.418   1_556 S
C957   C472    1.398   1_556 S
C958   H990    1.085   .     S
C958   C959    1.382   .     A
C959   H996    1.076   .     S
C960   C977    1.401   .     A
C960   H992    1.076   .     S
C961   C976    1.389   .     A
C961   C977    1.398   .     A
C961   H983    1.083   .     S
C962   C978    1.403   .     A
C962   C964    1.485   .     S
C963   H997    1.083   .     S
C963   C969    1.402   .     A
C963   C629    1.383   1_565 S
C964   O1002   1.313   .     A
C964   O1003   1.289   .     A
C965   H984    1.083   .     S
C965   C966    1.401   .     A
C966   C974    1.450   .     S
C966   C967    1.402   .     A
C967   H985    1.083   .     S
C968   H986    1.083   .     S
C968   C969    1.401   .     A
C968   C631    1.384   1_565 S
C970   H987    1.082   .     S
C970   N999    1.367   .     A
C970   C859    1.419   1_655 S
C971   N998    1.368   .     A
C971   H988    1.082   .     S
C972   H989    1.082   .     S
C972   N998    1.359   .     A
C973   Br1008  1.914   .     S
C973   N999    1.381   .     A
C973   C860    1.413   1_655 S
C974   O1005   1.294   .     A
C974   O1004   1.293   .     A
C975   O1007   1.298   .     A
C975   C977    1.462   .     S
C975   O1006   1.294   .     A
C978   C979    1.391   .     A
C978   H993    1.083   .     S
C979   C476    1.389   1_556 S
C979   H491    1.079   1_556 S
C980   H994    1.078   .     S
Cu981  N998    2.018   .     S
Cu981  Cu982   2.685   .     S
Cu981  O1002   1.959   .     S
Cu981  O1006   1.950   .     S
Cu981  O1000   1.965   .     S
Cu981  O1004   1.964   .     S
Cu982  O1003   1.950   .     S
Cu982  O1001   1.964   .     S
Cu982  O1005   1.965   .     S
Cu982  N999    2.017   .     S
Cu982  O1007   1.959   .     S
H991   C472    1.080   1_556 S
