data_str_m1_o5_o17_pcu_sym.56
_audit_creation_date              2020-01-03
_audit_creation_method            'Materials Studio'
_symmetry_space_group_name_H-M    'P1'
_symmetry_Int_Tables_number       1
_symmetry_cell_setting            triclinic
loop_
_symmetry_equiv_pos_as_xyz
  x,y,z
_cell_length_a                    31.8465
_cell_length_b                    31.8516
_cell_length_c                    34.3932
_cell_angle_alpha                 90.0728
_cell_angle_beta                  90.0583
_cell_angle_gamma                 89.6973
loop_
_atom_site_label
_atom_site_type_symbol
_atom_site_fract_x
_atom_site_fract_y
_atom_site_fract_z
_atom_site_U_iso_or_equiv
_atom_site_adp_type
_atom_site_occupancy
C1     C     0.24982   0.00006   0.35589   0.00000  Uiso   1.00
C2     C     0.33002   0.41998   0.75000   0.00000  Uiso   1.00
C3     C     0.43108   0.21394   0.02009   0.00000  Uiso   1.00
C4     C     0.30190   0.05759   0.98003   0.00000  Uiso   1.00
C5     C     0.20592   0.43585   0.02000   0.00000  Uiso   1.00
C6     C     0.42916   0.21786   0.97890   0.00000  Uiso   1.00
C7     C     0.06256   0.29547   0.02086   0.00000  Uiso   1.00
C8     C     0.44252   0.14621   0.45773   0.00000  Uiso   1.00
C9     C     0.48066   0.12147   0.44292   0.00000  Uiso   1.00
C10    C     0.08901   0.32786   0.54344   0.00000  Uiso   1.00
C11    C     0.06999   0.36800   0.56043   0.00000  Uiso   1.00
C12    C     0.34201   0.07472   0.45730   0.00000  Uiso   1.00
C13    C     0.41996   0.16994   0.24999   0.00000  Uiso   1.00
C14    C     0.38074   0.05147   0.44197   0.00000  Uiso   1.00
C15    C     0.14695   0.44095   0.54252   0.00000  Uiso   1.00
C16    C     0.11269   0.47169   0.55568   0.00000  Uiso   1.00
C17    C     0.07155   0.34478   0.45858   0.00000  Uiso   1.00
C18    C     0.03801   0.37613   0.44514   0.00000  Uiso   1.00
C19    C     0.41943   0.16230   0.54165   0.00000  Uiso   1.00
C20    C     0.44108   0.12410   0.55990   0.00000  Uiso   1.00
C21    C     0.13881   0.45701   0.45667   0.00000  Uiso   1.00
C22    C     0.11843   0.49662   0.43975   0.00000  Uiso   1.00
C23    C     0.35580   0.05384   0.54175   0.00000  Uiso   1.00
C24    C     0.08004   0.33006   0.75001   0.00000  Uiso   1.00
C25    C     0.38141   0.01565   0.55496   0.00000  Uiso   1.00
C26    C     0.16993   0.41232   0.95714   0.00000  Uiso   1.00
C27    C     0.19156   0.37392   0.93920   0.00000  Uiso   1.00
C28    C     0.33816   0.07866   0.04375   0.00000  Uiso   1.00
C29    C     0.31883   0.11892   0.06017   0.00000  Uiso   1.00
C30    C     0.10554   0.30440   0.95839   0.00000  Uiso   1.00
C31    C     0.13113   0.26631   0.94484   0.00000  Uiso   1.00
C32    C     0.39648   0.19127   0.04207   0.00000  Uiso   1.00
C33    C     0.36256   0.22229   0.05543   0.00000  Uiso   1.00
C34    C     0.32186   0.09472   0.95858   0.00000  Uiso   1.00
C35    C     0.33001   0.41999   0.25000   0.00000  Uiso   1.00
C36    C     0.28853   0.12610   0.94471   0.00000  Uiso   1.00
C37    C     0.19208   0.39598   0.04119   0.00000  Uiso   1.00
C38    C     0.23009   0.37105   0.05602   0.00000  Uiso   1.00
C39    C     0.38868   0.20807   0.95630   0.00000  Uiso   1.00
C40    C     0.36880   0.24796   0.93945   0.00000  Uiso   1.00
C41    C     0.09191   0.32477   0.04301   0.00000  Uiso   1.00
C42    C     0.13080   0.30158   0.05809   0.00000  Uiso   1.00
C43    C     0.16999   0.08001   0.75000   0.00000  Uiso   1.00
C44    C     0.08006   0.33004   0.25001   0.00000  Uiso   1.00
C45    C     0.41994   0.16996   0.74999   0.00000  Uiso   1.00
C46    C     0.16996   0.41994   0.74999   0.00000  Uiso   1.00
C47    C     0.33004   0.08006   0.25001   0.00000  Uiso   1.00
C48    C     0.41998   0.33002   0.75000   0.00000  Uiso   1.00
C49    C     0.25019   0.00003   0.64406   0.00000  Uiso   1.00
C50    C     0.08002   0.16998   0.25000   0.00000  Uiso   1.00
C51    C     0.33006   0.08004   0.75001   0.00000  Uiso   1.00
C52    C     0.16994   0.41996   0.24999   0.00000  Uiso   1.00
C53    C     0.08001   0.16999   0.75000   0.00000  Uiso   1.00
C54    C     0.41999   0.33000   0.25000   0.00000  Uiso   1.00
C55    C     0.13830   0.38832   0.24998   0.00000  Uiso   1.00
C56    C     0.36170   0.11168   0.75001   0.00000  Uiso   1.00
C57    C     0.11166   0.13833   0.25000   0.00000  Uiso   1.00
C58    C     0.38833   0.36167   0.75000   0.00000  Uiso   1.00
C59    C     0.36168   0.11170   0.25001   0.00000  Uiso   1.00
C60    C     0.00006   0.25002   0.35595   0.00000  Uiso   1.00
C61    C     0.13832   0.38830   0.74999   0.00000  Uiso   1.00
C62    C     0.38833   0.36166   0.25000   0.00000  Uiso   1.00
C63    C     0.11167   0.13834   0.75000   0.00000  Uiso   1.00
C64    C     0.13833   0.11166   0.75000   0.00000  Uiso   1.00
C65    C     0.36166   0.38834   0.25000   0.00000  Uiso   1.00
C66    C     0.11168   0.36170   0.75001   0.00000  Uiso   1.00
C67    C     0.38832   0.13830   0.24999   0.00000  Uiso   1.00
C68    C     0.36167   0.38833   0.75000   0.00000  Uiso   1.00
C69    C     0.13833   0.11166   0.25000   0.00000  Uiso   1.00
C70    C     0.38830   0.13832   0.74998   0.00000  Uiso   1.00
C71    C    -0.00000   0.24969   0.64408   0.00000  Uiso   1.00
C72    C     0.11170   0.36168   0.25001   0.00000  Uiso   1.00
C73    C     0.02620   0.27722   0.41841   0.00000  Uiso   1.00
C74    C     0.47367   0.22244   0.58160   0.00000  Uiso   1.00
C75    C     0.21709   0.48098   0.41810   0.00000  Uiso   1.00
C76    C     0.28193   0.02028   0.58167   0.00000  Uiso   1.00
C77    C     0.47618   0.22070   0.41826   0.00000  Uiso   1.00
C78    C     0.02832   0.27424   0.58196   0.00000  Uiso   1.00
C79    C     0.27998   0.02249   0.41804   0.00000  Uiso   1.00
C80    C     0.21729   0.48151   0.58177   0.00000  Uiso   1.00
C81    C     0.27645   0.02731   0.91844   0.00000  Uiso   1.00
C82    C     0.00016   0.25005   0.85591   0.00000  Uiso   1.00
C83    C     0.22578   0.47005   0.08145   0.00000  Uiso   1.00
C84    C     0.46742   0.23123   0.91808   0.00000  Uiso   1.00
C85    C     0.03033   0.27198   0.08193   0.00000  Uiso   1.00
C86    C     0.22432   0.47279   0.91811   0.00000  Uiso   1.00
C87    C     0.27770   0.02461   0.08200   0.00000  Uiso   1.00
C88    C     0.03150   0.27100   0.91831   0.00000  Uiso   1.00
C89    C     0.46694   0.23131   0.08174   0.00000  Uiso   1.00
C90    C     0.00043   0.24961   0.39831   0.00000  Uiso   1.00
C91    C     0.00029   0.24904   0.60176   0.00000  Uiso   1.00
C92    C     0.24928   0.00056   0.39814   0.00000  Uiso   1.00
C93    C     0.49986   0.25004   0.14409   0.00000  Uiso   1.00
C94    C     0.25004   0.00026   0.60170   0.00000  Uiso   1.00
C95    C     0.25015   0.00032   0.89827   0.00000  Uiso   1.00
C96    C     0.25055   0.49836   0.10173   0.00000  Uiso   1.00
C97    C     0.49996   0.25035   0.89821   0.00000  Uiso   1.00
C98    C     0.49936   0.25050   0.10178   0.00000  Uiso   1.00
C99    C     0.47796   0.21803   0.45900   0.00000  Uiso   1.00
C100   C     0.02937   0.27496   0.54111   0.00000  Uiso   1.00
C101   C     0.28036   0.02392   0.45891   0.00000  Uiso   1.00
C102   C     0.21559   0.48200   0.54082   0.00000  Uiso   1.00
C103   C     0.02688   0.27793   0.45931   0.00000  Uiso   1.00
C104   C     0.25004   0.00030   0.85593   0.00000  Uiso   1.00
C105   C     0.47497   0.22003   0.54074   0.00000  Uiso   1.00
C106   C     0.21455   0.48345   0.45888   0.00000  Uiso   1.00
C107   C     0.28251   0.02101   0.54075   0.00000  Uiso   1.00
C108   C     0.22523   0.47035   0.95891   0.00000  Uiso   1.00
C109   C     0.27906   0.02521   0.04113   0.00000  Uiso   1.00
C110   C     0.03230   0.27145   0.95922   0.00000  Uiso   1.00
C111   C     0.46526   0.23210   0.04076   0.00000  Uiso   1.00
C112   C     0.27687   0.02809   0.95932   0.00000  Uiso   1.00
C113   C     0.22779   0.46758   0.04064   0.00000  Uiso   1.00
C114   C     0.46474   0.23370   0.95883   0.00000  Uiso   1.00
C115   C     0.25002   0.49940   0.14407   0.00000  Uiso   1.00
C116   C     0.03041   0.27379   0.04108   0.00000  Uiso   1.00
C117   C     0.00237   0.24788   0.47965   0.00000  Uiso   1.00
C118   C     0.00228   0.24760   0.52043   0.00000  Uiso   1.00
C119   C     0.24799   0.00290   0.47946   0.00000  Uiso   1.00
C120   C     0.24852   0.00226   0.52028   0.00000  Uiso   1.00
C121   C     0.25192   0.49830   0.97959   0.00000  Uiso   1.00
C122   C     0.25263   0.49731   0.02036   0.00000  Uiso   1.00
C123   C     0.49833   0.25269   0.97957   0.00000  Uiso   1.00
C124   C     0.49803   0.25280   0.02039   0.00000  Uiso   1.00
C125   C     0.45611   0.18602   0.47926   0.00000  Uiso   1.00
C126   C     0.16998   0.08002   0.25000   0.00000  Uiso   1.00
C127   C     0.05619   0.30303   0.52092   0.00000  Uiso   1.00
C128   C     0.31263   0.04537   0.47925   0.00000  Uiso   1.00
C129   C     0.18128   0.46380   0.52033   0.00000  Uiso   1.00
C130   C     0.05188   0.30748   0.47998   0.00000  Uiso   1.00
C131   C     0.45077   0.18989   0.52011   0.00000  Uiso   1.00
C132   C     0.17925   0.46731   0.47912   0.00000  Uiso   1.00
C133   C     0.31592   0.04056   0.52021   0.00000  Uiso   1.00
C134   C     0.20113   0.43981   0.97911   0.00000  Uiso   1.00
C135   C     0.30569   0.05354   0.02105   0.00000  Uiso   1.00
C136   C     0.06575   0.29091   0.97987   0.00000  Uiso   1.00
H137   H     0.04512   0.29828   0.40130   0.00000  Uiso   1.00
H138   H     0.20563   0.44974   0.09817   0.00000  Uiso   1.00
H139   H     0.44395   0.21540   0.90086   0.00000  Uiso   1.00
H140   H     0.05492   0.28581   0.09928   0.00000  Uiso   1.00
H141   H     0.20535   0.45209   0.90062   0.00000  Uiso   1.00
H142   H     0.29612   0.04570   0.09958   0.00000  Uiso   1.00
H143   H     0.05543   0.28605   0.90113   0.00000  Uiso   1.00
H144   H     0.44263   0.21746   0.09927   0.00000  Uiso   1.00
H145   H     0.49876   0.13951   0.42116   0.00000  Uiso   1.00
H146   H     0.00168   0.11334   0.46762   0.00000  Uiso   1.00
H147   H     0.47024   0.09188   0.42896   0.00000  Uiso   1.00
H148   H     0.45370   0.20254   0.59884   0.00000  Uiso   1.00
H149   H     0.42527   0.12399   0.47617   0.00000  Uiso   1.00
H150   H     0.42069   0.15381   0.43357   0.00000  Uiso   1.00
H151   H     0.04018   0.36174   0.57598   0.00000  Uiso   1.00
H152   H     0.09238   0.38177   0.58153   0.00000  Uiso   1.00
H153   H     0.06323   0.39090   0.53693   0.00000  Uiso   1.00
H154   H     0.10291   0.30843   0.56695   0.00000  Uiso   1.00
H155   H     0.11722   0.33491   0.52591   0.00000  Uiso   1.00
H156   H     0.37178   0.02228   0.42647   0.00000  Uiso   1.00
H157   H     0.39767   0.07193   0.42123   0.00000  Uiso   1.00
H158   H     0.40230   0.04306   0.46612   0.00000  Uiso   1.00
H159   H     0.19389   0.46462   0.40099   0.00000  Uiso   1.00
H160   H     0.32534   0.09029   0.43287   0.00000  Uiso   1.00
H161   H     0.35115   0.10215   0.47516   0.00000  Uiso   1.00
H162   H     0.08940   0.45549   0.57420   0.00000  Uiso   1.00
H163   H     0.12646   0.49772   0.57290   0.00000  Uiso   1.00
H164   H     0.09608   0.48518   0.53019   0.00000  Uiso   1.00
H165   H     0.13375   0.41490   0.52530   0.00000  Uiso   1.00
H166   H     0.15967   0.42336   0.56769   0.00000  Uiso   1.00
H167   H     0.01526   0.36159   0.42484   0.00000  Uiso   1.00
H168   H     0.02062   0.38866   0.47066   0.00000  Uiso   1.00
H169   H     0.05326   0.40277   0.42998   0.00000  Uiso   1.00
H170   H     0.30605   0.03503   0.59892   0.00000  Uiso   1.00
H171   H     0.09345   0.36329   0.47637   0.00000  Uiso   1.00
H172   H     0.09094   0.33385   0.43375   0.00000  Uiso   1.00
H173   H     0.46865   0.13352   0.57756   0.00000  Uiso   1.00
H174   H     0.41874   0.10765   0.57926   0.00000  Uiso   1.00
H175   H     0.45191   0.10197   0.53703   0.00000  Uiso   1.00
H176   H     0.40257   0.18063   0.56425   0.00000  Uiso   1.00
H177   H     0.39318   0.15225   0.52271   0.00000  Uiso   1.00
H178   H     0.11111   0.01923   0.46344   0.00000  Uiso   1.00
H179   H     0.13900   0.01222   0.41827   0.00000  Uiso   1.00
H180   H     0.08865   0.48817   0.42489   0.00000  Uiso   1.00
H181   H     0.45665   0.19996   0.40128   0.00000  Uiso   1.00
H182   H     0.14506   0.43353   0.43352   0.00000  Uiso   1.00
H183   H     0.11402   0.44253   0.47435   0.00000  Uiso   1.00
H184   H     0.36344   0.49551   0.57519   0.00000  Uiso   1.00
H185   H     0.39082   0.49655   0.52933   0.00000  Uiso   1.00
H186   H     0.41027   0.02627   0.57012   0.00000  Uiso   1.00
H187   H     0.37738   0.07257   0.52395   0.00000  Uiso   1.00
H188   H     0.34811   0.07466   0.56664   0.00000  Uiso   1.00
H189   H     0.16924   0.35736   0.91982   0.00000  Uiso   1.00
H190   H     0.21921   0.38314   0.92166   0.00000  Uiso   1.00
H191   H     0.20224   0.35194   0.96222   0.00000  Uiso   1.00
H192   H     0.04775   0.29445   0.59951   0.00000  Uiso   1.00
H193   H     0.14336   0.40252   0.97575   0.00000  Uiso   1.00
H194   H     0.15345   0.43064   0.93430   0.00000  Uiso   1.00
H195   H     0.28879   0.11274   0.07536   0.00000  Uiso   1.00
H196   H     0.34088   0.13288   0.08147   0.00000  Uiso   1.00
H197   H     0.31243   0.14161   0.03642   0.00000  Uiso   1.00
H198   H     0.35177   0.05951   0.06760   0.00000  Uiso   1.00
H199   H     0.36662   0.08556   0.02652   0.00000  Uiso   1.00
H200   H     0.14062   0.24704   0.97030   0.00000  Uiso   1.00
H201   H     0.11310   0.24632   0.92445   0.00000  Uiso   1.00
H202   H     0.15994   0.27705   0.92975   0.00000  Uiso   1.00
H203   H     0.30439   0.03660   0.40073   0.00000  Uiso   1.00
H204   H     0.09773   0.32536   0.93367   0.00000  Uiso   1.00
H205   H     0.12716   0.32307   0.97630   0.00000  Uiso   1.00
H206   H     0.33897   0.20621   0.07368   0.00000  Uiso   1.00
H207   H     0.37660   0.24792   0.07297   0.00000  Uiso   1.00
H208   H     0.34627   0.23632   0.03001   0.00000  Uiso   1.00
H209   H     0.38297   0.16553   0.02466   0.00000  Uiso   1.00
H210   H     0.40900   0.17333   0.06711   0.00000  Uiso   1.00
H211   H     0.26602   0.11154   0.92420   0.00000  Uiso   1.00
H212   H     0.27085   0.13872   0.97001   0.00000  Uiso   1.00
H213   H     0.30401   0.15266   0.92965   0.00000  Uiso   1.00
H214   H     0.19263   0.46842   0.59938   0.00000  Uiso   1.00
H215   H     0.34367   0.11330   0.97641   0.00000  Uiso   1.00
H216   H     0.34145   0.08359   0.93396   0.00000  Uiso   1.00
H217   H     0.25128   0.36314   0.03140   0.00000  Uiso   1.00
H218   H     0.24804   0.38887   0.07812   0.00000  Uiso   1.00
H219   H     0.21958   0.34133   0.06958   0.00000  Uiso   1.00
H220   H     0.17020   0.40354   0.06529   0.00000  Uiso   1.00
H221   H     0.17478   0.37392   0.02254   0.00000  Uiso   1.00
H222   H     0.36153   0.27051   0.96321   0.00000  Uiso   1.00
H223   H     0.38967   0.26350   0.91818   0.00000  Uiso   1.00
H224   H     0.33905   0.23988   0.92438   0.00000  Uiso   1.00
H225   H     0.29604   0.04779   0.90137   0.00000  Uiso   1.00
H226   H     0.39476   0.18461   0.93310   0.00000  Uiso   1.00
H227   H     0.36367   0.19382   0.97388   0.00000  Uiso   1.00
H228   H     0.14761   0.32191   0.07909   0.00000  Uiso   1.00
H229   H     0.12205   0.27215   0.07322   0.00000  Uiso   1.00
H230   H     0.15238   0.29356   0.03387   0.00000  Uiso   1.00
H231   H     0.10088   0.35235   0.02534   0.00000  Uiso   1.00
H232   H     0.07528   0.34008   0.06759   0.00000  Uiso   1.00
O233   O     0.25000  -0.00000   0.25000   0.00000  Uiso   1.00
O234   O     0.25000   0.46538   0.66251   0.00000  Uiso   1.00
O235   O     0.46538   0.25000   0.33749   0.00000  Uiso   1.00
O236   O     0.03461   0.25000   0.66251   0.00000  Uiso   1.00
O237   O    -0.00000   0.21538   0.83749   0.00000  Uiso   1.00
O238   O     0.00000   0.28462   0.16251   0.00000  Uiso   1.00
O239   O     0.28461  -0.00000   0.83749   0.00000  Uiso   1.00
O240   O     0.21538  -0.00000   0.16251   0.00000  Uiso   1.00
O241   O    -0.00000   0.28461   0.83749   0.00000  Uiso   1.00
O242   O     0.00000   0.21539   0.16251   0.00000  Uiso   1.00
O243   O     0.21538  -0.00000   0.83749   0.00000  Uiso   1.00
O244   O     0.25000  -0.00000   0.75000   0.00000  Uiso   1.00
O245   O     0.28461  -0.00000   0.16251   0.00000  Uiso   1.00
O246   O     0.20126   0.08332   0.27298   0.00000  Uiso   1.00
O247   O     0.29873   0.41668   0.72702   0.00000  Uiso   1.00
O248   O     0.41668   0.20126   0.27298   0.00000  Uiso   1.00
O249   O     0.08332   0.29874   0.72702   0.00000  Uiso   1.00
O250   O     0.29873   0.41668   0.27298   0.00000  Uiso   1.00
O251   O     0.20126   0.08332   0.72702   0.00000  Uiso   1.00
O252   O     0.08332   0.29874   0.27298   0.00000  Uiso   1.00
O253   O     0.41668   0.20126   0.72702   0.00000  Uiso   1.00
O254   O     0.20126   0.41668   0.72702   0.00000  Uiso   1.00
O255   O    -0.00000   0.25000   0.25000   0.00000  Uiso   1.00
O256   O     0.29873   0.08332   0.27298   0.00000  Uiso   1.00
O257   O     0.41668   0.29873   0.72702   0.00000  Uiso   1.00
O258   O     0.08332   0.20126   0.27298   0.00000  Uiso   1.00
O259   O     0.29873   0.08332   0.72702   0.00000  Uiso   1.00
O260   O     0.20126   0.41668   0.27298   0.00000  Uiso   1.00
O261   O     0.08332   0.20126   0.72702   0.00000  Uiso   1.00
O262   O     0.41668   0.29873   0.27298   0.00000  Uiso   1.00
O263   O     0.45126   0.33332   0.77298   0.00000  Uiso   1.00
O264   O     0.04873   0.16668   0.22702   0.00000  Uiso   1.00
O265   O     0.16668   0.45127   0.77298   0.00000  Uiso   1.00
O266   O    -0.00000   0.25000   0.75000   0.00000  Uiso   1.00
O267   O     0.33332   0.04873   0.22702   0.00000  Uiso   1.00
O268   O     0.04873   0.16668   0.77298   0.00000  Uiso   1.00
O269   O     0.45126   0.33332   0.22702   0.00000  Uiso   1.00
O270   O     0.33332   0.04873   0.77298   0.00000  Uiso   1.00
O271   O     0.16668   0.45127   0.22702   0.00000  Uiso   1.00
O272   O     0.45126   0.16668   0.22702   0.00000  Uiso   1.00
O273   O     0.04873   0.33332   0.77298   0.00000  Uiso   1.00
O274   O     0.16668   0.04873   0.22702   0.00000  Uiso   1.00
O275   O     0.33332   0.45126   0.77298   0.00000  Uiso   1.00
O276   O     0.04873   0.33332   0.22702   0.00000  Uiso   1.00
O277   O     0.25000   0.46538   0.33749   0.00000  Uiso   1.00
O278   O     0.45126   0.16668   0.77298   0.00000  Uiso   1.00
O279   O     0.33332   0.45126   0.22702   0.00000  Uiso   1.00
O280   O     0.16668   0.04873   0.77298   0.00000  Uiso   1.00
O281   O     0.25000   0.03461   0.66251   0.00000  Uiso   1.00
O282   O     0.03461   0.25000   0.33749   0.00000  Uiso   1.00
O283   O     0.46538   0.25000   0.66251   0.00000  Uiso   1.00
O284   O     0.25000   0.03461   0.33749   0.00000  Uiso   1.00
Zn285  Zn    0.20052  -0.00000   0.21730   0.00000  Uiso   1.00
Zn286  Zn    0.04947   0.25000   0.28270   0.00000  Uiso   1.00
Zn287  Zn    0.25000   0.45052   0.71730   0.00000  Uiso   1.00
Zn288  Zn    0.25000   0.04947   0.28270   0.00000  Uiso   1.00
Zn289  Zn    0.04947   0.25000   0.71730   0.00000  Uiso   1.00
Zn290  Zn    0.45052   0.25000   0.28270   0.00000  Uiso   1.00
Zn291  Zn    0.25000   0.04947   0.71730   0.00000  Uiso   1.00
Zn292  Zn    0.25000   0.45052   0.28270   0.00000  Uiso   1.00
Zn293  Zn    0.29947  -0.00000   0.78270   0.00000  Uiso   1.00
Zn294  Zn   -0.00000   0.20052   0.21730   0.00000  Uiso   1.00
Zn295  Zn   -0.00000   0.29947   0.78270   0.00000  Uiso   1.00
Zn296  Zn    0.29947  -0.00000   0.21730   0.00000  Uiso   1.00
Zn297  Zn    0.20052  -0.00000   0.78270   0.00000  Uiso   1.00
Zn298  Zn   -0.00000   0.29947   0.21730   0.00000  Uiso   1.00
Zn299  Zn   -0.00000   0.20052   0.78270   0.00000  Uiso   1.00
Zn300  Zn    0.45052   0.25000   0.71730   0.00000  Uiso   1.00
C301   C     0.74982   0.00006   0.35589   0.00000  Uiso   1.00
C302   C     0.83002   0.41998   0.75000   0.00000  Uiso   1.00
C303   C     0.93108   0.21394   0.02009   0.00000  Uiso   1.00
C304   C     0.80190   0.05759   0.98003   0.00000  Uiso   1.00
C305   C     0.70592   0.43585   0.02000   0.00000  Uiso   1.00
C306   C     0.92916   0.21786   0.97890   0.00000  Uiso   1.00
C307   C     0.56256   0.29547   0.02086   0.00000  Uiso   1.00
C308   C     0.94252   0.14621   0.45773   0.00000  Uiso   1.00
C309   C     0.98066   0.12147   0.44292   0.00000  Uiso   1.00
C310   C     0.58901   0.32786   0.54344   0.00000  Uiso   1.00
C311   C     0.56999   0.36800   0.56043   0.00000  Uiso   1.00
C312   C     0.84201   0.07472   0.45730   0.00000  Uiso   1.00
C313   C     0.91996   0.16994   0.24999   0.00000  Uiso   1.00
C314   C     0.88074   0.05147   0.44197   0.00000  Uiso   1.00
C315   C     0.64695   0.44095   0.54252   0.00000  Uiso   1.00
C316   C     0.61269   0.47169   0.55568   0.00000  Uiso   1.00
C317   C     0.57155   0.34478   0.45858   0.00000  Uiso   1.00
C318   C     0.53801   0.37613   0.44514   0.00000  Uiso   1.00
C319   C     0.91943   0.16230   0.54165   0.00000  Uiso   1.00
C320   C     0.94108   0.12410   0.55990   0.00000  Uiso   1.00
C321   C     0.63881   0.45701   0.45667   0.00000  Uiso   1.00
C322   C     0.61843   0.49662   0.43975   0.00000  Uiso   1.00
C323   C     0.85580   0.05384   0.54175   0.00000  Uiso   1.00
C324   C     0.58004   0.33006   0.75001   0.00000  Uiso   1.00
C325   C     0.88141   0.01565   0.55496   0.00000  Uiso   1.00
C326   C     0.66993   0.41232   0.95714   0.00000  Uiso   1.00
C327   C     0.69156   0.37392   0.93920   0.00000  Uiso   1.00
C328   C     0.83816   0.07866   0.04375   0.00000  Uiso   1.00
C329   C     0.81883   0.11892   0.06017   0.00000  Uiso   1.00
C330   C     0.60554   0.30440   0.95839   0.00000  Uiso   1.00
C331   C     0.63113   0.26631   0.94484   0.00000  Uiso   1.00
C332   C     0.89648   0.19127   0.04207   0.00000  Uiso   1.00
C333   C     0.86256   0.22229   0.05543   0.00000  Uiso   1.00
C334   C     0.82186   0.09472   0.95858   0.00000  Uiso   1.00
C335   C     0.83001   0.41999   0.25000   0.00000  Uiso   1.00
C336   C     0.78853   0.12610   0.94471   0.00000  Uiso   1.00
C337   C     0.69208   0.39598   0.04119   0.00000  Uiso   1.00
C338   C     0.73009   0.37105   0.05602   0.00000  Uiso   1.00
C339   C     0.88868   0.20807   0.95630   0.00000  Uiso   1.00
C340   C     0.86880   0.24796   0.93945   0.00000  Uiso   1.00
C341   C     0.59191   0.32477   0.04301   0.00000  Uiso   1.00
C342   C     0.63080   0.30158   0.05809   0.00000  Uiso   1.00
C343   C     0.66999   0.08001   0.75000   0.00000  Uiso   1.00
C344   C     0.58006   0.33004   0.25001   0.00000  Uiso   1.00
C345   C     0.91994   0.16996   0.74999   0.00000  Uiso   1.00
C346   C     0.66996   0.41994   0.74999   0.00000  Uiso   1.00
C347   C     0.83004   0.08006   0.25001   0.00000  Uiso   1.00
C348   C     0.91998   0.33002   0.75000   0.00000  Uiso   1.00
C349   C     0.75019   0.00003   0.64406   0.00000  Uiso   1.00
C350   C     0.58002   0.16998   0.25000   0.00000  Uiso   1.00
C351   C     0.83006   0.08004   0.75001   0.00000  Uiso   1.00
C352   C     0.66994   0.41996   0.24999   0.00000  Uiso   1.00
C353   C     0.58001   0.16999   0.75000   0.00000  Uiso   1.00
C354   C     0.91999   0.33000   0.25000   0.00000  Uiso   1.00
C355   C     0.63830   0.38832   0.24998   0.00000  Uiso   1.00
C356   C     0.86170   0.11168   0.75001   0.00000  Uiso   1.00
C357   C     0.61166   0.13833   0.25000   0.00000  Uiso   1.00
C358   C     0.88833   0.36167   0.75000   0.00000  Uiso   1.00
C359   C     0.86168   0.11170   0.25001   0.00000  Uiso   1.00
C360   C     0.50006   0.25002   0.35595   0.00000  Uiso   1.00
C361   C     0.63832   0.38830   0.74999   0.00000  Uiso   1.00
C362   C     0.88833   0.36166   0.25000   0.00000  Uiso   1.00
C363   C     0.61167   0.13834   0.75000   0.00000  Uiso   1.00
C364   C     0.63833   0.11166   0.75000   0.00000  Uiso   1.00
C365   C     0.86166   0.38834   0.25000   0.00000  Uiso   1.00
C366   C     0.61168   0.36170   0.75001   0.00000  Uiso   1.00
C367   C     0.88832   0.13830   0.24999   0.00000  Uiso   1.00
C368   C     0.86167   0.38833   0.75000   0.00000  Uiso   1.00
C369   C     0.63833   0.11166   0.25000   0.00000  Uiso   1.00
C370   C     0.88830   0.13832   0.74998   0.00000  Uiso   1.00
C371   C     0.50000   0.24969   0.64408   0.00000  Uiso   1.00
C372   C     0.61170   0.36168   0.25001   0.00000  Uiso   1.00
C373   C     0.52620   0.27722   0.41841   0.00000  Uiso   1.00
C374   C     0.97367   0.22244   0.58160   0.00000  Uiso   1.00
C375   C     0.71709   0.48098   0.41810   0.00000  Uiso   1.00
C376   C     0.78193   0.02028   0.58167   0.00000  Uiso   1.00
C377   C     0.97618   0.22070   0.41826   0.00000  Uiso   1.00
C378   C     0.52832   0.27424   0.58196   0.00000  Uiso   1.00
C379   C     0.77998   0.02249   0.41804   0.00000  Uiso   1.00
C380   C     0.71729   0.48151   0.58177   0.00000  Uiso   1.00
C381   C     0.77645   0.02731   0.91844   0.00000  Uiso   1.00
C382   C     0.50016   0.25005   0.85591   0.00000  Uiso   1.00
C383   C     0.72578   0.47005   0.08145   0.00000  Uiso   1.00
C384   C     0.96742   0.23123   0.91808   0.00000  Uiso   1.00
C385   C     0.53033   0.27198   0.08193   0.00000  Uiso   1.00
C386   C     0.72432   0.47279   0.91811   0.00000  Uiso   1.00
C387   C     0.77770   0.02461   0.08200   0.00000  Uiso   1.00
C388   C     0.53150   0.27100   0.91831   0.00000  Uiso   1.00
C389   C     0.96694   0.23131   0.08174   0.00000  Uiso   1.00
C390   C     0.50043   0.24961   0.39831   0.00000  Uiso   1.00
C391   C     0.50029   0.24904   0.60176   0.00000  Uiso   1.00
C392   C     0.74928   0.00056   0.39814   0.00000  Uiso   1.00
C393   C     0.99986   0.25004   0.14409   0.00000  Uiso   1.00
C394   C     0.75004   0.00026   0.60170   0.00000  Uiso   1.00
C395   C     0.75015   0.00032   0.89827   0.00000  Uiso   1.00
C396   C     0.75055   0.49836   0.10173   0.00000  Uiso   1.00
C397   C     0.99996   0.25035   0.89821   0.00000  Uiso   1.00
C398   C     0.99936   0.25050   0.10178   0.00000  Uiso   1.00
C399   C     0.97796   0.21803   0.45900   0.00000  Uiso   1.00
C400   C     0.52937   0.27496   0.54111   0.00000  Uiso   1.00
C401   C     0.78036   0.02392   0.45891   0.00000  Uiso   1.00
C402   C     0.71559   0.48200   0.54082   0.00000  Uiso   1.00
C403   C     0.52688   0.27793   0.45931   0.00000  Uiso   1.00
C404   C     0.75004   0.00030   0.85593   0.00000  Uiso   1.00
C405   C     0.97497   0.22003   0.54074   0.00000  Uiso   1.00
C406   C     0.71455   0.48345   0.45888   0.00000  Uiso   1.00
C407   C     0.78251   0.02101   0.54075   0.00000  Uiso   1.00
C408   C     0.72523   0.47035   0.95891   0.00000  Uiso   1.00
C409   C     0.77906   0.02521   0.04113   0.00000  Uiso   1.00
C410   C     0.53230   0.27145   0.95922   0.00000  Uiso   1.00
C411   C     0.96526   0.23210   0.04076   0.00000  Uiso   1.00
C412   C     0.77687   0.02809   0.95932   0.00000  Uiso   1.00
C413   C     0.72779   0.46758   0.04064   0.00000  Uiso   1.00
C414   C     0.96474   0.23370   0.95883   0.00000  Uiso   1.00
C415   C     0.75002   0.49940   0.14407   0.00000  Uiso   1.00
C416   C     0.53041   0.27379   0.04108   0.00000  Uiso   1.00
C417   C     0.50237   0.24788   0.47965   0.00000  Uiso   1.00
C418   C     0.50228   0.24760   0.52043   0.00000  Uiso   1.00
C419   C     0.74799   0.00290   0.47946   0.00000  Uiso   1.00
C420   C     0.74852   0.00226   0.52028   0.00000  Uiso   1.00
C421   C     0.75192   0.49830   0.97959   0.00000  Uiso   1.00
C422   C     0.75263   0.49731   0.02036   0.00000  Uiso   1.00
C423   C     0.99833   0.25269   0.97957   0.00000  Uiso   1.00
C424   C     0.99803   0.25280   0.02039   0.00000  Uiso   1.00
C425   C     0.95611   0.18602   0.47926   0.00000  Uiso   1.00
C426   C     0.66998   0.08002   0.25000   0.00000  Uiso   1.00
C427   C     0.55619   0.30303   0.52092   0.00000  Uiso   1.00
C428   C     0.81263   0.04537   0.47925   0.00000  Uiso   1.00
C429   C     0.68128   0.46380   0.52033   0.00000  Uiso   1.00
C430   C     0.55188   0.30748   0.47998   0.00000  Uiso   1.00
C431   C     0.95077   0.18989   0.52011   0.00000  Uiso   1.00
C432   C     0.67925   0.46731   0.47912   0.00000  Uiso   1.00
C433   C     0.81592   0.04056   0.52021   0.00000  Uiso   1.00
C434   C     0.70113   0.43981   0.97911   0.00000  Uiso   1.00
C435   C     0.80569   0.05354   0.02105   0.00000  Uiso   1.00
C436   C     0.56575   0.29091   0.97987   0.00000  Uiso   1.00
H437   H     0.54512   0.29828   0.40130   0.00000  Uiso   1.00
H438   H     0.70563   0.44974   0.09817   0.00000  Uiso   1.00
H439   H     0.94395   0.21540   0.90086   0.00000  Uiso   1.00
H440   H     0.55492   0.28581   0.09928   0.00000  Uiso   1.00
H441   H     0.70535   0.45209   0.90062   0.00000  Uiso   1.00
H442   H     0.79612   0.04570   0.09958   0.00000  Uiso   1.00
H443   H     0.55543   0.28605   0.90113   0.00000  Uiso   1.00
H444   H     0.94263   0.21746   0.09927   0.00000  Uiso   1.00
H445   H     0.99876   0.13951   0.42116   0.00000  Uiso   1.00
H446   H     0.50168   0.11334   0.46762   0.00000  Uiso   1.00
H447   H     0.97024   0.09188   0.42896   0.00000  Uiso   1.00
H448   H     0.95370   0.20254   0.59884   0.00000  Uiso   1.00
H449   H     0.92527   0.12399   0.47617   0.00000  Uiso   1.00
H450   H     0.92069   0.15381   0.43357   0.00000  Uiso   1.00
H451   H     0.54018   0.36174   0.57598   0.00000  Uiso   1.00
H452   H     0.59238   0.38177   0.58153   0.00000  Uiso   1.00
H453   H     0.56323   0.39090   0.53693   0.00000  Uiso   1.00
H454   H     0.60291   0.30843   0.56695   0.00000  Uiso   1.00
H455   H     0.61722   0.33491   0.52591   0.00000  Uiso   1.00
H456   H     0.87178   0.02228   0.42647   0.00000  Uiso   1.00
H457   H     0.89767   0.07193   0.42123   0.00000  Uiso   1.00
H458   H     0.90230   0.04306   0.46612   0.00000  Uiso   1.00
H459   H     0.69389   0.46462   0.40099   0.00000  Uiso   1.00
H460   H     0.82534   0.09029   0.43287   0.00000  Uiso   1.00
H461   H     0.85115   0.10215   0.47516   0.00000  Uiso   1.00
H462   H     0.58940   0.45549   0.57420   0.00000  Uiso   1.00
H463   H     0.62646   0.49772   0.57290   0.00000  Uiso   1.00
H464   H     0.59608   0.48518   0.53019   0.00000  Uiso   1.00
H465   H     0.63375   0.41490   0.52530   0.00000  Uiso   1.00
H466   H     0.65967   0.42336   0.56769   0.00000  Uiso   1.00
H467   H     0.51526   0.36159   0.42484   0.00000  Uiso   1.00
H468   H     0.52062   0.38866   0.47066   0.00000  Uiso   1.00
H469   H     0.55326   0.40277   0.42998   0.00000  Uiso   1.00
H470   H     0.80605   0.03503   0.59892   0.00000  Uiso   1.00
H471   H     0.59345   0.36329   0.47637   0.00000  Uiso   1.00
H472   H     0.59094   0.33385   0.43375   0.00000  Uiso   1.00
H473   H     0.96865   0.13352   0.57756   0.00000  Uiso   1.00
H474   H     0.91874   0.10765   0.57926   0.00000  Uiso   1.00
H475   H     0.95191   0.10197   0.53703   0.00000  Uiso   1.00
H476   H     0.90257   0.18063   0.56425   0.00000  Uiso   1.00
H477   H     0.89318   0.15225   0.52271   0.00000  Uiso   1.00
H478   H     0.61111   0.01923   0.46344   0.00000  Uiso   1.00
H479   H     0.63900   0.01222   0.41827   0.00000  Uiso   1.00
H480   H     0.58865   0.48817   0.42489   0.00000  Uiso   1.00
H481   H     0.95665   0.19996   0.40128   0.00000  Uiso   1.00
H482   H     0.64506   0.43353   0.43352   0.00000  Uiso   1.00
H483   H     0.61402   0.44253   0.47435   0.00000  Uiso   1.00
H484   H     0.86344   0.49551   0.57519   0.00000  Uiso   1.00
H485   H     0.89082   0.49655   0.52933   0.00000  Uiso   1.00
H486   H     0.91027   0.02627   0.57012   0.00000  Uiso   1.00
H487   H     0.87738   0.07257   0.52395   0.00000  Uiso   1.00
H488   H     0.84811   0.07466   0.56664   0.00000  Uiso   1.00
H489   H     0.66924   0.35736   0.91982   0.00000  Uiso   1.00
H490   H     0.71921   0.38314   0.92166   0.00000  Uiso   1.00
H491   H     0.70224   0.35194   0.96222   0.00000  Uiso   1.00
H492   H     0.54775   0.29445   0.59951   0.00000  Uiso   1.00
H493   H     0.64336   0.40252   0.97575   0.00000  Uiso   1.00
H494   H     0.65345   0.43064   0.93430   0.00000  Uiso   1.00
H495   H     0.78879   0.11274   0.07536   0.00000  Uiso   1.00
H496   H     0.84088   0.13288   0.08147   0.00000  Uiso   1.00
H497   H     0.81243   0.14161   0.03642   0.00000  Uiso   1.00
H498   H     0.85177   0.05951   0.06760   0.00000  Uiso   1.00
H499   H     0.86662   0.08556   0.02652   0.00000  Uiso   1.00
H500   H     0.64062   0.24704   0.97030   0.00000  Uiso   1.00
H501   H     0.61310   0.24632   0.92445   0.00000  Uiso   1.00
H502   H     0.65994   0.27705   0.92975   0.00000  Uiso   1.00
H503   H     0.80439   0.03660   0.40073   0.00000  Uiso   1.00
H504   H     0.59773   0.32536   0.93367   0.00000  Uiso   1.00
H505   H     0.62716   0.32307   0.97630   0.00000  Uiso   1.00
H506   H     0.83897   0.20621   0.07368   0.00000  Uiso   1.00
H507   H     0.87660   0.24792   0.07297   0.00000  Uiso   1.00
H508   H     0.84627   0.23632   0.03001   0.00000  Uiso   1.00
H509   H     0.88297   0.16553   0.02466   0.00000  Uiso   1.00
H510   H     0.90900   0.17333   0.06711   0.00000  Uiso   1.00
H511   H     0.76602   0.11154   0.92420   0.00000  Uiso   1.00
H512   H     0.77085   0.13872   0.97001   0.00000  Uiso   1.00
H513   H     0.80401   0.15266   0.92965   0.00000  Uiso   1.00
H514   H     0.69263   0.46842   0.59938   0.00000  Uiso   1.00
H515   H     0.84367   0.11330   0.97641   0.00000  Uiso   1.00
H516   H     0.84145   0.08359   0.93396   0.00000  Uiso   1.00
H517   H     0.75128   0.36314   0.03140   0.00000  Uiso   1.00
H518   H     0.74804   0.38887   0.07812   0.00000  Uiso   1.00
H519   H     0.71958   0.34133   0.06958   0.00000  Uiso   1.00
H520   H     0.67020   0.40354   0.06529   0.00000  Uiso   1.00
H521   H     0.67478   0.37392   0.02254   0.00000  Uiso   1.00
H522   H     0.86153   0.27051   0.96321   0.00000  Uiso   1.00
H523   H     0.88967   0.26350   0.91818   0.00000  Uiso   1.00
H524   H     0.83905   0.23988   0.92438   0.00000  Uiso   1.00
H525   H     0.79604   0.04779   0.90137   0.00000  Uiso   1.00
H526   H     0.89476   0.18461   0.93310   0.00000  Uiso   1.00
H527   H     0.86367   0.19382   0.97388   0.00000  Uiso   1.00
H528   H     0.64761   0.32191   0.07909   0.00000  Uiso   1.00
H529   H     0.62205   0.27215   0.07322   0.00000  Uiso   1.00
H530   H     0.65238   0.29356   0.03387   0.00000  Uiso   1.00
H531   H     0.60088   0.35235   0.02534   0.00000  Uiso   1.00
H532   H     0.57528   0.34008   0.06759   0.00000  Uiso   1.00
O533   O     0.75000  -0.00000   0.25000   0.00000  Uiso   1.00
O534   O     0.75000   0.46538   0.66251   0.00000  Uiso   1.00
O535   O     0.96538   0.25000   0.33749   0.00000  Uiso   1.00
O536   O     0.53461   0.25000   0.66251   0.00000  Uiso   1.00
O537   O     0.50000   0.21538   0.83749   0.00000  Uiso   1.00
O538   O     0.50000   0.28462   0.16251   0.00000  Uiso   1.00
O539   O     0.78461  -0.00000   0.83749   0.00000  Uiso   1.00
O540   O     0.71538  -0.00000   0.16251   0.00000  Uiso   1.00
O541   O     0.50000   0.28461   0.83749   0.00000  Uiso   1.00
O542   O     0.50000   0.21539   0.16251   0.00000  Uiso   1.00
O543   O     0.71538  -0.00000   0.83749   0.00000  Uiso   1.00
O544   O     0.75000  -0.00000   0.75000   0.00000  Uiso   1.00
O545   O     0.78461  -0.00000   0.16251   0.00000  Uiso   1.00
O546   O     0.70126   0.08332   0.27298   0.00000  Uiso   1.00
O547   O     0.79873   0.41668   0.72702   0.00000  Uiso   1.00
O548   O     0.91668   0.20126   0.27298   0.00000  Uiso   1.00
O549   O     0.58332   0.29874   0.72702   0.00000  Uiso   1.00
O550   O     0.79873   0.41668   0.27298   0.00000  Uiso   1.00
O551   O     0.70126   0.08332   0.72702   0.00000  Uiso   1.00
O552   O     0.58332   0.29874   0.27298   0.00000  Uiso   1.00
O553   O     0.91668   0.20126   0.72702   0.00000  Uiso   1.00
O554   O     0.70126   0.41668   0.72702   0.00000  Uiso   1.00
O555   O     0.50000   0.25000   0.25000   0.00000  Uiso   1.00
O556   O     0.79873   0.08332   0.27298   0.00000  Uiso   1.00
O557   O     0.91668   0.29873   0.72702   0.00000  Uiso   1.00
O558   O     0.58332   0.20126   0.27298   0.00000  Uiso   1.00
O559   O     0.79873   0.08332   0.72702   0.00000  Uiso   1.00
O560   O     0.70126   0.41668   0.27298   0.00000  Uiso   1.00
O561   O     0.58332   0.20126   0.72702   0.00000  Uiso   1.00
O562   O     0.91668   0.29873   0.27298   0.00000  Uiso   1.00
O563   O     0.95126   0.33332   0.77298   0.00000  Uiso   1.00
O564   O     0.54873   0.16668   0.22702   0.00000  Uiso   1.00
O565   O     0.66668   0.45127   0.77298   0.00000  Uiso   1.00
O566   O     0.50000   0.25000   0.75000   0.00000  Uiso   1.00
O567   O     0.83332   0.04873   0.22702   0.00000  Uiso   1.00
O568   O     0.54873   0.16668   0.77298   0.00000  Uiso   1.00
O569   O     0.95126   0.33332   0.22702   0.00000  Uiso   1.00
O570   O     0.83332   0.04873   0.77298   0.00000  Uiso   1.00
O571   O     0.66668   0.45127   0.22702   0.00000  Uiso   1.00
O572   O     0.95126   0.16668   0.22702   0.00000  Uiso   1.00
O573   O     0.54873   0.33332   0.77298   0.00000  Uiso   1.00
O574   O     0.66668   0.04873   0.22702   0.00000  Uiso   1.00
O575   O     0.83332   0.45126   0.77298   0.00000  Uiso   1.00
O576   O     0.54873   0.33332   0.22702   0.00000  Uiso   1.00
O577   O     0.75000   0.46538   0.33749   0.00000  Uiso   1.00
O578   O     0.95126   0.16668   0.77298   0.00000  Uiso   1.00
O579   O     0.83332   0.45126   0.22702   0.00000  Uiso   1.00
O580   O     0.66668   0.04873   0.77298   0.00000  Uiso   1.00
O581   O     0.75000   0.03461   0.66251   0.00000  Uiso   1.00
O582   O     0.53461   0.25000   0.33749   0.00000  Uiso   1.00
O583   O     0.96538   0.25000   0.66251   0.00000  Uiso   1.00
O584   O     0.75000   0.03461   0.33749   0.00000  Uiso   1.00
Zn585  Zn    0.70052  -0.00000   0.21730   0.00000  Uiso   1.00
Zn586  Zn    0.54947   0.25000   0.28270   0.00000  Uiso   1.00
Zn587  Zn    0.75000   0.45052   0.71730   0.00000  Uiso   1.00
Zn588  Zn    0.75000   0.04947   0.28270   0.00000  Uiso   1.00
Zn589  Zn    0.54947   0.25000   0.71730   0.00000  Uiso   1.00
Zn590  Zn    0.95052   0.25000   0.28270   0.00000  Uiso   1.00
Zn591  Zn    0.75000   0.04947   0.71730   0.00000  Uiso   1.00
Zn592  Zn    0.75000   0.45052   0.28270   0.00000  Uiso   1.00
Zn593  Zn    0.79947  -0.00000   0.78270   0.00000  Uiso   1.00
Zn594  Zn    0.50000   0.20052   0.21730   0.00000  Uiso   1.00
Zn595  Zn    0.50000   0.29947   0.78270   0.00000  Uiso   1.00
Zn596  Zn    0.79947  -0.00000   0.21730   0.00000  Uiso   1.00
Zn597  Zn    0.70052  -0.00000   0.78270   0.00000  Uiso   1.00
Zn598  Zn    0.50000   0.29947   0.21730   0.00000  Uiso   1.00
Zn599  Zn    0.50000   0.20052   0.78270   0.00000  Uiso   1.00
Zn600  Zn    0.95052   0.25000   0.71730   0.00000  Uiso   1.00
C601   C     0.24982   0.50006   0.35589   0.00000  Uiso   1.00
C602   C     0.33002   0.91998   0.75000   0.00000  Uiso   1.00
C603   C     0.43108   0.71394   0.02009   0.00000  Uiso   1.00
C604   C     0.30190   0.55759   0.98003   0.00000  Uiso   1.00
C605   C     0.20592   0.93585   0.02000   0.00000  Uiso   1.00
C606   C     0.42916   0.71786   0.97890   0.00000  Uiso   1.00
C607   C     0.06256   0.79547   0.02086   0.00000  Uiso   1.00
C608   C     0.44252   0.64621   0.45773   0.00000  Uiso   1.00
C609   C     0.48066   0.62147   0.44292   0.00000  Uiso   1.00
C610   C     0.08901   0.82786   0.54344   0.00000  Uiso   1.00
C611   C     0.06999   0.86800   0.56043   0.00000  Uiso   1.00
C612   C     0.34201   0.57472   0.45730   0.00000  Uiso   1.00
C613   C     0.41996   0.66994   0.24999   0.00000  Uiso   1.00
C614   C     0.38074   0.55147   0.44197   0.00000  Uiso   1.00
C615   C     0.14695   0.94095   0.54252   0.00000  Uiso   1.00
C616   C     0.11269   0.97169   0.55568   0.00000  Uiso   1.00
C617   C     0.07155   0.84478   0.45858   0.00000  Uiso   1.00
C618   C     0.03801   0.87613   0.44514   0.00000  Uiso   1.00
C619   C     0.41943   0.66230   0.54165   0.00000  Uiso   1.00
C620   C     0.44108   0.62410   0.55990   0.00000  Uiso   1.00
C621   C     0.13881   0.95701   0.45667   0.00000  Uiso   1.00
C622   C     0.11843   0.99662   0.43975   0.00000  Uiso   1.00
C623   C     0.35580   0.55384   0.54175   0.00000  Uiso   1.00
C624   C     0.08004   0.83006   0.75001   0.00000  Uiso   1.00
C625   C     0.38141   0.51565   0.55496   0.00000  Uiso   1.00
C626   C     0.16993   0.91232   0.95714   0.00000  Uiso   1.00
C627   C     0.19156   0.87392   0.93920   0.00000  Uiso   1.00
C628   C     0.33816   0.57866   0.04375   0.00000  Uiso   1.00
C629   C     0.31883   0.61892   0.06017   0.00000  Uiso   1.00
C630   C     0.10554   0.80440   0.95839   0.00000  Uiso   1.00
C631   C     0.13113   0.76631   0.94484   0.00000  Uiso   1.00
C632   C     0.39648   0.69127   0.04207   0.00000  Uiso   1.00
C633   C     0.36256   0.72229   0.05543   0.00000  Uiso   1.00
C634   C     0.32186   0.59472   0.95858   0.00000  Uiso   1.00
C635   C     0.33001   0.91999   0.25000   0.00000  Uiso   1.00
C636   C     0.28853   0.62610   0.94471   0.00000  Uiso   1.00
C637   C     0.19208   0.89598   0.04119   0.00000  Uiso   1.00
C638   C     0.23009   0.87105   0.05602   0.00000  Uiso   1.00
C639   C     0.38868   0.70807   0.95630   0.00000  Uiso   1.00
C640   C     0.36880   0.74796   0.93945   0.00000  Uiso   1.00
C641   C     0.09191   0.82477   0.04301   0.00000  Uiso   1.00
C642   C     0.13080   0.80158   0.05809   0.00000  Uiso   1.00
C643   C     0.16999   0.58001   0.75000   0.00000  Uiso   1.00
C644   C     0.08006   0.83004   0.25001   0.00000  Uiso   1.00
C645   C     0.41994   0.66996   0.74999   0.00000  Uiso   1.00
C646   C     0.16996   0.91994   0.74999   0.00000  Uiso   1.00
C647   C     0.33004   0.58006   0.25001   0.00000  Uiso   1.00
C648   C     0.41998   0.83002   0.75000   0.00000  Uiso   1.00
C649   C     0.25019   0.50003   0.64406   0.00000  Uiso   1.00
C650   C     0.08002   0.66998   0.25000   0.00000  Uiso   1.00
C651   C     0.33006   0.58004   0.75001   0.00000  Uiso   1.00
C652   C     0.16994   0.91996   0.24999   0.00000  Uiso   1.00
C653   C     0.08001   0.66999   0.75000   0.00000  Uiso   1.00
C654   C     0.41999   0.83000   0.25000   0.00000  Uiso   1.00
C655   C     0.13830   0.88832   0.24998   0.00000  Uiso   1.00
C656   C     0.36170   0.61168   0.75001   0.00000  Uiso   1.00
C657   C     0.11166   0.63833   0.25000   0.00000  Uiso   1.00
C658   C     0.38833   0.86167   0.75000   0.00000  Uiso   1.00
C659   C     0.36168   0.61170   0.25001   0.00000  Uiso   1.00
C660   C     0.00006   0.75002   0.35595   0.00000  Uiso   1.00
C661   C     0.13832   0.88830   0.74999   0.00000  Uiso   1.00
C662   C     0.38833   0.86166   0.25000   0.00000  Uiso   1.00
C663   C     0.11167   0.63834   0.75000   0.00000  Uiso   1.00
C664   C     0.13833   0.61166   0.75000   0.00000  Uiso   1.00
C665   C     0.36166   0.88834   0.25000   0.00000  Uiso   1.00
C666   C     0.11168   0.86170   0.75001   0.00000  Uiso   1.00
C667   C     0.38832   0.63830   0.24999   0.00000  Uiso   1.00
C668   C     0.36167   0.88833   0.75000   0.00000  Uiso   1.00
C669   C     0.13833   0.61166   0.25000   0.00000  Uiso   1.00
C670   C     0.38830   0.63832   0.74998   0.00000  Uiso   1.00
C671   C    -0.00000   0.74969   0.64408   0.00000  Uiso   1.00
C672   C     0.11170   0.86168   0.25001   0.00000  Uiso   1.00
C673   C     0.02620   0.77722   0.41841   0.00000  Uiso   1.00
C674   C     0.47367   0.72244   0.58160   0.00000  Uiso   1.00
C675   C     0.21709   0.98098   0.41810   0.00000  Uiso   1.00
C676   C     0.28193   0.52028   0.58167   0.00000  Uiso   1.00
C677   C     0.47618   0.72070   0.41826   0.00000  Uiso   1.00
C678   C     0.02832   0.77424   0.58196   0.00000  Uiso   1.00
C679   C     0.27998   0.52249   0.41804   0.00000  Uiso   1.00
C680   C     0.21729   0.98151   0.58177   0.00000  Uiso   1.00
C681   C     0.27645   0.52731   0.91844   0.00000  Uiso   1.00
C682   C     0.00016   0.75005   0.85591   0.00000  Uiso   1.00
C683   C     0.22578   0.97005   0.08145   0.00000  Uiso   1.00
C684   C     0.46742   0.73123   0.91808   0.00000  Uiso   1.00
C685   C     0.03033   0.77198   0.08193   0.00000  Uiso   1.00
C686   C     0.22432   0.97279   0.91811   0.00000  Uiso   1.00
C687   C     0.27770   0.52461   0.08200   0.00000  Uiso   1.00
C688   C     0.03150   0.77100   0.91831   0.00000  Uiso   1.00
C689   C     0.46694   0.73131   0.08174   0.00000  Uiso   1.00
C690   C     0.00043   0.74961   0.39831   0.00000  Uiso   1.00
C691   C     0.00029   0.74904   0.60176   0.00000  Uiso   1.00
C692   C     0.24928   0.50056   0.39814   0.00000  Uiso   1.00
C693   C     0.49986   0.75004   0.14409   0.00000  Uiso   1.00
C694   C     0.25004   0.50026   0.60170   0.00000  Uiso   1.00
C695   C     0.25015   0.50032   0.89827   0.00000  Uiso   1.00
C696   C     0.25055   0.99836   0.10173   0.00000  Uiso   1.00
C697   C     0.49996   0.75035   0.89821   0.00000  Uiso   1.00
C698   C     0.49936   0.75050   0.10178   0.00000  Uiso   1.00
C699   C     0.47796   0.71803   0.45900   0.00000  Uiso   1.00
C700   C     0.02937   0.77496   0.54111   0.00000  Uiso   1.00
C701   C     0.28036   0.52392   0.45891   0.00000  Uiso   1.00
C702   C     0.21559   0.98200   0.54082   0.00000  Uiso   1.00
C703   C     0.02688   0.77793   0.45931   0.00000  Uiso   1.00
C704   C     0.25004   0.50030   0.85593   0.00000  Uiso   1.00
C705   C     0.47497   0.72003   0.54074   0.00000  Uiso   1.00
C706   C     0.21455   0.98345   0.45888   0.00000  Uiso   1.00
C707   C     0.28251   0.52101   0.54075   0.00000  Uiso   1.00
C708   C     0.22523   0.97035   0.95891   0.00000  Uiso   1.00
C709   C     0.27906   0.52521   0.04113   0.00000  Uiso   1.00
C710   C     0.03230   0.77145   0.95922   0.00000  Uiso   1.00
C711   C     0.46526   0.73210   0.04076   0.00000  Uiso   1.00
C712   C     0.27687   0.52809   0.95932   0.00000  Uiso   1.00
C713   C     0.22779   0.96758   0.04064   0.00000  Uiso   1.00
C714   C     0.46474   0.73370   0.95883   0.00000  Uiso   1.00
C715   C     0.25002   0.99940   0.14407   0.00000  Uiso   1.00
C716   C     0.03041   0.77379   0.04108   0.00000  Uiso   1.00
C717   C     0.00237   0.74788   0.47965   0.00000  Uiso   1.00
C718   C     0.00228   0.74760   0.52043   0.00000  Uiso   1.00
C719   C     0.24799   0.50290   0.47946   0.00000  Uiso   1.00
C720   C     0.24852   0.50226   0.52028   0.00000  Uiso   1.00
C721   C     0.25192   0.99830   0.97959   0.00000  Uiso   1.00
C722   C     0.25263   0.99731   0.02036   0.00000  Uiso   1.00
C723   C     0.49833   0.75269   0.97957   0.00000  Uiso   1.00
C724   C     0.49803   0.75280   0.02039   0.00000  Uiso   1.00
C725   C     0.45611   0.68602   0.47926   0.00000  Uiso   1.00
C726   C     0.16998   0.58002   0.25000   0.00000  Uiso   1.00
C727   C     0.05619   0.80303   0.52092   0.00000  Uiso   1.00
C728   C     0.31263   0.54537   0.47925   0.00000  Uiso   1.00
C729   C     0.18128   0.96380   0.52033   0.00000  Uiso   1.00
C730   C     0.05188   0.80748   0.47998   0.00000  Uiso   1.00
C731   C     0.45077   0.68989   0.52011   0.00000  Uiso   1.00
C732   C     0.17925   0.96731   0.47912   0.00000  Uiso   1.00
C733   C     0.31592   0.54056   0.52021   0.00000  Uiso   1.00
C734   C     0.20113   0.93981   0.97911   0.00000  Uiso   1.00
C735   C     0.30569   0.55354   0.02105   0.00000  Uiso   1.00
C736   C     0.06575   0.79091   0.97987   0.00000  Uiso   1.00
H737   H     0.04512   0.79828   0.40130   0.00000  Uiso   1.00
H738   H     0.20563   0.94974   0.09817   0.00000  Uiso   1.00
H739   H     0.44395   0.71540   0.90086   0.00000  Uiso   1.00
H740   H     0.05492   0.78581   0.09928   0.00000  Uiso   1.00
H741   H     0.20535   0.95209   0.90062   0.00000  Uiso   1.00
H742   H     0.29612   0.54570   0.09958   0.00000  Uiso   1.00
H743   H     0.05543   0.78605   0.90113   0.00000  Uiso   1.00
H744   H     0.44263   0.71746   0.09927   0.00000  Uiso   1.00
H745   H     0.49876   0.63951   0.42116   0.00000  Uiso   1.00
H746   H     0.00168   0.61334   0.46762   0.00000  Uiso   1.00
H747   H     0.47024   0.59188   0.42896   0.00000  Uiso   1.00
H748   H     0.45370   0.70254   0.59884   0.00000  Uiso   1.00
H749   H     0.42527   0.62399   0.47617   0.00000  Uiso   1.00
H750   H     0.42069   0.65381   0.43357   0.00000  Uiso   1.00
H751   H     0.04018   0.86174   0.57598   0.00000  Uiso   1.00
H752   H     0.09238   0.88177   0.58153   0.00000  Uiso   1.00
H753   H     0.06323   0.89090   0.53693   0.00000  Uiso   1.00
H754   H     0.10291   0.80843   0.56695   0.00000  Uiso   1.00
H755   H     0.11722   0.83491   0.52591   0.00000  Uiso   1.00
H756   H     0.37178   0.52228   0.42647   0.00000  Uiso   1.00
H757   H     0.39767   0.57193   0.42123   0.00000  Uiso   1.00
H758   H     0.40230   0.54306   0.46612   0.00000  Uiso   1.00
H759   H     0.19389   0.96462   0.40099   0.00000  Uiso   1.00
H760   H     0.32534   0.59029   0.43287   0.00000  Uiso   1.00
H761   H     0.35115   0.60215   0.47516   0.00000  Uiso   1.00
H762   H     0.08940   0.95549   0.57420   0.00000  Uiso   1.00
H763   H     0.12646   0.99772   0.57290   0.00000  Uiso   1.00
H764   H     0.09608   0.98518   0.53019   0.00000  Uiso   1.00
H765   H     0.13375   0.91490   0.52530   0.00000  Uiso   1.00
H766   H     0.15967   0.92336   0.56769   0.00000  Uiso   1.00
H767   H     0.01526   0.86159   0.42484   0.00000  Uiso   1.00
H768   H     0.02062   0.88866   0.47066   0.00000  Uiso   1.00
H769   H     0.05326   0.90277   0.42998   0.00000  Uiso   1.00
H770   H     0.30605   0.53503   0.59892   0.00000  Uiso   1.00
H771   H     0.09345   0.86329   0.47637   0.00000  Uiso   1.00
H772   H     0.09094   0.83385   0.43375   0.00000  Uiso   1.00
H773   H     0.46865   0.63352   0.57756   0.00000  Uiso   1.00
H774   H     0.41874   0.60765   0.57926   0.00000  Uiso   1.00
H775   H     0.45191   0.60197   0.53703   0.00000  Uiso   1.00
H776   H     0.40257   0.68063   0.56425   0.00000  Uiso   1.00
H777   H     0.39318   0.65225   0.52271   0.00000  Uiso   1.00
H778   H     0.11111   0.51923   0.46344   0.00000  Uiso   1.00
H779   H     0.13900   0.51222   0.41827   0.00000  Uiso   1.00
H780   H     0.08865   0.98817   0.42489   0.00000  Uiso   1.00
H781   H     0.45665   0.69996   0.40128   0.00000  Uiso   1.00
H782   H     0.14506   0.93353   0.43352   0.00000  Uiso   1.00
H783   H     0.11402   0.94253   0.47435   0.00000  Uiso   1.00
H784   H     0.36344   0.99551   0.57519   0.00000  Uiso   1.00
H785   H     0.39082   0.99655   0.52933   0.00000  Uiso   1.00
H786   H     0.41027   0.52627   0.57012   0.00000  Uiso   1.00
H787   H     0.37738   0.57257   0.52395   0.00000  Uiso   1.00
H788   H     0.34811   0.57466   0.56664   0.00000  Uiso   1.00
H789   H     0.16924   0.85736   0.91982   0.00000  Uiso   1.00
H790   H     0.21921   0.88314   0.92166   0.00000  Uiso   1.00
H791   H     0.20224   0.85194   0.96222   0.00000  Uiso   1.00
H792   H     0.04775   0.79445   0.59951   0.00000  Uiso   1.00
H793   H     0.14336   0.90252   0.97575   0.00000  Uiso   1.00
H794   H     0.15345   0.93064   0.93430   0.00000  Uiso   1.00
H795   H     0.28879   0.61274   0.07536   0.00000  Uiso   1.00
H796   H     0.34088   0.63288   0.08147   0.00000  Uiso   1.00
H797   H     0.31243   0.64161   0.03642   0.00000  Uiso   1.00
H798   H     0.35177   0.55951   0.06760   0.00000  Uiso   1.00
H799   H     0.36662   0.58556   0.02652   0.00000  Uiso   1.00
H800   H     0.14062   0.74704   0.97030   0.00000  Uiso   1.00
H801   H     0.11310   0.74632   0.92445   0.00000  Uiso   1.00
H802   H     0.15994   0.77705   0.92975   0.00000  Uiso   1.00
H803   H     0.30439   0.53660   0.40073   0.00000  Uiso   1.00
H804   H     0.09773   0.82536   0.93367   0.00000  Uiso   1.00
H805   H     0.12716   0.82307   0.97630   0.00000  Uiso   1.00
H806   H     0.33897   0.70621   0.07368   0.00000  Uiso   1.00
H807   H     0.37660   0.74792   0.07297   0.00000  Uiso   1.00
H808   H     0.34627   0.73632   0.03001   0.00000  Uiso   1.00
H809   H     0.38297   0.66553   0.02466   0.00000  Uiso   1.00
H810   H     0.40900   0.67333   0.06711   0.00000  Uiso   1.00
H811   H     0.26602   0.61154   0.92420   0.00000  Uiso   1.00
H812   H     0.27085   0.63872   0.97001   0.00000  Uiso   1.00
H813   H     0.30401   0.65266   0.92965   0.00000  Uiso   1.00
H814   H     0.19263   0.96842   0.59938   0.00000  Uiso   1.00
H815   H     0.34367   0.61330   0.97641   0.00000  Uiso   1.00
H816   H     0.34145   0.58359   0.93396   0.00000  Uiso   1.00
H817   H     0.25128   0.86314   0.03140   0.00000  Uiso   1.00
H818   H     0.24804   0.88887   0.07812   0.00000  Uiso   1.00
H819   H     0.21958   0.84133   0.06958   0.00000  Uiso   1.00
H820   H     0.17020   0.90354   0.06529   0.00000  Uiso   1.00
H821   H     0.17478   0.87392   0.02254   0.00000  Uiso   1.00
H822   H     0.36153   0.77051   0.96321   0.00000  Uiso   1.00
H823   H     0.38967   0.76350   0.91818   0.00000  Uiso   1.00
H824   H     0.33905   0.73988   0.92438   0.00000  Uiso   1.00
H825   H     0.29604   0.54779   0.90137   0.00000  Uiso   1.00
H826   H     0.39476   0.68461   0.93310   0.00000  Uiso   1.00
H827   H     0.36367   0.69382   0.97388   0.00000  Uiso   1.00
H828   H     0.14761   0.82191   0.07909   0.00000  Uiso   1.00
H829   H     0.12205   0.77215   0.07322   0.00000  Uiso   1.00
H830   H     0.15238   0.79356   0.03387   0.00000  Uiso   1.00
H831   H     0.10088   0.85235   0.02534   0.00000  Uiso   1.00
H832   H     0.07528   0.84008   0.06759   0.00000  Uiso   1.00
O833   O     0.25000   0.50000   0.25000   0.00000  Uiso   1.00
O834   O     0.25000   0.96538   0.66251   0.00000  Uiso   1.00
O835   O     0.46538   0.75000   0.33749   0.00000  Uiso   1.00
O836   O     0.03461   0.75000   0.66251   0.00000  Uiso   1.00
O837   O    -0.00000   0.71538   0.83749   0.00000  Uiso   1.00
O838   O     0.00000   0.78462   0.16251   0.00000  Uiso   1.00
O839   O     0.28461   0.50000   0.83749   0.00000  Uiso   1.00
O840   O     0.21538   0.50000   0.16251   0.00000  Uiso   1.00
O841   O    -0.00000   0.78461   0.83749   0.00000  Uiso   1.00
O842   O     0.00000   0.71539   0.16251   0.00000  Uiso   1.00
O843   O     0.21538   0.50000   0.83749   0.00000  Uiso   1.00
O844   O     0.25000   0.50000   0.75000   0.00000  Uiso   1.00
O845   O     0.28461   0.50000   0.16251   0.00000  Uiso   1.00
O846   O     0.20126   0.58332   0.27298   0.00000  Uiso   1.00
O847   O     0.29873   0.91668   0.72702   0.00000  Uiso   1.00
O848   O     0.41668   0.70126   0.27298   0.00000  Uiso   1.00
O849   O     0.08332   0.79874   0.72702   0.00000  Uiso   1.00
O850   O     0.29873   0.91668   0.27298   0.00000  Uiso   1.00
O851   O     0.20126   0.58332   0.72702   0.00000  Uiso   1.00
O852   O     0.08332   0.79874   0.27298   0.00000  Uiso   1.00
O853   O     0.41668   0.70126   0.72702   0.00000  Uiso   1.00
O854   O     0.20126   0.91668   0.72702   0.00000  Uiso   1.00
O855   O    -0.00000   0.75000   0.25000   0.00000  Uiso   1.00
O856   O     0.29873   0.58332   0.27298   0.00000  Uiso   1.00
O857   O     0.41668   0.79873   0.72702   0.00000  Uiso   1.00
O858   O     0.08332   0.70126   0.27298   0.00000  Uiso   1.00
O859   O     0.29873   0.58332   0.72702   0.00000  Uiso   1.00
O860   O     0.20126   0.91668   0.27298   0.00000  Uiso   1.00
O861   O     0.08332   0.70126   0.72702   0.00000  Uiso   1.00
O862   O     0.41668   0.79873   0.27298   0.00000  Uiso   1.00
O863   O     0.45126   0.83332   0.77298   0.00000  Uiso   1.00
O864   O     0.04873   0.66668   0.22702   0.00000  Uiso   1.00
O865   O     0.16668   0.95127   0.77298   0.00000  Uiso   1.00
O866   O    -0.00000   0.75000   0.75000   0.00000  Uiso   1.00
O867   O     0.33332   0.54873   0.22702   0.00000  Uiso   1.00
O868   O     0.04873   0.66668   0.77298   0.00000  Uiso   1.00
O869   O     0.45126   0.83332   0.22702   0.00000  Uiso   1.00
O870   O     0.33332   0.54873   0.77298   0.00000  Uiso   1.00
O871   O     0.16668   0.95127   0.22702   0.00000  Uiso   1.00
O872   O     0.45126   0.66668   0.22702   0.00000  Uiso   1.00
O873   O     0.04873   0.83332   0.77298   0.00000  Uiso   1.00
O874   O     0.16668   0.54873   0.22702   0.00000  Uiso   1.00
O875   O     0.33332   0.95126   0.77298   0.00000  Uiso   1.00
O876   O     0.04873   0.83332   0.22702   0.00000  Uiso   1.00
O877   O     0.25000   0.96538   0.33749   0.00000  Uiso   1.00
O878   O     0.45126   0.66668   0.77298   0.00000  Uiso   1.00
O879   O     0.33332   0.95126   0.22702   0.00000  Uiso   1.00
O880   O     0.16668   0.54873   0.77298   0.00000  Uiso   1.00
O881   O     0.25000   0.53461   0.66251   0.00000  Uiso   1.00
O882   O     0.03461   0.75000   0.33749   0.00000  Uiso   1.00
O883   O     0.46538   0.75000   0.66251   0.00000  Uiso   1.00
O884   O     0.25000   0.53461   0.33749   0.00000  Uiso   1.00
Zn885  Zn    0.20052   0.50000   0.21730   0.00000  Uiso   1.00
Zn886  Zn    0.04947   0.75000   0.28270   0.00000  Uiso   1.00
Zn887  Zn    0.25000   0.95052   0.71730   0.00000  Uiso   1.00
Zn888  Zn    0.25000   0.54947   0.28270   0.00000  Uiso   1.00
Zn889  Zn    0.04947   0.75000   0.71730   0.00000  Uiso   1.00
Zn890  Zn    0.45052   0.75000   0.28270   0.00000  Uiso   1.00
Zn891  Zn    0.25000   0.54947   0.71730   0.00000  Uiso   1.00
Zn892  Zn    0.25000   0.95052   0.28270   0.00000  Uiso   1.00
Zn893  Zn    0.29947   0.50000   0.78270   0.00000  Uiso   1.00
Zn894  Zn   -0.00000   0.70052   0.21730   0.00000  Uiso   1.00
Zn895  Zn   -0.00000   0.79947   0.78270   0.00000  Uiso   1.00
Zn896  Zn    0.29947   0.50000   0.21730   0.00000  Uiso   1.00
Zn897  Zn    0.20052   0.50000   0.78270   0.00000  Uiso   1.00
Zn898  Zn   -0.00000   0.79947   0.21730   0.00000  Uiso   1.00
Zn899  Zn   -0.00000   0.70052   0.78270   0.00000  Uiso   1.00
Zn900  Zn    0.45052   0.75000   0.71730   0.00000  Uiso   1.00
C901   C     0.74982   0.50006   0.35589   0.00000  Uiso   1.00
C902   C     0.83002   0.91998   0.75000   0.00000  Uiso   1.00
C903   C     0.93108   0.71394   0.02009   0.00000  Uiso   1.00
C904   C     0.80190   0.55759   0.98003   0.00000  Uiso   1.00
C905   C     0.70592   0.93585   0.02000   0.00000  Uiso   1.00
C906   C     0.92916   0.71786   0.97890   0.00000  Uiso   1.00
C907   C     0.56256   0.79547   0.02086   0.00000  Uiso   1.00
C908   C     0.94252   0.64621   0.45773   0.00000  Uiso   1.00
C909   C     0.98066   0.62147   0.44292   0.00000  Uiso   1.00
C910   C     0.58901   0.82786   0.54344   0.00000  Uiso   1.00
C911   C     0.56999   0.86800   0.56043   0.00000  Uiso   1.00
C912   C     0.84201   0.57472   0.45730   0.00000  Uiso   1.00
C913   C     0.91996   0.66994   0.24999   0.00000  Uiso   1.00
C914   C     0.88074   0.55147   0.44197   0.00000  Uiso   1.00
C915   C     0.64695   0.94095   0.54252   0.00000  Uiso   1.00
C916   C     0.61269   0.97169   0.55568   0.00000  Uiso   1.00
C917   C     0.57155   0.84478   0.45858   0.00000  Uiso   1.00
C918   C     0.53801   0.87613   0.44514   0.00000  Uiso   1.00
C919   C     0.91943   0.66230   0.54165   0.00000  Uiso   1.00
C920   C     0.94108   0.62410   0.55990   0.00000  Uiso   1.00
C921   C     0.63881   0.95701   0.45667   0.00000  Uiso   1.00
C922   C     0.61843   0.99662   0.43975   0.00000  Uiso   1.00
C923   C     0.85580   0.55384   0.54175   0.00000  Uiso   1.00
C924   C     0.58004   0.83006   0.75001   0.00000  Uiso   1.00
C925   C     0.88141   0.51565   0.55496   0.00000  Uiso   1.00
C926   C     0.66993   0.91232   0.95714   0.00000  Uiso   1.00
C927   C     0.69156   0.87392   0.93920   0.00000  Uiso   1.00
C928   C     0.83816   0.57866   0.04375   0.00000  Uiso   1.00
C929   C     0.81883   0.61892   0.06017   0.00000  Uiso   1.00
C930   C     0.60554   0.80440   0.95839   0.00000  Uiso   1.00
C931   C     0.63113   0.76631   0.94484   0.00000  Uiso   1.00
C932   C     0.89648   0.69127   0.04207   0.00000  Uiso   1.00
C933   C     0.86256   0.72229   0.05543   0.00000  Uiso   1.00
C934   C     0.82186   0.59472   0.95858   0.00000  Uiso   1.00
C935   C     0.83001   0.91999   0.25000   0.00000  Uiso   1.00
C936   C     0.78853   0.62610   0.94471   0.00000  Uiso   1.00
C937   C     0.69208   0.89598   0.04119   0.00000  Uiso   1.00
C938   C     0.73009   0.87105   0.05602   0.00000  Uiso   1.00
C939   C     0.88868   0.70807   0.95630   0.00000  Uiso   1.00
C940   C     0.86880   0.74796   0.93945   0.00000  Uiso   1.00
C941   C     0.59191   0.82477   0.04301   0.00000  Uiso   1.00
C942   C     0.63080   0.80158   0.05809   0.00000  Uiso   1.00
C943   C     0.66999   0.58001   0.75000   0.00000  Uiso   1.00
C944   C     0.58006   0.83004   0.25001   0.00000  Uiso   1.00
C945   C     0.91994   0.66996   0.74999   0.00000  Uiso   1.00
C946   C     0.66996   0.91994   0.74999   0.00000  Uiso   1.00
C947   C     0.83004   0.58006   0.25001   0.00000  Uiso   1.00
C948   C     0.91998   0.83002   0.75000   0.00000  Uiso   1.00
C949   C     0.75019   0.50003   0.64406   0.00000  Uiso   1.00
C950   C     0.58002   0.66998   0.25000   0.00000  Uiso   1.00
C951   C     0.83006   0.58004   0.75001   0.00000  Uiso   1.00
C952   C     0.66994   0.91996   0.24999   0.00000  Uiso   1.00
C953   C     0.58001   0.66999   0.75000   0.00000  Uiso   1.00
C954   C     0.91999   0.83000   0.25000   0.00000  Uiso   1.00
C955   C     0.63830   0.88832   0.24998   0.00000  Uiso   1.00
C956   C     0.86170   0.61168   0.75001   0.00000  Uiso   1.00
C957   C     0.61166   0.63833   0.25000   0.00000  Uiso   1.00
C958   C     0.88833   0.86167   0.75000   0.00000  Uiso   1.00
C959   C     0.86168   0.61170   0.25001   0.00000  Uiso   1.00
C960   C     0.50006   0.75002   0.35595   0.00000  Uiso   1.00
C961   C     0.63832   0.88830   0.74999   0.00000  Uiso   1.00
C962   C     0.88833   0.86166   0.25000   0.00000  Uiso   1.00
C963   C     0.61167   0.63834   0.75000   0.00000  Uiso   1.00
C964   C     0.63833   0.61166   0.75000   0.00000  Uiso   1.00
C965   C     0.86166   0.88834   0.25000   0.00000  Uiso   1.00
C966   C     0.61168   0.86170   0.75001   0.00000  Uiso   1.00
C967   C     0.88832   0.63830   0.24999   0.00000  Uiso   1.00
C968   C     0.86167   0.88833   0.75000   0.00000  Uiso   1.00
C969   C     0.63833   0.61166   0.25000   0.00000  Uiso   1.00
C970   C     0.88830   0.63832   0.74998   0.00000  Uiso   1.00
C971   C     0.50000   0.74969   0.64408   0.00000  Uiso   1.00
C972   C     0.61170   0.86168   0.25001   0.00000  Uiso   1.00
C973   C     0.52620   0.77722   0.41841   0.00000  Uiso   1.00
C974   C     0.97367   0.72244   0.58160   0.00000  Uiso   1.00
C975   C     0.71709   0.98098   0.41810   0.00000  Uiso   1.00
C976   C     0.78193   0.52028   0.58167   0.00000  Uiso   1.00
C977   C     0.97618   0.72070   0.41826   0.00000  Uiso   1.00
C978   C     0.52832   0.77424   0.58196   0.00000  Uiso   1.00
C979   C     0.77998   0.52249   0.41804   0.00000  Uiso   1.00
C980   C     0.71729   0.98151   0.58177   0.00000  Uiso   1.00
C981   C     0.77645   0.52731   0.91844   0.00000  Uiso   1.00
C982   C     0.50016   0.75005   0.85591   0.00000  Uiso   1.00
C983   C     0.72578   0.97005   0.08145   0.00000  Uiso   1.00
C984   C     0.96742   0.73123   0.91808   0.00000  Uiso   1.00
C985   C     0.53033   0.77198   0.08193   0.00000  Uiso   1.00
C986   C     0.72432   0.97279   0.91811   0.00000  Uiso   1.00
C987   C     0.77770   0.52461   0.08200   0.00000  Uiso   1.00
C988   C     0.53150   0.77100   0.91831   0.00000  Uiso   1.00
C989   C     0.96694   0.73131   0.08174   0.00000  Uiso   1.00
C990   C     0.50043   0.74961   0.39831   0.00000  Uiso   1.00
C991   C     0.50029   0.74904   0.60176   0.00000  Uiso   1.00
C992   C     0.74928   0.50056   0.39814   0.00000  Uiso   1.00
C993   C     0.99986   0.75004   0.14409   0.00000  Uiso   1.00
C994   C     0.75004   0.50026   0.60170   0.00000  Uiso   1.00
C995   C     0.75015   0.50032   0.89827   0.00000  Uiso   1.00
C996   C     0.75055   0.99836   0.10173   0.00000  Uiso   1.00
C997   C     0.99996   0.75035   0.89821   0.00000  Uiso   1.00
C998   C     0.99936   0.75050   0.10178   0.00000  Uiso   1.00
C999   C     0.97796   0.71803   0.45900   0.00000  Uiso   1.00
C1000  C     0.52937   0.77496   0.54111   0.00000  Uiso   1.00
C1001  C     0.78036   0.52392   0.45891   0.00000  Uiso   1.00
C1002  C     0.71559   0.98200   0.54082   0.00000  Uiso   1.00
C1003  C     0.52688   0.77793   0.45931   0.00000  Uiso   1.00
C1004  C     0.75004   0.50030   0.85593   0.00000  Uiso   1.00
C1005  C     0.97497   0.72003   0.54074   0.00000  Uiso   1.00
C1006  C     0.71455   0.98345   0.45888   0.00000  Uiso   1.00
C1007  C     0.78251   0.52101   0.54075   0.00000  Uiso   1.00
C1008  C     0.72523   0.97035   0.95891   0.00000  Uiso   1.00
C1009  C     0.77906   0.52521   0.04113   0.00000  Uiso   1.00
C1010  C     0.53230   0.77145   0.95922   0.00000  Uiso   1.00
C1011  C     0.96526   0.73210   0.04076   0.00000  Uiso   1.00
C1012  C     0.77687   0.52809   0.95932   0.00000  Uiso   1.00
C1013  C     0.72779   0.96758   0.04064   0.00000  Uiso   1.00
C1014  C     0.96474   0.73370   0.95883   0.00000  Uiso   1.00
C1015  C     0.75002   0.99940   0.14407   0.00000  Uiso   1.00
C1016  C     0.53041   0.77379   0.04108   0.00000  Uiso   1.00
C1017  C     0.50237   0.74788   0.47965   0.00000  Uiso   1.00
C1018  C     0.50228   0.74760   0.52043   0.00000  Uiso   1.00
C1019  C     0.74799   0.50290   0.47946   0.00000  Uiso   1.00
C1020  C     0.74852   0.50226   0.52028   0.00000  Uiso   1.00
C1021  C     0.75192   0.99830   0.97959   0.00000  Uiso   1.00
C1022  C     0.75263   0.99731   0.02036   0.00000  Uiso   1.00
C1023  C     0.99833   0.75269   0.97957   0.00000  Uiso   1.00
C1024  C     0.99803   0.75280   0.02039   0.00000  Uiso   1.00
C1025  C     0.95611   0.68602   0.47926   0.00000  Uiso   1.00
C1026  C     0.66998   0.58002   0.25000   0.00000  Uiso   1.00
C1027  C     0.55619   0.80303   0.52092   0.00000  Uiso   1.00
C1028  C     0.81263   0.54537   0.47925   0.00000  Uiso   1.00
C1029  C     0.68128   0.96380   0.52033   0.00000  Uiso   1.00
C1030  C     0.55188   0.80748   0.47998   0.00000  Uiso   1.00
C1031  C     0.95077   0.68989   0.52011   0.00000  Uiso   1.00
C1032  C     0.67925   0.96731   0.47912   0.00000  Uiso   1.00
C1033  C     0.81592   0.54056   0.52021   0.00000  Uiso   1.00
C1034  C     0.70113   0.93981   0.97911   0.00000  Uiso   1.00
C1035  C     0.80569   0.55354   0.02105   0.00000  Uiso   1.00
C1036  C     0.56575   0.79091   0.97987   0.00000  Uiso   1.00
H1037  H     0.54512   0.79828   0.40130   0.00000  Uiso   1.00
H1038  H     0.70563   0.94974   0.09817   0.00000  Uiso   1.00
H1039  H     0.94395   0.71540   0.90086   0.00000  Uiso   1.00
H1040  H     0.55492   0.78581   0.09928   0.00000  Uiso   1.00
H1041  H     0.70535   0.95209   0.90062   0.00000  Uiso   1.00
H1042  H     0.79612   0.54570   0.09958   0.00000  Uiso   1.00
H1043  H     0.55543   0.78605   0.90113   0.00000  Uiso   1.00
H1044  H     0.94263   0.71746   0.09927   0.00000  Uiso   1.00
H1045  H     0.99876   0.63951   0.42116   0.00000  Uiso   1.00
H1046  H     0.50168   0.61334   0.46762   0.00000  Uiso   1.00
H1047  H     0.97024   0.59188   0.42896   0.00000  Uiso   1.00
H1048  H     0.95370   0.70254   0.59884   0.00000  Uiso   1.00
H1049  H     0.92527   0.62399   0.47617   0.00000  Uiso   1.00
H1050  H     0.92069   0.65381   0.43357   0.00000  Uiso   1.00
H1051  H     0.54018   0.86174   0.57598   0.00000  Uiso   1.00
H1052  H     0.59238   0.88177   0.58153   0.00000  Uiso   1.00
H1053  H     0.56323   0.89090   0.53693   0.00000  Uiso   1.00
H1054  H     0.60291   0.80843   0.56695   0.00000  Uiso   1.00
H1055  H     0.61722   0.83491   0.52591   0.00000  Uiso   1.00
H1056  H     0.87178   0.52228   0.42647   0.00000  Uiso   1.00
H1057  H     0.89767   0.57193   0.42123   0.00000  Uiso   1.00
H1058  H     0.90230   0.54306   0.46612   0.00000  Uiso   1.00
H1059  H     0.69389   0.96462   0.40099   0.00000  Uiso   1.00
H1060  H     0.82534   0.59029   0.43287   0.00000  Uiso   1.00
H1061  H     0.85115   0.60215   0.47516   0.00000  Uiso   1.00
H1062  H     0.58940   0.95549   0.57420   0.00000  Uiso   1.00
H1063  H     0.62646   0.99772   0.57290   0.00000  Uiso   1.00
H1064  H     0.59608   0.98518   0.53019   0.00000  Uiso   1.00
H1065  H     0.63375   0.91490   0.52530   0.00000  Uiso   1.00
H1066  H     0.65967   0.92336   0.56769   0.00000  Uiso   1.00
H1067  H     0.51526   0.86159   0.42484   0.00000  Uiso   1.00
H1068  H     0.52062   0.88866   0.47066   0.00000  Uiso   1.00
H1069  H     0.55326   0.90277   0.42998   0.00000  Uiso   1.00
H1070  H     0.80605   0.53503   0.59892   0.00000  Uiso   1.00
H1071  H     0.59345   0.86329   0.47637   0.00000  Uiso   1.00
H1072  H     0.59094   0.83385   0.43375   0.00000  Uiso   1.00
H1073  H     0.96865   0.63352   0.57756   0.00000  Uiso   1.00
H1074  H     0.91874   0.60765   0.57926   0.00000  Uiso   1.00
H1075  H     0.95191   0.60197   0.53703   0.00000  Uiso   1.00
H1076  H     0.90257   0.68063   0.56425   0.00000  Uiso   1.00
H1077  H     0.89318   0.65225   0.52271   0.00000  Uiso   1.00
H1078  H     0.61111   0.51923   0.46344   0.00000  Uiso   1.00
H1079  H     0.63900   0.51222   0.41827   0.00000  Uiso   1.00
H1080  H     0.58865   0.98817   0.42489   0.00000  Uiso   1.00
H1081  H     0.95665   0.69996   0.40128   0.00000  Uiso   1.00
H1082  H     0.64506   0.93353   0.43352   0.00000  Uiso   1.00
H1083  H     0.61402   0.94253   0.47435   0.00000  Uiso   1.00
H1084  H     0.86344   0.99551   0.57519   0.00000  Uiso   1.00
H1085  H     0.89082   0.99655   0.52933   0.00000  Uiso   1.00
H1086  H     0.91027   0.52627   0.57012   0.00000  Uiso   1.00
H1087  H     0.87738   0.57257   0.52395   0.00000  Uiso   1.00
H1088  H     0.84811   0.57466   0.56664   0.00000  Uiso   1.00
H1089  H     0.66924   0.85736   0.91982   0.00000  Uiso   1.00
H1090  H     0.71921   0.88314   0.92166   0.00000  Uiso   1.00
H1091  H     0.70224   0.85194   0.96222   0.00000  Uiso   1.00
H1092  H     0.54775   0.79445   0.59951   0.00000  Uiso   1.00
H1093  H     0.64336   0.90252   0.97575   0.00000  Uiso   1.00
H1094  H     0.65345   0.93064   0.93430   0.00000  Uiso   1.00
H1095  H     0.78879   0.61274   0.07536   0.00000  Uiso   1.00
H1096  H     0.84088   0.63288   0.08147   0.00000  Uiso   1.00
H1097  H     0.81243   0.64161   0.03642   0.00000  Uiso   1.00
H1098  H     0.85177   0.55951   0.06760   0.00000  Uiso   1.00
H1099  H     0.86662   0.58556   0.02652   0.00000  Uiso   1.00
H1100  H     0.64062   0.74704   0.97030   0.00000  Uiso   1.00
H1101  H     0.61310   0.74632   0.92445   0.00000  Uiso   1.00
H1102  H     0.65994   0.77705   0.92975   0.00000  Uiso   1.00
H1103  H     0.80439   0.53660   0.40073   0.00000  Uiso   1.00
H1104  H     0.59773   0.82536   0.93367   0.00000  Uiso   1.00
H1105  H     0.62716   0.82307   0.97630   0.00000  Uiso   1.00
H1106  H     0.83897   0.70621   0.07368   0.00000  Uiso   1.00
H1107  H     0.87660   0.74792   0.07297   0.00000  Uiso   1.00
H1108  H     0.84627   0.73632   0.03001   0.00000  Uiso   1.00
H1109  H     0.88297   0.66553   0.02466   0.00000  Uiso   1.00
H1110  H     0.90900   0.67333   0.06711   0.00000  Uiso   1.00
H1111  H     0.76602   0.61154   0.92420   0.00000  Uiso   1.00
H1112  H     0.77085   0.63872   0.97001   0.00000  Uiso   1.00
H1113  H     0.80401   0.65266   0.92965   0.00000  Uiso   1.00
H1114  H     0.69263   0.96842   0.59938   0.00000  Uiso   1.00
H1115  H     0.84367   0.61330   0.97641   0.00000  Uiso   1.00
H1116  H     0.84145   0.58359   0.93396   0.00000  Uiso   1.00
H1117  H     0.75128   0.86314   0.03140   0.00000  Uiso   1.00
H1118  H     0.74804   0.88887   0.07812   0.00000  Uiso   1.00
H1119  H     0.71958   0.84133   0.06958   0.00000  Uiso   1.00
H1120  H     0.67020   0.90354   0.06529   0.00000  Uiso   1.00
H1121  H     0.67478   0.87392   0.02254   0.00000  Uiso   1.00
H1122  H     0.86153   0.77051   0.96321   0.00000  Uiso   1.00
H1123  H     0.88967   0.76350   0.91818   0.00000  Uiso   1.00
H1124  H     0.83905   0.73988   0.92438   0.00000  Uiso   1.00
H1125  H     0.79604   0.54779   0.90137   0.00000  Uiso   1.00
H1126  H     0.89476   0.68461   0.93310   0.00000  Uiso   1.00
H1127  H     0.86367   0.69382   0.97388   0.00000  Uiso   1.00
H1128  H     0.64761   0.82191   0.07909   0.00000  Uiso   1.00
H1129  H     0.62205   0.77215   0.07322   0.00000  Uiso   1.00
H1130  H     0.65238   0.79356   0.03387   0.00000  Uiso   1.00
H1131  H     0.60088   0.85235   0.02534   0.00000  Uiso   1.00
H1132  H     0.57528   0.84008   0.06759   0.00000  Uiso   1.00
O1133  O     0.75000   0.50000   0.25000   0.00000  Uiso   1.00
O1134  O     0.75000   0.96538   0.66251   0.00000  Uiso   1.00
O1135  O     0.96538   0.75000   0.33749   0.00000  Uiso   1.00
O1136  O     0.53461   0.75000   0.66251   0.00000  Uiso   1.00
O1137  O     0.50000   0.71538   0.83749   0.00000  Uiso   1.00
O1138  O     0.50000   0.78462   0.16251   0.00000  Uiso   1.00
O1139  O     0.78461   0.50000   0.83749   0.00000  Uiso   1.00
O1140  O     0.71538   0.50000   0.16251   0.00000  Uiso   1.00
O1141  O     0.50000   0.78461   0.83749   0.00000  Uiso   1.00
O1142  O     0.50000   0.71539   0.16251   0.00000  Uiso   1.00
O1143  O     0.71538   0.50000   0.83749   0.00000  Uiso   1.00
O1144  O     0.75000   0.50000   0.75000   0.00000  Uiso   1.00
O1145  O     0.78461   0.50000   0.16251   0.00000  Uiso   1.00
O1146  O     0.70126   0.58332   0.27298   0.00000  Uiso   1.00
O1147  O     0.79873   0.91668   0.72702   0.00000  Uiso   1.00
O1148  O     0.91668   0.70126   0.27298   0.00000  Uiso   1.00
O1149  O     0.58332   0.79874   0.72702   0.00000  Uiso   1.00
O1150  O     0.79873   0.91668   0.27298   0.00000  Uiso   1.00
O1151  O     0.70126   0.58332   0.72702   0.00000  Uiso   1.00
O1152  O     0.58332   0.79874   0.27298   0.00000  Uiso   1.00
O1153  O     0.91668   0.70126   0.72702   0.00000  Uiso   1.00
O1154  O     0.70126   0.91668   0.72702   0.00000  Uiso   1.00
O1155  O     0.50000   0.75000   0.25000   0.00000  Uiso   1.00
O1156  O     0.79873   0.58332   0.27298   0.00000  Uiso   1.00
O1157  O     0.91668   0.79873   0.72702   0.00000  Uiso   1.00
O1158  O     0.58332   0.70126   0.27298   0.00000  Uiso   1.00
O1159  O     0.79873   0.58332   0.72702   0.00000  Uiso   1.00
O1160  O     0.70126   0.91668   0.27298   0.00000  Uiso   1.00
O1161  O     0.58332   0.70126   0.72702   0.00000  Uiso   1.00
O1162  O     0.91668   0.79873   0.27298   0.00000  Uiso   1.00
O1163  O     0.95126   0.83332   0.77298   0.00000  Uiso   1.00
O1164  O     0.54873   0.66668   0.22702   0.00000  Uiso   1.00
O1165  O     0.66668   0.95127   0.77298   0.00000  Uiso   1.00
O1166  O     0.50000   0.75000   0.75000   0.00000  Uiso   1.00
O1167  O     0.83332   0.54873   0.22702   0.00000  Uiso   1.00
O1168  O     0.54873   0.66668   0.77298   0.00000  Uiso   1.00
O1169  O     0.95126   0.83332   0.22702   0.00000  Uiso   1.00
O1170  O     0.83332   0.54873   0.77298   0.00000  Uiso   1.00
O1171  O     0.66668   0.95127   0.22702   0.00000  Uiso   1.00
O1172  O     0.95126   0.66668   0.22702   0.00000  Uiso   1.00
O1173  O     0.54873   0.83332   0.77298   0.00000  Uiso   1.00
O1174  O     0.66668   0.54873   0.22702   0.00000  Uiso   1.00
O1175  O     0.83332   0.95126   0.77298   0.00000  Uiso   1.00
O1176  O     0.54873   0.83332   0.22702   0.00000  Uiso   1.00
O1177  O     0.75000   0.96538   0.33749   0.00000  Uiso   1.00
O1178  O     0.95126   0.66668   0.77298   0.00000  Uiso   1.00
O1179  O     0.83332   0.95126   0.22702   0.00000  Uiso   1.00
O1180  O     0.66668   0.54873   0.77298   0.00000  Uiso   1.00
O1181  O     0.75000   0.53461   0.66251   0.00000  Uiso   1.00
O1182  O     0.53461   0.75000   0.33749   0.00000  Uiso   1.00
O1183  O     0.96538   0.75000   0.66251   0.00000  Uiso   1.00
O1184  O     0.75000   0.53461   0.33749   0.00000  Uiso   1.00
Zn1185 Zn    0.70052   0.50000   0.21730   0.00000  Uiso   1.00
Zn1186 Zn    0.54947   0.75000   0.28270   0.00000  Uiso   1.00
Zn1187 Zn    0.75000   0.95052   0.71730   0.00000  Uiso   1.00
Zn1188 Zn    0.75000   0.54947   0.28270   0.00000  Uiso   1.00
Zn1189 Zn    0.54947   0.75000   0.71730   0.00000  Uiso   1.00
Zn1190 Zn    0.95052   0.75000   0.28270   0.00000  Uiso   1.00
Zn1191 Zn    0.75000   0.54947   0.71730   0.00000  Uiso   1.00
Zn1192 Zn    0.75000   0.95052   0.28270   0.00000  Uiso   1.00
Zn1193 Zn    0.79947   0.50000   0.78270   0.00000  Uiso   1.00
Zn1194 Zn    0.50000   0.70052   0.21730   0.00000  Uiso   1.00
Zn1195 Zn    0.50000   0.79947   0.78270   0.00000  Uiso   1.00
Zn1196 Zn    0.79947   0.50000   0.21730   0.00000  Uiso   1.00
Zn1197 Zn    0.70052   0.50000   0.78270   0.00000  Uiso   1.00
Zn1198 Zn    0.50000   0.79947   0.21730   0.00000  Uiso   1.00
Zn1199 Zn    0.50000   0.70052   0.78270   0.00000  Uiso   1.00
Zn1200 Zn    0.95052   0.75000   0.71730   0.00000  Uiso   1.00
loop_
_geom_bond_atom_site_label_1
_geom_bond_atom_site_label_2
_geom_bond_distance
_geom_bond_site_symmetry_2
_ccdc_geom_bond_type
C1     C92     1.453   .     S
C1     O284    1.270   .     A
C1     O877    1.272   1_545 S
C2     O247    1.276   .     A
C2     C68     1.422   .     S
C2     O275    1.276   .     A
C3     C111    1.425   .     A
C3     C32     1.523   .     S
C3     C6      1.424   1_554 S
C4     C112    1.425   .     A
C4     C34     1.536   .     S
C4     C135    1.422   1_556 S
C5     C37     1.532   .     S
C5     C113    1.420   .     A
C5     C134    1.420   1_554 S
C6     C114    1.422   .     A
C6     C39     1.538   .     S
C6     C3      1.424   1_556 S
C7     C116    1.421   .     A
C7     C41     1.527   .     S
C7     C136    1.421   1_554 S
C8     H150    1.109   .     S
C8     H149    1.100   .     S
C8     C125    1.532   .     S
C8     C9      1.532   .     S
C9     H145    1.108   .     S
C9     H147    1.109   .     S
C9     H446    1.111   .     S
C10    H154    1.109   .     S
C10    H155    1.107   .     S
C10    C11     1.528   .     S
C10    C127    1.524   .     S
C11    H151    1.109   .     S
C11    H153    1.109   .     S
C11    H152    1.109   .     S
C12    H161    1.107   .     S
C12    C128    1.527   .     S
C12    H160    1.109   .     S
C12    C14     1.529   .     S
C13    O272    1.276   .     A
C13    O248    1.276   .     A
C13    C67     1.429   .     S
C14    H158    1.109   .     S
C14    H156    1.110   .     S
C14    H157    1.109   .     S
C15    H166    1.107   .     S
C15    C129    1.523   .     S
C15    C16     1.531   .     S
C15    H165    1.103   .     S
C16    H162    1.108   .     S
C16    H164    1.109   .     S
C16    H163    1.110   .     S
C17    C18     1.530   .     S
C17    H172    1.109   .     S
C17    C130    1.535   .     S
C17    H171    1.101   .     S
C18    H167    1.108   .     S
C18    H169    1.111   .     S
C18    H168    1.111   .     S
C19    C20     1.530   .     S
C19    H176    1.109   .     S
C19    H177    1.108   .     S
C19    C131    1.526   .     S
C20    H175    1.110   .     S
C20    H174    1.109   .     S
C20    H173    1.109   .     S
C21    C22     1.531   .     S
C21    C132    1.538   .     S
C21    H182    1.109   .     S
C21    H183    1.100   .     S
C22    H180    1.111   .     S
C22    H778    1.111   .     S
C22    H779    1.108   .     S
C23    H188    1.109   .     S
C23    H187    1.100   .     S
C23    C133    1.531   .     S
C23    C25     1.530   .     S
C24    O249    1.276   .     A
C24    C66     1.429   .     S
C24    O273    1.276   .     A
C25    H186    1.110   .     S
C25    H784    1.108   1_545 S
C25    H785    1.111   1_545 S
C26    H194    1.109   .     S
C26    C134    1.527   .     S
C26    C27     1.530   .     S
C26    H193    1.108   .     S
C27    H190    1.109   .     S
C27    H191    1.110   .     S
C27    H189    1.109   .     S
C28    C135    1.525   .     S
C28    H199    1.106   .     S
C28    C29     1.527   .     S
C28    H198    1.109   .     S
C29    H195    1.109   .     S
C29    H196    1.109   .     S
C29    H197    1.109   .     S
C30    C136    1.531   .     S
C30    H205    1.100   .     S
C30    C31     1.530   .     S
C30    H204    1.109   .     S
C31    H200    1.111   .     S
C31    H202    1.110   .     S
C31    H201    1.108   .     S
C32    H209    1.104   .     S
C32    H210    1.107   .     S
C32    C33     1.531   .     S
C33    H208    1.109   .     S
C33    H207    1.110   .     S
C33    H206    1.108   .     S
C34    H215    1.101   .     S
C34    H216    1.109   .     S
C34    C36     1.530   .     S
C35    O250    1.277   .     A
C35    C65     1.422   .     S
C35    O279    1.277   .     A
C36    H212    1.111   .     S
C36    H211    1.108   .     S
C36    H213    1.111   .     S
C37    C38     1.532   .     S
C37    H221    1.100   .     S
C37    H220    1.109   .     S
C38    H218    1.108   .     S
C38    H219    1.109   .     S
C38    H217    1.111   .     S
C39    H226    1.109   .     S
C39    C40     1.531   .     S
C39    H227    1.101   .     S
C40    H223    1.108   .     S
C40    H222    1.111   .     S
C40    H224    1.111   .     S
C41    H231    1.108   .     S
C41    C42     1.529   .     S
C41    H232    1.109   .     S
C42    H229    1.110   .     S
C42    H228    1.109   .     S
C42    H230    1.109   .     S
C43    O251    1.277   .     A
C43    C64     1.422   .     S
C43    O280    1.277   .     A
C44    O276    1.276   .     A
C44    C72     1.429   .     S
C44    O252    1.277   .     A
C45    C70     1.429   .     S
C45    O278    1.276   .     A
C45    O253    1.277   .     A
C46    O265    1.276   .     A
C46    C61     1.429   .     S
C46    O254    1.276   .     A
C47    O267    1.276   .     A
C47    O256    1.276   .     A
C47    C59     1.429   .     S
C48    O263    1.276   .     A
C48    O257    1.276   .     A
C48    C58     1.422   .     S
C49    O281    1.271   .     A
C49    C94     1.457   .     S
C49    O834    1.274   1_545 S
C50    C57     1.422   .     S
C50    O258    1.276   .     A
C50    O264    1.276   .     A
C51    O270    1.277   .     A
C51    O259    1.276   .     A
C51    C56     1.429   .     S
C52    O260    1.276   .     A
C52    C55     1.429   .     S
C52    O271    1.277   .     A
C53    O261    1.277   .     A
C53    C63     1.422   .     S
C53    O268    1.277   .     A
C54    O269    1.277   .     A
C54    C62     1.422   .     S
C54    O262    1.277   .     A
C55    C72     1.202   .     T
C56    C70     1.202   .     T
C57    C69     1.198   .     T
C58    C68     1.198   .     T
C59    C67     1.202   .     T
C60    C90     1.457   .     S
C60    O282    1.271   .     A
C60    O535    1.273   1_455 S
C61    C66     1.202   .     T
C62    C65     1.198   .     T
C63    C64     1.198   .     T
C69    C126    1.422   .     S
C71    O583    1.272   1_455 A
C71    C91     1.456   .     S
C71    O236    1.271   .     S
C73    H137    1.080   .     S
C73    C103    1.407   .     A
C73    C90     1.389   .     A
C74    C105    1.408   .     A
C74    H148    1.079   .     S
C74    C391    1.386   .     S
C75    C106    1.407   .     A
C75    H159    1.080   .     S
C75    C692    1.386   .     S
C76    C94     1.386   .     A
C76    H170    1.079   .     S
C76    C107    1.408   .     A
C77    H181    1.080   .     S
C77    C99     1.405   .     A
C77    C390    1.388   .     S
C78    H192    1.079   .     S
C78    C100    1.406   .     A
C78    C91     1.384   .     A
C79    C101    1.406   .     A
C79    C92     1.385   .     A
C79    H203    1.080   .     S
C80    C102    1.409   .     A
C80    H214    1.078   .     S
C80    C694    1.385   .     S
C81    C95     1.388   .     A
C81    C112    1.406   .     A
C81    H225    1.079   .     S
C82    C397    1.455   1_455 S
C82    O237    1.272   .     S
C82    O241    1.271   .     S
C83    H138    1.080   .     S
C83    C96     1.388   .     A
C83    C113    1.407   .     A
C84    C114    1.406   .     A
C84    C97     1.386   .     A
C84    H139    1.080   .     S
C85    C116    1.406   .     A
C85    H140    1.080   .     S
C85    C398    1.384   1_455 S
C86    C108    1.406   .     A
C86    H141    1.079   .     S
C86    C695    1.386   .     S
C87    C109    1.406   .     A
C87    H142    1.079   .     S
C87    C696    1.385   1_545 S
C88    H143    1.079   .     S
C88    C110    1.407   .     A
C88    C397    1.387   1_455 S
C89    C98     1.385   .     A
C89    H144    1.078   .     S
C89    C111    1.410   .     A
C90    C377    1.388   1_455 S
C91    C374    1.386   1_455 S
C92    C675    1.386   1_545 S
C93    C98     1.455   .     S
C93    O538    1.270   .     S
C93    O542    1.273   .     S
C94    C680    1.385   1_545 S
C95    C104    1.456   .     S
C95    C686    1.386   1_545 S
C96    C115    1.457   .     S
C96    C687    1.385   .     S
C97    C388    1.387   .     S
C97    C382    1.455   .     S
C98    C385    1.384   .     S
C99    C125    1.421   .     A
C99    C417    1.421   .     S
C100   C127    1.422   .     A
C100   C118    1.420   .     A
C101   C119    1.421   .     A
C101   C128    1.421   .     A
C102   C129    1.425   .     A
C102   C720    1.423   .     S
C103   C117    1.423   .     A
C103   C130    1.425   .     A
C104   O239    1.271   .     S
C104   O243    1.272   .     S
C105   C131    1.423   .     A
C105   C418    1.424   .     S
C106   C132    1.422   .     A
C106   C719    1.422   .     S
C107   C120    1.424   .     A
C107   C133    1.424   .     A
C108   C121    1.423   .     A
C108   C134    1.424   .     A
C109   C135    1.422   .     A
C109   C722    1.419   1_545 S
C110   C136    1.424   .     A
C110   C423    1.424   1_455 S
C111   C124    1.423   .     A
C112   C721    1.424   1_545 S
C113   C122    1.421   .     A
C114   C123    1.422   .     A
C115   O845    1.271   .     A
C115   O840    1.273   .     A
C116   C424    1.422   1_455 S
C117   C118    1.402   .     A
C117   C399    1.421   1_455 S
C118   C405    1.424   1_455 S
C119   C120    1.404   .     A
C119   C706    1.422   1_545 S
C120   C702    1.423   1_545 S
C121   C712    1.424   .     S
C121   C122    1.403   1_556 S
C122   C709    1.419   .     S
C122   C121    1.403   1_554 S
C123   C410    1.424   .     S
C123   C124    1.404   1_556 S
C124   C416    1.422   .     S
C124   C123    1.404   1_554 S
C125   C131    1.420   .     A
C126   O246    1.276   .     A
C126   O274    1.276   .     A
C127   C130    1.422   .     A
C128   C133    1.421   .     A
C129   C132    1.423   .     A
C134   C5      1.420   1_556 S
C135   C4      1.422   1_554 S
C136   C7      1.421   1_556 S
H146   C309    1.111   1_455 S
H178   C622    1.111   1_545 S
H179   C622    1.108   1_545 S
H184   C625    1.108   .     S
H185   C625    1.111   .     S
O233   Zn892   1.937   1_545 S
O233   Zn296   1.937   .     S
O233   Zn285   1.935   .     S
O233   Zn288   1.935   .     S
O234   Zn287   1.944   .     S
O234   C649    1.274   .     S
O235   Zn290   1.942   .     S
O235   C360    1.273   .     S
O236   Zn289   1.942   .     S
O237   Zn299   1.942   .     S
O238   C393    1.270   1_455 S
O238   Zn298   1.942   .     S
O239   Zn293   1.943   .     S
O240   Zn285   1.943   .     S
O240   C715    1.273   1_545 A
O241   Zn295   1.944   .     S
O242   C393    1.273   1_455 S
O242   Zn294   1.944   .     S
O243   Zn297   1.942   .     S
O244   Zn293   1.935   .     S
O244   Zn297   1.937   .     S
O244   Zn887   1.935   1_545 S
O244   Zn291   1.937   .     S
O245   Zn296   1.942   .     S
O245   C715    1.271   1_545 A
O246   Zn288   1.914   .     S
O247   Zn287   1.914   .     S
O248   Zn290   1.923   .     S
O249   Zn289   1.923   .     S
O250   Zn292   1.914   .     S
O251   Zn291   1.914   .     S
O252   Zn286   1.924   .     S
O253   Zn300   1.924   .     S
O254   Zn287   1.924   .     S
O255   Zn590   1.937   1_455 S
O255   Zn294   1.935   .     S
O255   Zn298   1.937   .     S
O255   Zn286   1.935   .     S
O256   Zn288   1.924   .     S
O257   Zn300   1.914   .     S
O258   Zn286   1.914   .     S
O259   Zn291   1.923   .     S
O260   Zn292   1.923   .     S
O261   Zn289   1.915   .     S
O262   Zn290   1.915   .     S
O263   Zn595   1.914   .     S
O264   Zn294   1.914   .     S
O265   Zn897   1.923   .     S
O266   Zn295   1.935   .     S
O266   Zn299   1.937   .     S
O266   Zn600   1.935   1_455 S
O266   Zn289   1.937   .     S
O267   Zn296   1.923   .     S
O268   Zn299   1.914   .     S
O269   Zn598   1.914   .     S
O270   Zn293   1.924   .     S
O271   Zn885   1.924   .     S
O272   Zn594   1.924   .     S
O273   Zn295   1.924   .     S
O274   Zn285   1.914   .     S
O275   Zn893   1.914   .     S
O276   Zn298   1.923   .     S
O277   Zn292   1.942   .     S
O277   C601    1.272   .     S
O278   Zn599   1.923   .     S
O279   Zn896   1.915   .     S
O280   Zn297   1.915   .     S
O281   Zn291   1.942   .     S
O282   Zn286   1.943   .     S
O283   C371    1.272   .     A
O283   Zn300   1.943   .     S
O284   Zn288   1.944   .     S
Zn285  O871    1.924   1_545 S
Zn287  O844    1.935   .     S
Zn290  O555    1.937   .     S
Zn292  O833    1.937   .     S
Zn293  O875    1.914   1_545 S
Zn294  O572    1.924   1_455 S
Zn295  O563    1.914   1_455 S
Zn296  O879    1.915   1_545 S
Zn297  O865    1.923   1_545 S
Zn298  O569    1.914   1_455 S
Zn299  O578    1.923   1_455 S
Zn300  O566    1.935   .     S
C301   C392    1.453   .     S
C301   O584    1.270   .     A
C301   O1177   1.272   1_545 S
C302   O547    1.276   .     A
C302   C368    1.422   .     S
C302   O575    1.276   .     A
C303   C411    1.425   .     A
C303   C332    1.523   .     S
C303   C306    1.424   1_554 S
C304   C412    1.425   .     A
C304   C334    1.536   .     S
C304   C435    1.422   1_556 S
C305   C337    1.532   .     S
C305   C413    1.420   .     A
C305   C434    1.420   1_554 S
C306   C414    1.422   .     A
C306   C339    1.538   .     S
C306   C303    1.424   1_556 S
C307   C416    1.421   .     A
C307   C341    1.527   .     S
C307   C436    1.421   1_554 S
C308   H450    1.109   .     S
C308   H449    1.100   .     S
C308   C425    1.532   .     S
C308   C309    1.532   .     S
C309   H445    1.108   .     S
C309   H447    1.109   .     S
C309   H146    1.111   1_655 S
C310   H454    1.109   .     S
C310   H455    1.107   .     S
C310   C311    1.528   .     S
C310   C427    1.524   .     S
C311   H451    1.109   .     S
C311   H453    1.109   .     S
C311   H452    1.109   .     S
C312   H461    1.107   .     S
C312   C428    1.527   .     S
C312   H460    1.109   .     S
C312   C314    1.529   .     S
C313   O572    1.276   .     A
C313   O548    1.276   .     A
C313   C367    1.429   .     S
C314   H458    1.109   .     S
C314   H456    1.110   .     S
C314   H457    1.109   .     S
C315   H466    1.107   .     S
C315   C429    1.523   .     S
C315   C316    1.531   .     S
C315   H465    1.103   .     S
C316   H462    1.108   .     S
C316   H464    1.109   .     S
C316   H463    1.110   .     S
C317   C318    1.530   .     S
C317   H472    1.109   .     S
C317   C430    1.535   .     S
C317   H471    1.101   .     S
C318   H467    1.108   .     S
C318   H469    1.111   .     S
C318   H468    1.111   .     S
C319   C320    1.530   .     S
C319   H476    1.109   .     S
C319   H477    1.108   .     S
C319   C431    1.526   .     S
C320   H475    1.110   .     S
C320   H474    1.109   .     S
C320   H473    1.109   .     S
C321   C322    1.531   .     S
C321   C432    1.538   .     S
C321   H482    1.109   .     S
C321   H483    1.100   .     S
C322   H480    1.111   .     S
C322   H1078   1.111   .     S
C322   H1079   1.108   .     S
C323   H488    1.109   .     S
C323   H487    1.100   .     S
C323   C433    1.531   .     S
C323   C325    1.530   .     S
C324   O549    1.276   .     A
C324   C366    1.429   .     S
C324   O573    1.276   .     A
C325   H486    1.110   .     S
C325   H1084   1.108   1_545 S
C325   H1085   1.111   1_545 S
C326   H494    1.109   .     S
C326   C434    1.527   .     S
C326   C327    1.530   .     S
C326   H493    1.108   .     S
C327   H490    1.109   .     S
C327   H491    1.110   .     S
C327   H489    1.109   .     S
C328   C435    1.525   .     S
C328   H499    1.106   .     S
C328   C329    1.527   .     S
C328   H498    1.109   .     S
C329   H495    1.109   .     S
C329   H496    1.109   .     S
C329   H497    1.109   .     S
C330   C436    1.531   .     S
C330   H505    1.100   .     S
C330   C331    1.530   .     S
C330   H504    1.109   .     S
C331   H500    1.111   .     S
C331   H502    1.110   .     S
C331   H501    1.108   .     S
C332   H509    1.104   .     S
C332   H510    1.107   .     S
C332   C333    1.531   .     S
C333   H508    1.109   .     S
C333   H507    1.110   .     S
C333   H506    1.108   .     S
C334   H515    1.101   .     S
C334   H516    1.109   .     S
C334   C336    1.530   .     S
C335   O550    1.277   .     A
C335   C365    1.422   .     S
C335   O579    1.277   .     A
C336   H512    1.111   .     S
C336   H511    1.108   .     S
C336   H513    1.111   .     S
C337   C338    1.532   .     S
C337   H521    1.100   .     S
C337   H520    1.109   .     S
C338   H518    1.108   .     S
C338   H519    1.109   .     S
C338   H517    1.111   .     S
C339   H526    1.109   .     S
C339   C340    1.531   .     S
C339   H527    1.101   .     S
C340   H523    1.108   .     S
C340   H522    1.111   .     S
C340   H524    1.111   .     S
C341   H531    1.108   .     S
C341   C342    1.529   .     S
C341   H532    1.109   .     S
C342   H529    1.110   .     S
C342   H528    1.109   .     S
C342   H530    1.109   .     S
C343   O551    1.277   .     A
C343   C364    1.422   .     S
C343   O580    1.277   .     A
C344   O576    1.276   .     A
C344   C372    1.429   .     S
C344   O552    1.277   .     A
C345   C370    1.429   .     S
C345   O578    1.276   .     A
C345   O553    1.277   .     A
C346   O565    1.276   .     A
C346   C361    1.429   .     S
C346   O554    1.276   .     A
C347   O567    1.276   .     A
C347   O556    1.276   .     A
C347   C359    1.429   .     S
C348   O563    1.276   .     A
C348   O557    1.276   .     A
C348   C358    1.422   .     S
C349   O581    1.271   .     A
C349   C394    1.457   .     S
C349   O1134   1.274   1_545 S
C350   C357    1.422   .     S
C350   O558    1.276   .     A
C350   O564    1.276   .     A
C351   O570    1.277   .     A
C351   O559    1.276   .     A
C351   C356    1.429   .     S
C352   O560    1.276   .     A
C352   C355    1.429   .     S
C352   O571    1.277   .     A
C353   O561    1.277   .     A
C353   C363    1.422   .     S
C353   O568    1.277   .     A
C354   O569    1.277   .     A
C354   C362    1.422   .     S
C354   O562    1.277   .     A
C355   C372    1.202   .     T
C356   C370    1.202   .     T
C357   C369    1.198   .     T
C358   C368    1.198   .     T
C359   C367    1.202   .     T
C360   C390    1.457   .     S
C360   O582    1.271   .     A
C361   C366    1.202   .     T
C362   C365    1.198   .     T
C363   C364    1.198   .     T
C369   C426    1.422   .     S
C371   C391    1.456   .     S
C371   O536    1.271   .     S
C373   H437    1.080   .     S
C373   C403    1.407   .     A
C373   C390    1.389   .     A
C374   C405    1.408   .     A
C374   H448    1.079   .     S
C374   C91     1.386   1_655 S
C375   C406    1.407   .     A
C375   H459    1.080   .     S
C375   C992    1.386   .     S
C376   C394    1.386   .     A
C376   H470    1.079   .     S
C376   C407    1.408   .     A
C377   H481    1.080   .     S
C377   C399    1.405   .     A
C377   C90     1.388   1_655 S
C378   H492    1.079   .     S
C378   C400    1.406   .     A
C378   C391    1.384   .     A
C379   C401    1.406   .     A
C379   C392    1.385   .     A
C379   H503    1.080   .     S
C380   C402    1.409   .     A
C380   H514    1.078   .     S
C380   C994    1.385   .     S
C381   C395    1.388   .     A
C381   C412    1.406   .     A
C381   H525    1.079   .     S
C382   O537    1.272   .     S
C382   O541    1.271   .     S
C383   H438    1.080   .     S
C383   C396    1.388   .     A
C383   C413    1.407   .     A
C384   C414    1.406   .     A
C384   C397    1.386   .     A
C384   H439    1.080   .     S
C385   C416    1.406   .     A
C385   H440    1.080   .     S
C386   C408    1.406   .     A
C386   H441    1.079   .     S
C386   C995    1.386   .     S
C387   C409    1.406   .     A
C387   H442    1.079   .     S
C387   C996    1.385   1_545 S
C388   H443    1.079   .     S
C388   C410    1.407   .     A
C389   C398    1.385   .     A
C389   H444    1.078   .     S
C389   C411    1.410   .     A
C392   C975    1.386   1_545 S
C393   C398    1.455   .     S
C393   O238    1.270   1_655 S
C393   O242    1.273   1_655 S
C394   C980    1.385   1_545 S
C395   C404    1.456   .     S
C395   C986    1.386   1_545 S
C396   C415    1.457   .     S
C396   C987    1.385   .     S
C397   C88     1.387   1_655 S
C397   C82     1.455   1_655 S
C398   C85     1.384   1_655 S
C399   C425    1.421   .     A
C399   C117    1.421   1_655 S
C400   C427    1.422   .     A
C400   C418    1.420   .     A
C401   C419    1.421   .     A
C401   C428    1.421   .     A
C402   C429    1.425   .     A
C402   C1020   1.423   .     S
C403   C417    1.423   .     A
C403   C430    1.425   .     A
C404   O539    1.271   .     S
C404   O543    1.272   .     S
C405   C431    1.423   .     A
C405   C118    1.424   1_655 S
C406   C432    1.422   .     A
C406   C1019   1.422   .     S
C407   C420    1.424   .     A
C407   C433    1.424   .     A
C408   C421    1.423   .     A
C408   C434    1.424   .     A
C409   C435    1.422   .     A
C409   C1022   1.419   1_545 S
C410   C436    1.424   .     A
C411   C424    1.423   .     A
C412   C1021   1.424   1_545 S
C413   C422    1.421   .     A
C414   C423    1.422   .     A
C415   O1145   1.271   .     A
C415   O1140   1.273   .     A
C417   C418    1.402   .     A
C419   C420    1.404   .     A
C419   C1006   1.422   1_545 S
C420   C1002   1.423   1_545 S
C421   C1012   1.424   .     S
C421   C422    1.403   1_556 S
C422   C1009   1.419   .     S
C422   C421    1.403   1_554 S
C423   C110    1.424   1_655 S
C423   C424    1.404   1_556 S
C424   C116    1.422   1_655 S
C424   C423    1.404   1_554 S
C425   C431    1.420   .     A
C426   O546    1.276   .     A
C426   O574    1.276   .     A
C427   C430    1.422   .     A
C428   C433    1.421   .     A
C429   C432    1.423   .     A
C434   C305    1.420   1_556 S
C435   C304    1.422   1_554 S
C436   C307    1.421   1_556 S
H478   C922    1.111   1_545 S
H479   C922    1.108   1_545 S
H484   C925    1.108   .     S
H485   C925    1.111   .     S
O533   Zn1192  1.937   1_545 S
O533   Zn596   1.937   .     S
O533   Zn585   1.935   .     S
O533   Zn588   1.935   .     S
O534   Zn587   1.944   .     S
O534   C949    1.274   .     S
O535   Zn590   1.942   .     S
O535   C60     1.273   1_655 S
O536   Zn589   1.942   .     S
O537   Zn599   1.942   .     S
O538   Zn598   1.942   .     S
O539   Zn593   1.943   .     S
O540   Zn585   1.943   .     S
O540   C1015   1.273   1_545 A
O541   Zn595   1.944   .     S
O542   Zn594   1.944   .     S
O543   Zn597   1.942   .     S
O544   Zn593   1.935   .     S
O544   Zn597   1.937   .     S
O544   Zn1187  1.935   1_545 S
O544   Zn591   1.937   .     S
O545   Zn596   1.942   .     S
O545   C1015   1.271   1_545 A
O546   Zn588   1.914   .     S
O547   Zn587   1.914   .     S
O548   Zn590   1.923   .     S
O549   Zn589   1.923   .     S
O550   Zn592   1.914   .     S
O551   Zn591   1.914   .     S
O552   Zn586   1.924   .     S
O553   Zn600   1.924   .     S
O554   Zn587   1.924   .     S
O555   Zn594   1.935   .     S
O555   Zn598   1.937   .     S
O555   Zn586   1.935   .     S
O556   Zn588   1.924   .     S
O557   Zn600   1.914   .     S
O558   Zn586   1.914   .     S
O559   Zn591   1.923   .     S
O560   Zn592   1.923   .     S
O561   Zn589   1.915   .     S
O562   Zn590   1.915   .     S
O563   Zn295   1.914   1_655 S
O564   Zn594   1.914   .     S
O565   Zn1197  1.923   .     S
O566   Zn595   1.935   .     S
O566   Zn599   1.937   .     S
O566   Zn589   1.937   .     S
O567   Zn596   1.923   .     S
O568   Zn599   1.914   .     S
O569   Zn298   1.914   1_655 S
O570   Zn593   1.924   .     S
O571   Zn1185  1.924   .     S
O572   Zn294   1.924   1_655 S
O573   Zn595   1.924   .     S
O574   Zn585   1.914   .     S
O575   Zn1193  1.914   .     S
O576   Zn598   1.923   .     S
O577   Zn592   1.942   .     S
O577   C901    1.272   .     S
O578   Zn299   1.923   1_655 S
O579   Zn1196  1.915   .     S
O580   Zn597   1.915   .     S
O581   Zn591   1.942   .     S
O582   Zn586   1.943   .     S
O583   C71     1.272   1_655 A
O583   Zn600   1.943   .     S
O584   Zn588   1.944   .     S
Zn585  O1171   1.924   1_545 S
Zn587  O1144   1.935   .     S
Zn590  O255    1.937   1_655 S
Zn592  O1133   1.937   .     S
Zn593  O1175   1.914   1_545 S
Zn596  O1179   1.915   1_545 S
Zn597  O1165   1.923   1_545 S
Zn600  O266    1.935   1_655 S
C601   C692    1.453   .     S
C601   O884    1.270   .     A
C602   O847    1.276   .     A
C602   C668    1.422   .     S
C602   O875    1.276   .     A
C603   C711    1.425   .     A
C603   C632    1.523   .     S
C603   C606    1.424   1_554 S
C604   C712    1.425   .     A
C604   C634    1.536   .     S
C604   C735    1.422   1_556 S
C605   C637    1.532   .     S
C605   C713    1.420   .     A
C605   C734    1.420   1_554 S
C606   C714    1.422   .     A
C606   C639    1.538   .     S
C606   C603    1.424   1_556 S
C607   C716    1.421   .     A
C607   C641    1.527   .     S
C607   C736    1.421   1_554 S
C608   H750    1.109   .     S
C608   H749    1.100   .     S
C608   C725    1.532   .     S
C608   C609    1.532   .     S
C609   H745    1.108   .     S
C609   H747    1.109   .     S
C609   H1046   1.111   .     S
C610   H754    1.109   .     S
C610   H755    1.107   .     S
C610   C611    1.528   .     S
C610   C727    1.524   .     S
C611   H751    1.109   .     S
C611   H753    1.109   .     S
C611   H752    1.109   .     S
C612   H761    1.107   .     S
C612   C728    1.527   .     S
C612   H760    1.109   .     S
C612   C614    1.529   .     S
C613   O872    1.276   .     A
C613   O848    1.276   .     A
C613   C667    1.429   .     S
C614   H758    1.109   .     S
C614   H756    1.110   .     S
C614   H757    1.109   .     S
C615   H766    1.107   .     S
C615   C729    1.523   .     S
C615   C616    1.531   .     S
C615   H765    1.103   .     S
C616   H762    1.108   .     S
C616   H764    1.109   .     S
C616   H763    1.110   .     S
C617   C618    1.530   .     S
C617   H772    1.109   .     S
C617   C730    1.535   .     S
C617   H771    1.101   .     S
C618   H767    1.108   .     S
C618   H769    1.111   .     S
C618   H768    1.111   .     S
C619   C620    1.530   .     S
C619   H776    1.109   .     S
C619   H777    1.108   .     S
C619   C731    1.526   .     S
C620   H775    1.110   .     S
C620   H774    1.109   .     S
C620   H773    1.109   .     S
C621   C622    1.531   .     S
C621   C732    1.538   .     S
C621   H782    1.109   .     S
C621   H783    1.100   .     S
C622   H780    1.111   .     S
C622   H178    1.111   1_565 S
C622   H179    1.108   1_565 S
C623   H788    1.109   .     S
C623   H787    1.100   .     S
C623   C733    1.531   .     S
C623   C625    1.530   .     S
C624   O849    1.276   .     A
C624   C666    1.429   .     S
C624   O873    1.276   .     A
C625   H786    1.110   .     S
C626   H794    1.109   .     S
C626   C734    1.527   .     S
C626   C627    1.530   .     S
C626   H793    1.108   .     S
C627   H790    1.109   .     S
C627   H791    1.110   .     S
C627   H789    1.109   .     S
C628   C735    1.525   .     S
C628   H799    1.106   .     S
C628   C629    1.527   .     S
C628   H798    1.109   .     S
C629   H795    1.109   .     S
C629   H796    1.109   .     S
C629   H797    1.109   .     S
C630   C736    1.531   .     S
C630   H805    1.100   .     S
C630   C631    1.530   .     S
C630   H804    1.109   .     S
C631   H800    1.111   .     S
C631   H802    1.110   .     S
C631   H801    1.108   .     S
C632   H809    1.104   .     S
C632   H810    1.107   .     S
C632   C633    1.531   .     S
C633   H808    1.109   .     S
C633   H807    1.110   .     S
C633   H806    1.108   .     S
C634   H815    1.101   .     S
C634   H816    1.109   .     S
C634   C636    1.530   .     S
C635   O850    1.277   .     A
C635   C665    1.422   .     S
C635   O879    1.277   .     A
C636   H812    1.111   .     S
C636   H811    1.108   .     S
C636   H813    1.111   .     S
C637   C638    1.532   .     S
C637   H821    1.100   .     S
C637   H820    1.109   .     S
C638   H818    1.108   .     S
C638   H819    1.109   .     S
C638   H817    1.111   .     S
C639   H826    1.109   .     S
C639   C640    1.531   .     S
C639   H827    1.101   .     S
C640   H823    1.108   .     S
C640   H822    1.111   .     S
C640   H824    1.111   .     S
C641   H831    1.108   .     S
C641   C642    1.529   .     S
C641   H832    1.109   .     S
C642   H829    1.110   .     S
C642   H828    1.109   .     S
C642   H830    1.109   .     S
C643   O851    1.277   .     A
C643   C664    1.422   .     S
C643   O880    1.277   .     A
C644   O876    1.276   .     A
C644   C672    1.429   .     S
C644   O852    1.277   .     A
C645   C670    1.429   .     S
C645   O878    1.276   .     A
C645   O853    1.277   .     A
C646   O865    1.276   .     A
C646   C661    1.429   .     S
C646   O854    1.276   .     A
C647   O867    1.276   .     A
C647   O856    1.276   .     A
C647   C659    1.429   .     S
C648   O863    1.276   .     A
C648   O857    1.276   .     A
C648   C658    1.422   .     S
C649   O881    1.271   .     A
C649   C694    1.457   .     S
C650   C657    1.422   .     S
C650   O858    1.276   .     A
C650   O864    1.276   .     A
C651   O870    1.277   .     A
C651   O859    1.276   .     A
C651   C656    1.429   .     S
C652   O860    1.276   .     A
C652   C655    1.429   .     S
C652   O871    1.277   .     A
C653   O861    1.277   .     A
C653   C663    1.422   .     S
C653   O868    1.277   .     A
C654   O869    1.277   .     A
C654   C662    1.422   .     S
C654   O862    1.277   .     A
C655   C672    1.202   .     T
C656   C670    1.202   .     T
C657   C669    1.198   .     T
C658   C668    1.198   .     T
C659   C667    1.202   .     T
C660   C690    1.457   .     S
C660   O882    1.271   .     A
C660   O1135   1.273   1_455 S
C661   C666    1.202   .     T
C662   C665    1.198   .     T
C663   C664    1.198   .     T
C669   C726    1.422   .     S
C671   O1183   1.272   1_455 A
C671   C691    1.456   .     S
C671   O836    1.271   .     S
C673   H737    1.080   .     S
C673   C703    1.407   .     A
C673   C690    1.389   .     A
C674   C705    1.408   .     A
C674   H748    1.079   .     S
C674   C991    1.386   .     S
C675   C706    1.407   .     A
C675   H759    1.080   .     S
C675   C92     1.386   1_565 S
C676   C694    1.386   .     A
C676   H770    1.079   .     S
C676   C707    1.408   .     A
C677   H781    1.080   .     S
C677   C699    1.405   .     A
C677   C990    1.388   .     S
C678   H792    1.079   .     S
C678   C700    1.406   .     A
C678   C691    1.384   .     A
C679   C701    1.406   .     A
C679   C692    1.385   .     A
C679   H803    1.080   .     S
C680   C702    1.409   .     A
C680   H814    1.078   .     S
C680   C94     1.385   1_565 S
C681   C695    1.388   .     A
C681   C712    1.406   .     A
C681   H825    1.079   .     S
C682   C997    1.455   1_455 S
C682   O837    1.272   .     S
C682   O841    1.271   .     S
C683   H738    1.080   .     S
C683   C696    1.388   .     A
C683   C713    1.407   .     A
C684   C714    1.406   .     A
C684   C697    1.386   .     A
C684   H739    1.080   .     S
C685   C716    1.406   .     A
C685   H740    1.080   .     S
C685   C998    1.384   1_455 S
C686   C708    1.406   .     A
C686   H741    1.079   .     S
C686   C95     1.386   1_565 S
C687   C709    1.406   .     A
C687   H742    1.079   .     S
C688   H743    1.079   .     S
C688   C710    1.407   .     A
C688   C997    1.387   1_455 S
C689   C698    1.385   .     A
C689   H744    1.078   .     S
C689   C711    1.410   .     A
C690   C977    1.388   1_455 S
C691   C974    1.386   1_455 S
C693   C698    1.455   .     S
C693   O1138   1.270   .     S
C693   O1142   1.273   .     S
C695   C704    1.456   .     S
C696   C715    1.457   .     S
C696   C87     1.385   1_565 S
C697   C988    1.387   .     S
C697   C982    1.455   .     S
C698   C985    1.384   .     S
C699   C725    1.421   .     A
C699   C1017   1.421   .     S
C700   C727    1.422   .     A
C700   C718    1.420   .     A
C701   C719    1.421   .     A
C701   C728    1.421   .     A
C702   C729    1.425   .     A
C702   C120    1.423   1_565 S
C703   C717    1.423   .     A
C703   C730    1.425   .     A
C704   O839    1.271   .     S
C704   O843    1.272   .     S
C705   C731    1.423   .     A
C705   C1018   1.424   .     S
C706   C732    1.422   .     A
C706   C119    1.422   1_565 S
C707   C720    1.424   .     A
C707   C733    1.424   .     A
C708   C721    1.423   .     A
C708   C734    1.424   .     A
C709   C735    1.422   .     A
C710   C736    1.424   .     A
C710   C1023   1.424   1_455 S
C711   C724    1.423   .     A
C713   C722    1.421   .     A
C714   C723    1.422   .     A
C715   O245    1.271   1_565 A
C715   O240    1.273   1_565 A
C716   C1024   1.422   1_455 S
C717   C718    1.402   .     A
C717   C999    1.421   1_455 S
C718   C1005   1.424   1_455 S
C719   C720    1.404   .     A
C721   C112    1.424   1_565 S
C721   C722    1.403   1_556 S
C722   C109    1.419   1_565 S
C722   C721    1.403   1_554 S
C723   C1010   1.424   .     S
C723   C724    1.404   1_556 S
C724   C1016   1.422   .     S
C724   C723    1.404   1_554 S
C725   C731    1.420   .     A
C726   O846    1.276   .     A
C726   O874    1.276   .     A
C727   C730    1.422   .     A
C728   C733    1.421   .     A
C729   C732    1.423   .     A
C734   C605    1.420   1_556 S
C735   C604    1.422   1_554 S
C736   C607    1.421   1_556 S
H746   C909    1.111   1_455 S
H784   C25     1.108   1_565 S
H785   C25     1.111   1_565 S
O833   Zn896   1.937   .     S
O833   Zn885   1.935   .     S
O833   Zn888   1.935   .     S
O834   Zn887   1.944   .     S
O834   C49     1.274   1_565 S
O835   Zn890   1.942   .     S
O835   C960    1.273   .     S
O836   Zn889   1.942   .     S
O837   Zn899   1.942   .     S
O838   C993    1.270   1_455 S
O838   Zn898   1.942   .     S
O839   Zn893   1.943   .     S
O840   Zn885   1.943   .     S
O841   Zn895   1.944   .     S
O842   C993    1.273   1_455 S
O842   Zn894   1.944   .     S
O843   Zn897   1.942   .     S
O844   Zn893   1.935   .     S
O844   Zn897   1.937   .     S
O844   Zn891   1.937   .     S
O845   Zn896   1.942   .     S
O846   Zn888   1.914   .     S
O847   Zn887   1.914   .     S
O848   Zn890   1.923   .     S
O849   Zn889   1.923   .     S
O850   Zn892   1.914   .     S
O851   Zn891   1.914   .     S
O852   Zn886   1.924   .     S
O853   Zn900   1.924   .     S
O854   Zn887   1.924   .     S
O855   Zn1190  1.937   1_455 S
O855   Zn894   1.935   .     S
O855   Zn898   1.937   .     S
O855   Zn886   1.935   .     S
O856   Zn888   1.924   .     S
O857   Zn900   1.914   .     S
O858   Zn886   1.914   .     S
O859   Zn891   1.923   .     S
O860   Zn892   1.923   .     S
O861   Zn889   1.915   .     S
O862   Zn890   1.915   .     S
O863   Zn1195  1.914   .     S
O864   Zn894   1.914   .     S
O865   Zn297   1.923   1_565 S
O866   Zn895   1.935   .     S
O866   Zn899   1.937   .     S
O866   Zn1200  1.935   1_455 S
O866   Zn889   1.937   .     S
O867   Zn896   1.923   .     S
O868   Zn899   1.914   .     S
O869   Zn1198  1.914   .     S
O870   Zn893   1.924   .     S
O871   Zn285   1.924   1_565 S
O872   Zn1194  1.924   .     S
O873   Zn895   1.924   .     S
O874   Zn885   1.914   .     S
O875   Zn293   1.914   1_565 S
O876   Zn898   1.923   .     S
O877   Zn892   1.942   .     S
O877   C1      1.272   1_565 S
O878   Zn1199  1.923   .     S
O879   Zn296   1.915   1_565 S
O880   Zn897   1.915   .     S
O881   Zn891   1.942   .     S
O882   Zn886   1.943   .     S
O883   C971    1.272   .     A
O883   Zn900   1.943   .     S
O884   Zn888   1.944   .     S
Zn887  O244    1.935   1_565 S
Zn890  O1155   1.937   .     S
Zn892  O233    1.937   1_565 S
Zn894  O1172   1.924   1_455 S
Zn895  O1163   1.914   1_455 S
Zn898  O1169   1.914   1_455 S
Zn899  O1178   1.923   1_455 S
Zn900  O1166   1.935   .     S
C901   C992    1.453   .     S
C901   O1184   1.270   .     A
C902   O1147   1.276   .     A
C902   C968    1.422   .     S
C902   O1175   1.276   .     A
C903   C1011   1.425   .     A
C903   C932    1.523   .     S
C903   C906    1.424   1_554 S
C904   C1012   1.425   .     A
C904   C934    1.536   .     S
C904   C1035   1.422   1_556 S
C905   C937    1.532   .     S
C905   C1013   1.420   .     A
C905   C1034   1.420   1_554 S
C906   C1014   1.422   .     A
C906   C939    1.538   .     S
C906   C903    1.424   1_556 S
C907   C1016   1.421   .     A
C907   C941    1.527   .     S
C907   C1036   1.421   1_554 S
C908   H1050   1.109   .     S
C908   H1049   1.100   .     S
C908   C1025   1.532   .     S
C908   C909    1.532   .     S
C909   H1045   1.108   .     S
C909   H1047   1.109   .     S
C909   H746    1.111   1_655 S
C910   H1054   1.109   .     S
C910   H1055   1.107   .     S
C910   C911    1.528   .     S
C910   C1027   1.524   .     S
C911   H1051   1.109   .     S
C911   H1053   1.109   .     S
C911   H1052   1.109   .     S
C912   H1061   1.107   .     S
C912   C1028   1.527   .     S
C912   H1060   1.109   .     S
C912   C914    1.529   .     S
C913   O1172   1.276   .     A
C913   O1148   1.276   .     A
C913   C967    1.429   .     S
C914   H1058   1.109   .     S
C914   H1056   1.110   .     S
C914   H1057   1.109   .     S
C915   H1066   1.107   .     S
C915   C1029   1.523   .     S
C915   C916    1.531   .     S
C915   H1065   1.103   .     S
C916   H1062   1.108   .     S
C916   H1064   1.109   .     S
C916   H1063   1.110   .     S
C917   C918    1.530   .     S
C917   H1072   1.109   .     S
C917   C1030   1.535   .     S
C917   H1071   1.101   .     S
C918   H1067   1.108   .     S
C918   H1069   1.111   .     S
C918   H1068   1.111   .     S
C919   C920    1.530   .     S
C919   H1076   1.109   .     S
C919   H1077   1.108   .     S
C919   C1031   1.526   .     S
C920   H1075   1.110   .     S
C920   H1074   1.109   .     S
C920   H1073   1.109   .     S
C921   C922    1.531   .     S
C921   C1032   1.538   .     S
C921   H1082   1.109   .     S
C921   H1083   1.100   .     S
C922   H1080   1.111   .     S
C922   H478    1.111   1_565 S
C922   H479    1.108   1_565 S
C923   H1088   1.109   .     S
C923   H1087   1.100   .     S
C923   C1033   1.531   .     S
C923   C925    1.530   .     S
C924   O1149   1.276   .     A
C924   C966    1.429   .     S
C924   O1173   1.276   .     A
C925   H1086   1.110   .     S
C926   H1094   1.109   .     S
C926   C1034   1.527   .     S
C926   C927    1.530   .     S
C926   H1093   1.108   .     S
C927   H1090   1.109   .     S
C927   H1091   1.110   .     S
C927   H1089   1.109   .     S
C928   C1035   1.525   .     S
C928   H1099   1.106   .     S
C928   C929    1.527   .     S
C928   H1098   1.109   .     S
C929   H1095   1.109   .     S
C929   H1096   1.109   .     S
C929   H1097   1.109   .     S
C930   C1036   1.531   .     S
C930   H1105   1.100   .     S
C930   C931    1.530   .     S
C930   H1104   1.109   .     S
C931   H1100   1.111   .     S
C931   H1102   1.110   .     S
C931   H1101   1.108   .     S
C932   H1109   1.104   .     S
C932   H1110   1.107   .     S
C932   C933    1.531   .     S
C933   H1108   1.109   .     S
C933   H1107   1.110   .     S
C933   H1106   1.108   .     S
C934   H1115   1.101   .     S
C934   H1116   1.109   .     S
C934   C936    1.530   .     S
C935   O1150   1.277   .     A
C935   C965    1.422   .     S
C935   O1179   1.277   .     A
C936   H1112   1.111   .     S
C936   H1111   1.108   .     S
C936   H1113   1.111   .     S
C937   C938    1.532   .     S
C937   H1121   1.100   .     S
C937   H1120   1.109   .     S
C938   H1118   1.108   .     S
C938   H1119   1.109   .     S
C938   H1117   1.111   .     S
C939   H1126   1.109   .     S
C939   C940    1.531   .     S
C939   H1127   1.101   .     S
C940   H1123   1.108   .     S
C940   H1122   1.111   .     S
C940   H1124   1.111   .     S
C941   H1131   1.108   .     S
C941   C942    1.529   .     S
C941   H1132   1.109   .     S
C942   H1129   1.110   .     S
C942   H1128   1.109   .     S
C942   H1130   1.109   .     S
C943   O1151   1.277   .     A
C943   C964    1.422   .     S
C943   O1180   1.277   .     A
C944   O1176   1.276   .     A
C944   C972    1.429   .     S
C944   O1152   1.277   .     A
C945   C970    1.429   .     S
C945   O1178   1.276   .     A
C945   O1153   1.277   .     A
C946   O1165   1.276   .     A
C946   C961    1.429   .     S
C946   O1154   1.276   .     A
C947   O1167   1.276   .     A
C947   O1156   1.276   .     A
C947   C959    1.429   .     S
C948   O1163   1.276   .     A
C948   O1157   1.276   .     A
C948   C958    1.422   .     S
C949   O1181   1.271   .     A
C949   C994    1.457   .     S
C950   C957    1.422   .     S
C950   O1158   1.276   .     A
C950   O1164   1.276   .     A
C951   O1170   1.277   .     A
C951   O1159   1.276   .     A
C951   C956    1.429   .     S
C952   O1160   1.276   .     A
C952   C955    1.429   .     S
C952   O1171   1.277   .     A
C953   O1161   1.277   .     A
C953   C963    1.422   .     S
C953   O1168   1.277   .     A
C954   O1169   1.277   .     A
C954   C962    1.422   .     S
C954   O1162   1.277   .     A
C955   C972    1.202   .     T
C956   C970    1.202   .     T
C957   C969    1.198   .     T
C958   C968    1.198   .     T
C959   C967    1.202   .     T
C960   C990    1.457   .     S
C960   O1182   1.271   .     A
C961   C966    1.202   .     T
C962   C965    1.198   .     T
C963   C964    1.198   .     T
C969   C1026   1.422   .     S
C971   C991    1.456   .     S
C971   O1136   1.271   .     S
C973   H1037   1.080   .     S
C973   C1003   1.407   .     A
C973   C990    1.389   .     A
C974   C1005   1.408   .     A
C974   H1048   1.079   .     S
C974   C691    1.386   1_655 S
C975   C1006   1.407   .     A
C975   H1059   1.080   .     S
C975   C392    1.386   1_565 S
C976   C994    1.386   .     A
C976   H1070   1.079   .     S
C976   C1007   1.408   .     A
C977   H1081   1.080   .     S
C977   C999    1.405   .     A
C977   C690    1.388   1_655 S
C978   H1092   1.079   .     S
C978   C1000   1.406   .     A
C978   C991    1.384   .     A
C979   C1001   1.406   .     A
C979   C992    1.385   .     A
C979   H1103   1.080   .     S
C980   C1002   1.409   .     A
C980   H1114   1.078   .     S
C980   C394    1.385   1_565 S
C981   C995    1.388   .     A
C981   C1012   1.406   .     A
C981   H1125   1.079   .     S
C982   O1137   1.272   .     S
C982   O1141   1.271   .     S
C983   H1038   1.080   .     S
C983   C996    1.388   .     A
C983   C1013   1.407   .     A
C984   C1014   1.406   .     A
C984   C997    1.386   .     A
C984   H1039   1.080   .     S
C985   C1016   1.406   .     A
C985   H1040   1.080   .     S
C986   C1008   1.406   .     A
C986   H1041   1.079   .     S
C986   C395    1.386   1_565 S
C987   C1009   1.406   .     A
C987   H1042   1.079   .     S
C988   H1043   1.079   .     S
C988   C1010   1.407   .     A
C989   C998    1.385   .     A
C989   H1044   1.078   .     S
C989   C1011   1.410   .     A
C993   C998    1.455   .     S
C993   O838    1.270   1_655 S
C993   O842    1.273   1_655 S
C995   C1004   1.456   .     S
C996   C1015   1.457   .     S
C996   C387    1.385   1_565 S
C997   C688    1.387   1_655 S
C997   C682    1.455   1_655 S
C998   C685    1.384   1_655 S
C999   C1025   1.421   .     A
C999   C717    1.421   1_655 S
C1000  C1027   1.422   .     A
C1000  C1018   1.420   .     A
C1001  C1019   1.421   .     A
C1001  C1028   1.421   .     A
C1002  C1029   1.425   .     A
C1002  C420    1.423   1_565 S
C1003  C1017   1.423   .     A
C1003  C1030   1.425   .     A
C1004  O1139   1.271   .     S
C1004  O1143   1.272   .     S
C1005  C1031   1.423   .     A
C1005  C718    1.424   1_655 S
C1006  C1032   1.422   .     A
C1006  C419    1.422   1_565 S
C1007  C1020   1.424   .     A
C1007  C1033   1.424   .     A
C1008  C1021   1.423   .     A
C1008  C1034   1.424   .     A
C1009  C1035   1.422   .     A
C1010  C1036   1.424   .     A
C1011  C1024   1.423   .     A
C1013  C1022   1.421   .     A
C1014  C1023   1.422   .     A
C1015  O545    1.271   1_565 A
C1015  O540    1.273   1_565 A
C1017  C1018   1.402   .     A
C1019  C1020   1.404   .     A
C1021  C412    1.424   1_565 S
C1021  C1022   1.403   1_556 S
C1022  C409    1.419   1_565 S
C1022  C1021   1.403   1_554 S
C1023  C710    1.424   1_655 S
C1023  C1024   1.404   1_556 S
C1024  C716    1.422   1_655 S
C1024  C1023   1.404   1_554 S
C1025  C1031   1.420   .     A
C1026  O1146   1.276   .     A
C1026  O1174   1.276   .     A
C1027  C1030   1.422   .     A
C1028  C1033   1.421   .     A
C1029  C1032   1.423   .     A
C1034  C905    1.420   1_556 S
C1035  C904    1.422   1_554 S
C1036  C907    1.421   1_556 S
H1084  C325    1.108   1_565 S
H1085  C325    1.111   1_565 S
O1133  Zn1196  1.937   .     S
O1133  Zn1185  1.935   .     S
O1133  Zn1188  1.935   .     S
O1134  Zn1187  1.944   .     S
O1134  C349    1.274   1_565 S
O1135  Zn1190  1.942   .     S
O1135  C660    1.273   1_655 S
O1136  Zn1189  1.942   .     S
O1137  Zn1199  1.942   .     S
O1138  Zn1198  1.942   .     S
O1139  Zn1193  1.943   .     S
O1140  Zn1185  1.943   .     S
O1141  Zn1195  1.944   .     S
O1142  Zn1194  1.944   .     S
O1143  Zn1197  1.942   .     S
O1144  Zn1193  1.935   .     S
O1144  Zn1197  1.937   .     S
O1144  Zn1191  1.937   .     S
O1145  Zn1196  1.942   .     S
O1146  Zn1188  1.914   .     S
O1147  Zn1187  1.914   .     S
O1148  Zn1190  1.923   .     S
O1149  Zn1189  1.923   .     S
O1150  Zn1192  1.914   .     S
O1151  Zn1191  1.914   .     S
O1152  Zn1186  1.924   .     S
O1153  Zn1200  1.924   .     S
O1154  Zn1187  1.924   .     S
O1155  Zn1194  1.935   .     S
O1155  Zn1198  1.937   .     S
O1155  Zn1186  1.935   .     S
O1156  Zn1188  1.924   .     S
O1157  Zn1200  1.914   .     S
O1158  Zn1186  1.914   .     S
O1159  Zn1191  1.923   .     S
O1160  Zn1192  1.923   .     S
O1161  Zn1189  1.915   .     S
O1162  Zn1190  1.915   .     S
O1163  Zn895   1.914   1_655 S
O1164  Zn1194  1.914   .     S
O1165  Zn597   1.923   1_565 S
O1166  Zn1195  1.935   .     S
O1166  Zn1199  1.937   .     S
O1166  Zn1189  1.937   .     S
O1167  Zn1196  1.923   .     S
O1168  Zn1199  1.914   .     S
O1169  Zn898   1.914   1_655 S
O1170  Zn1193  1.924   .     S
O1171  Zn585   1.924   1_565 S
O1172  Zn894   1.924   1_655 S
O1173  Zn1195  1.924   .     S
O1174  Zn1185  1.914   .     S
O1175  Zn593   1.914   1_565 S
O1176  Zn1198  1.923   .     S
O1177  Zn1192  1.942   .     S
O1177  C301    1.272   1_565 S
O1178  Zn899   1.923   1_655 S
O1179  Zn596   1.915   1_565 S
O1180  Zn1197  1.915   .     S
O1181  Zn1191  1.942   .     S
O1182  Zn1186  1.943   .     S
O1183  C671    1.272   1_655 A
O1183  Zn1200  1.943   .     S
O1184  Zn1188  1.944   .     S
Zn1187 O544    1.935   1_565 S
Zn1190 O855    1.937   1_655 S
Zn1192 O533    1.937   1_565 S
Zn1200 O866    1.935   1_655 S
