data_str_m1_o1_o2_pcu_sym.52
_audit_creation_date              2020-01-03
_audit_creation_method            'Materials Studio'
_symmetry_space_group_name_H-M    'P1'
_symmetry_Int_Tables_number       1
_symmetry_cell_setting            triclinic
loop_
_symmetry_equiv_pos_as_xyz
  x,y,z
_cell_length_a                    36.8666
_cell_length_b                    36.8658
_cell_length_c                    34.5251
_cell_angle_alpha                 90.0021
_cell_angle_beta                  90.0013
_cell_angle_gamma                 90.0226
loop_
_atom_site_label
_atom_site_type_symbol
_atom_site_fract_x
_atom_site_fract_y
_atom_site_fract_z
_atom_site_U_iso_or_equiv
_atom_site_adp_type
_atom_site_occupancy
C1     C     0.24394   0.03224   0.04251   0.00000  Uiso   1.00
C2     C     0.00558   0.28235   0.45748   0.00000  Uiso   1.00
C3     C     0.34799   0.40201   0.75000   0.00000  Uiso   1.00
C4     C     0.40175   0.15173   0.25000   0.00000  Uiso   1.00
C5     C     0.09798   0.34799   0.75000   0.00000  Uiso   1.00
C6     C     0.34825   0.40173   0.25000   0.00000  Uiso   1.00
C7     C     0.15200   0.09799   0.75000   0.00000  Uiso   1.00
C8     C     0.09826   0.15175   0.75000   0.00000  Uiso   1.00
C9     C     0.40201   0.34799   0.25000   0.00000  Uiso   1.00
C10    C     0.15175   0.40174   0.75000   0.00000  Uiso   1.00
C11    C     0.34798   0.09799   0.25000   0.00000  Uiso   1.00
C12    C     0.40174   0.34826   0.75000   0.00000  Uiso   1.00
C13    C     0.21765   0.49440   0.54249   0.00000  Uiso   1.00
C14    C     0.09799   0.15201   0.25000   0.00000  Uiso   1.00
C15    C     0.34825   0.09825   0.75000   0.00000  Uiso   1.00
C16    C     0.15201   0.40202   0.25000   0.00000  Uiso   1.00
C17    C     0.25000  -0.00000   0.10305   0.00000  Uiso   1.00
C18    C     0.25000  -0.00000   0.89696   0.00000  Uiso   1.00
C19    C     0.00000   0.25000   0.10305   0.00000  Uiso   1.00
C20    C    -0.00000   0.25000   0.89695   0.00000  Uiso   1.00
C21    C    -0.00000   0.25001   0.60305   0.00000  Uiso   1.00
C22    C     0.00000   0.25001   0.39695   0.00000  Uiso   1.00
C23    C     0.24999   0.49999   0.60304   0.00000  Uiso   1.00
C24    C     0.21774   0.00613   0.45749   0.00000  Uiso   1.00
C25    C     0.24999   0.00000   0.39695   0.00000  Uiso   1.00
C26    C     0.00588   0.21774   0.54251   0.00000  Uiso   1.00
C27    C     0.49444   0.21768   0.45749   0.00000  Uiso   1.00
C28    C     0.28231   0.00560   0.54249   0.00000  Uiso   1.00
C29    C     0.28222   0.49387   0.45750   0.00000  Uiso   1.00
C30    C     0.24538   0.03260   0.08275   0.00000  Uiso   1.00
C31    C     0.25412   0.03267   0.91727   0.00000  Uiso   1.00
C32    C     0.46734   0.24584   0.08274   0.00000  Uiso   1.00
C33    C     0.25556   0.03233   0.95750   0.00000  Uiso   1.00
C34    C     0.46738   0.25442   0.91725   0.00000  Uiso   1.00
C35    C     0.25461   0.46739   0.08274   0.00000  Uiso   1.00
C36    C     0.24587   0.46733   0.91726   0.00000  Uiso   1.00
C37    C     0.03267   0.25418   0.08274   0.00000  Uiso   1.00
C38    C     0.03262   0.24561   0.91725   0.00000  Uiso   1.00
C39    C     0.49557   0.28264   0.58275   0.00000  Uiso   1.00
C40    C     0.00413   0.28268   0.41725   0.00000  Uiso   1.00
C41    C     0.21733   0.49583   0.58273   0.00000  Uiso   1.00
C42    C     0.21739   0.00468   0.41725   0.00000  Uiso   1.00
C43    C     0.00443   0.21739   0.58274   0.00000  Uiso   1.00
C44    C     0.46767   0.24441   0.04251   0.00000  Uiso   1.00
C45    C     0.49589   0.21734   0.41726   0.00000  Uiso   1.00
C46    C     0.28265   0.00415   0.58272   0.00000  Uiso   1.00
C47    C     0.28259   0.49532   0.41726   0.00000  Uiso   1.00
C48    C     0.25000   0.49999   0.02159   0.00000  Uiso   1.00
C49    C     0.25000   0.49999   0.97842   0.00000  Uiso   1.00
C50    C    -0.00000   0.25003   0.02159   0.00000  Uiso   1.00
C51    C    -0.00000   0.25002   0.97841   0.00000  Uiso   1.00
C52    C     0.00001   0.25002   0.52159   0.00000  Uiso   1.00
C53    C     0.00001   0.25002   0.47841   0.00000  Uiso   1.00
C54    C     0.24998   0.00000   0.52158   0.00000  Uiso   1.00
C55    C     0.46772   0.25586   0.95748   0.00000  Uiso   1.00
C56    C     0.24998  -0.00000   0.47841   0.00000  Uiso   1.00
C57    C     0.25000   0.00000   0.35493   0.00000  Uiso   1.00
C58    C     0.25000  -0.00000   0.64507   0.00000  Uiso   1.00
C59    C     0.00000   0.25000   0.35493   0.00000  Uiso   1.00
C60    C    -0.00000   0.25000   0.64507   0.00000  Uiso   1.00
C61    C    -0.00000   0.25000   0.85493   0.00000  Uiso   1.00
C62    C     0.00000   0.25000   0.14507   0.00000  Uiso   1.00
C63    C     0.25000   0.00000   0.85493   0.00000  Uiso   1.00
C64    C     0.25000  -0.00000   0.14507   0.00000  Uiso   1.00
C65    C     0.17990   0.07010   0.25000   0.00000  Uiso   1.00
C66    C     0.25606   0.46774   0.04251   0.00000  Uiso   1.00
C67    C     0.32000   0.43000   0.75000   0.00000  Uiso   1.00
C68    C     0.42991   0.17990   0.25000   0.00000  Uiso   1.00
C69    C     0.06999   0.32000   0.75000   0.00000  Uiso   1.00
C70    C     0.32010   0.42990   0.25000   0.00000  Uiso   1.00
C71    C     0.18000   0.07000   0.75000   0.00000  Uiso   1.00
C72    C     0.07009   0.32010   0.25000   0.00000  Uiso   1.00
C73    C     0.43000   0.18000   0.75000   0.00000  Uiso   1.00
C74    C     0.17991   0.42991   0.75000   0.00000  Uiso   1.00
C75    C     0.31999   0.07000   0.25000   0.00000  Uiso   1.00
C76    C     0.42991   0.32010   0.75000   0.00000  Uiso   1.00
C77    C     0.24444   0.46766   0.95750   0.00000  Uiso   1.00
C78    C     0.07000   0.18000   0.25000   0.00000  Uiso   1.00
C79    C     0.32009   0.07009   0.75000   0.00000  Uiso   1.00
C80    C     0.18001   0.43001   0.25000   0.00000  Uiso   1.00
C81    C     0.07009   0.17990   0.75000   0.00000  Uiso   1.00
C82    C     0.43000   0.32000   0.25000   0.00000  Uiso   1.00
C83    C     0.13768   0.38963   0.21451   0.00000  Uiso   1.00
C84    C     0.36393   0.10963   0.78542   0.00000  Uiso   1.00
C85    C     0.11001   0.13730   0.21454   0.00000  Uiso   1.00
C86    C     0.39060   0.36418   0.78540   0.00000  Uiso   1.00
C87    C     0.36230   0.11039   0.21451   0.00000  Uiso   1.00
C88    C     0.03233   0.25564   0.04251   0.00000  Uiso   1.00
C89    C     0.13601   0.39042   0.78542   0.00000  Uiso   1.00
C90    C     0.38998   0.36268   0.21453   0.00000  Uiso   1.00
C91    C     0.10941   0.13583   0.78540   0.00000  Uiso   1.00
C92    C     0.13741   0.11012   0.78547   0.00000  Uiso   1.00
C93    C     0.36434   0.39074   0.21461   0.00000  Uiso   1.00
C94    C     0.11028   0.36243   0.78548   0.00000  Uiso   1.00
C95    C     0.39033   0.13608   0.21456   0.00000  Uiso   1.00
C96    C     0.36259   0.38988   0.78546   0.00000  Uiso   1.00
C97    C     0.13565   0.10924   0.21461   0.00000  Uiso   1.00
C98    C     0.38969   0.13761   0.78548   0.00000  Uiso   1.00
C99    C     0.03228   0.24418   0.95749   0.00000  Uiso   1.00
C100   C     0.10964   0.36395   0.21456   0.00000  Uiso   1.00
C101   C     0.38761   0.13968   0.71452   0.00000  Uiso   1.00
C102   C     0.11393   0.35966   0.28545   0.00000  Uiso   1.00
C103   C     0.36012   0.38741   0.71453   0.00000  Uiso   1.00
C104   C     0.14077   0.11437   0.28540   0.00000  Uiso   1.00
C105   C     0.11242   0.36028   0.71452   0.00000  Uiso   1.00
C106   C     0.38612   0.14030   0.28545   0.00000  Uiso   1.00
C107   C     0.13987   0.11258   0.71453   0.00000  Uiso   1.00
C108   C     0.35923   0.38563   0.28539   0.00000  Uiso   1.00
C109   C     0.38731   0.36001   0.28546   0.00000  Uiso   1.00
C110   C     0.49413   0.28229   0.54252   0.00000  Uiso   1.00
C111   C     0.11418   0.14059   0.71459   0.00000  Uiso   1.00
C112   C     0.36040   0.11229   0.28549   0.00000  Uiso   1.00
C113   C     0.14044   0.38599   0.71458   0.00000  Uiso   1.00
C114   C     0.11270   0.14000   0.28547   0.00000  Uiso   1.00
C115   C     0.38581   0.35939   0.71459   0.00000  Uiso   1.00
C116   C     0.13962   0.38770   0.28549   0.00000  Uiso   1.00
C117   C     0.35963   0.11394   0.71457   0.00000  Uiso   1.00
C118   C     0.09825   0.34826   0.25000   0.00000  Uiso   1.00
C119   C     0.40201   0.15201   0.75000   0.00000  Uiso   1.00
C120   C     0.15174   0.09826   0.25001   0.00000  Uiso   1.00
H121   H     0.23801   0.05757   0.02820   0.00000  Uiso   1.00
H122   H     0.01113   0.30777   0.47178   0.00000  Uiso   1.00
H123   H     0.19225   0.48884   0.52817   0.00000  Uiso   1.00
H124   H     0.19242   0.01211   0.47181   0.00000  Uiso   1.00
H125   H     0.01167   0.19238   0.52822   0.00000  Uiso   1.00
H126   H     0.48889   0.19226   0.47179   0.00000  Uiso   1.00
H127   H     0.30772   0.01115   0.52816   0.00000  Uiso   1.00
H128   H     0.30754   0.48789   0.47182   0.00000  Uiso   1.00
H129   H     0.26110   0.05775   0.97182   0.00000  Uiso   1.00
H130   H     0.44226   0.23882   0.02821   0.00000  Uiso   1.00
H131   H     0.44235   0.26163   0.97178   0.00000  Uiso   1.00
H132   H     0.26198   0.44241   0.02820   0.00000  Uiso   1.00
H133   H     0.23889   0.44224   0.97181   0.00000  Uiso   1.00
H134   H     0.05774   0.26123   0.02821   0.00000  Uiso   1.00
H135   H     0.05764   0.23842   0.97178   0.00000  Uiso   1.00
H136   H     0.48835   0.30766   0.52822   0.00000  Uiso   1.00
I137   I     0.16032   0.40755   0.16024   0.00000  Uiso   1.00
I138   I     0.34998   0.41514   0.16014   0.00000  Uiso   1.00
I139   I     0.09215   0.34003   0.83978   0.00000  Uiso   1.00
I140   I     0.41408   0.15121   0.16004   0.00000  Uiso   1.00
I141   I     0.34044   0.40820   0.83981   0.00000  Uiso   1.00
I142   I     0.15000   0.08483   0.16012   0.00000  Uiso   1.00
I143   I     0.40782   0.16002   0.83978   0.00000  Uiso   1.00
I144   I     0.08584   0.34886   0.16004   0.00000  Uiso   1.00
I145   I     0.41004   0.15780   0.66022   0.00000  Uiso   1.00
I146   I     0.09880   0.33590   0.33998   0.00000  Uiso   1.00
I147   I     0.34182   0.40959   0.66019   0.00000  Uiso   1.00
I148   I     0.34864   0.08598   0.83991   0.00000  Uiso   1.00
I149   I     0.16528   0.10012   0.33991   0.00000  Uiso   1.00
I150   I     0.08998   0.34218   0.66022   0.00000  Uiso   1.00
I151   I     0.40143   0.16391   0.33998   0.00000  Uiso   1.00
I152   I     0.15815   0.09037   0.66019   0.00000  Uiso   1.00
I153   I     0.33476   0.39989   0.33986   0.00000  Uiso   1.00
I154   I     0.40943   0.34167   0.33983   0.00000  Uiso   1.00
I155   I     0.09945   0.16469   0.66010   0.00000  Uiso   1.00
I156   I     0.34249   0.08962   0.33977   0.00000  Uiso   1.00
I157   I     0.16428   0.40102   0.66009   0.00000  Uiso   1.00
I158   I     0.09060   0.15836   0.33984   0.00000  Uiso   1.00
I159   I     0.09166   0.15941   0.16017   0.00000  Uiso   1.00
I160   I     0.40051   0.33527   0.66011   0.00000  Uiso   1.00
I161   I     0.15750   0.41040   0.33976   0.00000  Uiso   1.00
I162   I     0.33594   0.09867   0.66007   0.00000  Uiso   1.00
I163   I     0.24212   0.08367   0.11069   0.00000  Uiso   1.00
I164   I     0.25667   0.08378   0.88935   0.00000  Uiso   1.00
I165   I     0.41625   0.24319   0.11066   0.00000  Uiso   1.00
I166   I     0.41630   0.25740   0.88931   0.00000  Uiso   1.00
I167   I     0.25786   0.41633   0.11069   0.00000  Uiso   1.00
I168   I     0.24325   0.41623   0.88932   0.00000  Uiso   1.00
I169   I     0.08376   0.25679   0.11066   0.00000  Uiso   1.00
I170   I     0.41467   0.34942   0.83988   0.00000  Uiso   1.00
I171   I     0.08370   0.24264   0.88932   0.00000  Uiso   1.00
I172   I     0.49257   0.33371   0.61070   0.00000  Uiso   1.00
I173   I     0.00672   0.33378   0.38931   0.00000  Uiso   1.00
I174   I     0.16624   0.49314   0.61067   0.00000  Uiso   1.00
I175   I     0.16632   0.00801   0.38929   0.00000  Uiso   1.00
I176   I     0.00743   0.16630   0.61067   0.00000  Uiso   1.00
I177   I     0.49336   0.16622   0.38934   0.00000  Uiso   1.00
I178   I     0.33376   0.00673   0.61063   0.00000  Uiso   1.00
I179   I     0.33366   0.49200   0.38933   0.00000  Uiso   1.00
I180   I     0.33963   0.09248   0.16024   0.00000  Uiso   1.00
I181   I     0.15115   0.41419   0.83991   0.00000  Uiso   1.00
I182   I     0.40833   0.34058   0.16016   0.00000  Uiso   1.00
I183   I     0.08535   0.15061   0.83988   0.00000  Uiso   1.00
I184   I     0.15955   0.09180   0.83981   0.00000  Uiso   1.00
O185   O     0.25000  -0.00000   0.25000   0.00000  Uiso   1.00
O186   O     0.25000   0.46964   0.66317   0.00000  Uiso   1.00
O187   O     0.46964   0.25000   0.33683   0.00000  Uiso   1.00
O188   O     0.03036   0.25000   0.66317   0.00000  Uiso   1.00
O189   O     0.00000   0.21964   0.83683   0.00000  Uiso   1.00
O190   O     0.00000   0.28036   0.16317   0.00000  Uiso   1.00
O191   O     0.28036  -0.00000   0.83683   0.00000  Uiso   1.00
O192   O     0.21964  -0.00000   0.16317   0.00000  Uiso   1.00
O193   O     0.00000   0.28036   0.83683   0.00000  Uiso   1.00
O194   O     0.00000   0.21964   0.16317   0.00000  Uiso   1.00
O195   O     0.21964  -0.00000   0.83683   0.00000  Uiso   1.00
O196   O     0.25000  -0.00000   0.75000   0.00000  Uiso   1.00
O197   O     0.28036  -0.00000   0.16317   0.00000  Uiso   1.00
O198   O     0.20725   0.07307   0.27282   0.00000  Uiso   1.00
O199   O     0.29274   0.42693   0.72718   0.00000  Uiso   1.00
O200   O     0.42693   0.20725   0.27282   0.00000  Uiso   1.00
O201   O     0.07307   0.29274   0.72718   0.00000  Uiso   1.00
O202   O     0.29274   0.42693   0.27282   0.00000  Uiso   1.00
O203   O     0.20725   0.07307   0.72718   0.00000  Uiso   1.00
O204   O     0.07307   0.29274   0.27282   0.00000  Uiso   1.00
O205   O     0.42693   0.20725   0.72718   0.00000  Uiso   1.00
O206   O     0.20725   0.42693   0.72718   0.00000  Uiso   1.00
O207   O     0.00000   0.25000   0.25000   0.00000  Uiso   1.00
O208   O     0.29274   0.07307   0.27282   0.00000  Uiso   1.00
O209   O     0.42693   0.29274   0.72718   0.00000  Uiso   1.00
O210   O     0.07307   0.20725   0.27282   0.00000  Uiso   1.00
O211   O     0.29274   0.07307   0.72718   0.00000  Uiso   1.00
O212   O     0.20725   0.42693   0.27282   0.00000  Uiso   1.00
O213   O     0.07307   0.20725   0.72718   0.00000  Uiso   1.00
O214   O     0.42693   0.29274   0.27282   0.00000  Uiso   1.00
O215   O     0.45725   0.32307   0.77282   0.00000  Uiso   1.00
O216   O     0.04274   0.17693   0.22718   0.00000  Uiso   1.00
O217   O     0.17693   0.45725   0.77282   0.00000  Uiso   1.00
O218   O     0.00000   0.25000   0.75000   0.00000  Uiso   1.00
O219   O     0.32307   0.04274   0.22718   0.00000  Uiso   1.00
O220   O     0.04274   0.17693   0.77282   0.00000  Uiso   1.00
O221   O     0.45725   0.32307   0.22718   0.00000  Uiso   1.00
O222   O     0.32307   0.04274   0.77282   0.00000  Uiso   1.00
O223   O     0.17693   0.45725   0.22718   0.00000  Uiso   1.00
O224   O     0.45725   0.17693   0.22718   0.00000  Uiso   1.00
O225   O     0.04274   0.32307   0.77282   0.00000  Uiso   1.00
O226   O     0.17693   0.04274   0.22718   0.00000  Uiso   1.00
O227   O     0.32307   0.45725   0.77282   0.00000  Uiso   1.00
O228   O     0.04274   0.32307   0.22718   0.00000  Uiso   1.00
O229   O     0.25000   0.46964   0.33683   0.00000  Uiso   1.00
O230   O     0.45725   0.17693   0.77282   0.00000  Uiso   1.00
O231   O     0.32307   0.45725   0.22718   0.00000  Uiso   1.00
O232   O     0.17693   0.04274   0.77282   0.00000  Uiso   1.00
O233   O     0.25000   0.03036   0.66317   0.00000  Uiso   1.00
O234   O     0.03036   0.25000   0.33683   0.00000  Uiso   1.00
O235   O     0.46964   0.25000   0.66317   0.00000  Uiso   1.00
O236   O     0.25000   0.03036   0.33683   0.00000  Uiso   1.00
Zn237  Zn    0.20660  -0.00000   0.21760   0.00000  Uiso   1.00
Zn238  Zn    0.04340   0.25000   0.28240   0.00000  Uiso   1.00
Zn239  Zn    0.25000   0.45660   0.71760   0.00000  Uiso   1.00
Zn240  Zn    0.25000   0.04340   0.28240   0.00000  Uiso   1.00
Zn241  Zn    0.04340   0.25000   0.71760   0.00000  Uiso   1.00
Zn242  Zn    0.45660   0.25000   0.28240   0.00000  Uiso   1.00
Zn243  Zn    0.25000   0.04340   0.71760   0.00000  Uiso   1.00
Zn244  Zn    0.25000   0.45660   0.28240   0.00000  Uiso   1.00
Zn245  Zn    0.29340  -0.00000   0.78240   0.00000  Uiso   1.00
Zn246  Zn    0.00000   0.20660   0.21760   0.00000  Uiso   1.00
Zn247  Zn    0.00000   0.29340   0.78240   0.00000  Uiso   1.00
Zn248  Zn    0.29340  -0.00000   0.21760   0.00000  Uiso   1.00
Zn249  Zn    0.20660  -0.00000   0.78240   0.00000  Uiso   1.00
Zn250  Zn    0.00000   0.29340   0.21760   0.00000  Uiso   1.00
Zn251  Zn    0.00000   0.20660   0.78240   0.00000  Uiso   1.00
Zn252  Zn    0.45660   0.25000   0.71760   0.00000  Uiso   1.00
C253   C     0.74394   0.03224   0.04251   0.00000  Uiso   1.00
C254   C     0.50558   0.28235   0.45748   0.00000  Uiso   1.00
C255   C     0.84799   0.40201   0.75000   0.00000  Uiso   1.00
C256   C     0.90175   0.15173   0.25000   0.00000  Uiso   1.00
C257   C     0.59798   0.34799   0.75000   0.00000  Uiso   1.00
C258   C     0.84825   0.40173   0.25000   0.00000  Uiso   1.00
C259   C     0.65200   0.09799   0.75000   0.00000  Uiso   1.00
C260   C     0.59826   0.15175   0.75000   0.00000  Uiso   1.00
C261   C     0.90201   0.34799   0.25000   0.00000  Uiso   1.00
C262   C     0.65175   0.40174   0.75000   0.00000  Uiso   1.00
C263   C     0.84798   0.09799   0.25000   0.00000  Uiso   1.00
C264   C     0.90174   0.34826   0.75000   0.00000  Uiso   1.00
C265   C     0.71765   0.49440   0.54249   0.00000  Uiso   1.00
C266   C     0.59799   0.15201   0.25000   0.00000  Uiso   1.00
C267   C     0.84825   0.09825   0.75000   0.00000  Uiso   1.00
C268   C     0.65201   0.40202   0.25000   0.00000  Uiso   1.00
C269   C     0.75000  -0.00000   0.10305   0.00000  Uiso   1.00
C270   C     0.75000  -0.00000   0.89696   0.00000  Uiso   1.00
C271   C     0.50000   0.25000   0.10305   0.00000  Uiso   1.00
C272   C     0.50000   0.25000   0.89695   0.00000  Uiso   1.00
C273   C     0.50000   0.25001   0.60305   0.00000  Uiso   1.00
C274   C     0.50000   0.25001   0.39695   0.00000  Uiso   1.00
C275   C     0.74999   0.49999   0.60304   0.00000  Uiso   1.00
C276   C     0.71774   0.00613   0.45749   0.00000  Uiso   1.00
C277   C     0.74999   0.00000   0.39695   0.00000  Uiso   1.00
C278   C     0.50588   0.21774   0.54251   0.00000  Uiso   1.00
C279   C     0.99444   0.21768   0.45749   0.00000  Uiso   1.00
C280   C     0.78231   0.00560   0.54249   0.00000  Uiso   1.00
C281   C     0.78222   0.49387   0.45750   0.00000  Uiso   1.00
C282   C     0.74538   0.03260   0.08275   0.00000  Uiso   1.00
C283   C     0.75412   0.03267   0.91727   0.00000  Uiso   1.00
C284   C     0.96734   0.24584   0.08274   0.00000  Uiso   1.00
C285   C     0.75556   0.03233   0.95750   0.00000  Uiso   1.00
C286   C     0.96738   0.25442   0.91725   0.00000  Uiso   1.00
C287   C     0.75461   0.46739   0.08274   0.00000  Uiso   1.00
C288   C     0.74587   0.46733   0.91726   0.00000  Uiso   1.00
C289   C     0.53267   0.25418   0.08274   0.00000  Uiso   1.00
C290   C     0.53262   0.24561   0.91725   0.00000  Uiso   1.00
C291   C     0.99557   0.28264   0.58275   0.00000  Uiso   1.00
C292   C     0.50413   0.28268   0.41725   0.00000  Uiso   1.00
C293   C     0.71733   0.49583   0.58273   0.00000  Uiso   1.00
C294   C     0.71739   0.00468   0.41725   0.00000  Uiso   1.00
C295   C     0.50443   0.21739   0.58274   0.00000  Uiso   1.00
C296   C     0.96767   0.24441   0.04251   0.00000  Uiso   1.00
C297   C     0.99589   0.21734   0.41726   0.00000  Uiso   1.00
C298   C     0.78265   0.00415   0.58272   0.00000  Uiso   1.00
C299   C     0.78259   0.49532   0.41726   0.00000  Uiso   1.00
C300   C     0.75000   0.49999   0.02159   0.00000  Uiso   1.00
C301   C     0.75000   0.49999   0.97842   0.00000  Uiso   1.00
C302   C     0.50000   0.25003   0.02159   0.00000  Uiso   1.00
C303   C     0.50000   0.25002   0.97841   0.00000  Uiso   1.00
C304   C     0.50001   0.25002   0.52159   0.00000  Uiso   1.00
C305   C     0.50001   0.25002   0.47841   0.00000  Uiso   1.00
C306   C     0.74998   0.00000   0.52158   0.00000  Uiso   1.00
C307   C     0.96772   0.25586   0.95748   0.00000  Uiso   1.00
C308   C     0.74998  -0.00000   0.47841   0.00000  Uiso   1.00
C309   C     0.75000   0.00000   0.35493   0.00000  Uiso   1.00
C310   C     0.75000  -0.00000   0.64507   0.00000  Uiso   1.00
C311   C     0.50000   0.25000   0.35493   0.00000  Uiso   1.00
C312   C     0.50000   0.25000   0.64507   0.00000  Uiso   1.00
C313   C     0.50000   0.25000   0.85493   0.00000  Uiso   1.00
C314   C     0.50000   0.25000   0.14507   0.00000  Uiso   1.00
C315   C     0.75000   0.00000   0.85493   0.00000  Uiso   1.00
C316   C     0.75000  -0.00000   0.14507   0.00000  Uiso   1.00
C317   C     0.67990   0.07010   0.25000   0.00000  Uiso   1.00
C318   C     0.75606   0.46774   0.04251   0.00000  Uiso   1.00
C319   C     0.82000   0.43000   0.75000   0.00000  Uiso   1.00
C320   C     0.92991   0.17990   0.25000   0.00000  Uiso   1.00
C321   C     0.56999   0.32000   0.75000   0.00000  Uiso   1.00
C322   C     0.82010   0.42990   0.25000   0.00000  Uiso   1.00
C323   C     0.68000   0.07000   0.75000   0.00000  Uiso   1.00
C324   C     0.57009   0.32010   0.25000   0.00000  Uiso   1.00
C325   C     0.93000   0.18000   0.75000   0.00000  Uiso   1.00
C326   C     0.67991   0.42991   0.75000   0.00000  Uiso   1.00
C327   C     0.81999   0.07000   0.25000   0.00000  Uiso   1.00
C328   C     0.92991   0.32010   0.75000   0.00000  Uiso   1.00
C329   C     0.74444   0.46766   0.95750   0.00000  Uiso   1.00
C330   C     0.57000   0.18000   0.25000   0.00000  Uiso   1.00
C331   C     0.82009   0.07009   0.75000   0.00000  Uiso   1.00
C332   C     0.68001   0.43001   0.25000   0.00000  Uiso   1.00
C333   C     0.57009   0.17990   0.75000   0.00000  Uiso   1.00
C334   C     0.93000   0.32000   0.25000   0.00000  Uiso   1.00
C335   C     0.63768   0.38963   0.21451   0.00000  Uiso   1.00
C336   C     0.86393   0.10963   0.78542   0.00000  Uiso   1.00
C337   C     0.61001   0.13730   0.21454   0.00000  Uiso   1.00
C338   C     0.89060   0.36418   0.78540   0.00000  Uiso   1.00
C339   C     0.86230   0.11039   0.21451   0.00000  Uiso   1.00
C340   C     0.53233   0.25564   0.04251   0.00000  Uiso   1.00
C341   C     0.63601   0.39042   0.78542   0.00000  Uiso   1.00
C342   C     0.88998   0.36268   0.21453   0.00000  Uiso   1.00
C343   C     0.60941   0.13583   0.78540   0.00000  Uiso   1.00
C344   C     0.63741   0.11012   0.78547   0.00000  Uiso   1.00
C345   C     0.86434   0.39074   0.21461   0.00000  Uiso   1.00
C346   C     0.61028   0.36243   0.78548   0.00000  Uiso   1.00
C347   C     0.89033   0.13608   0.21456   0.00000  Uiso   1.00
C348   C     0.86259   0.38988   0.78546   0.00000  Uiso   1.00
C349   C     0.63565   0.10924   0.21461   0.00000  Uiso   1.00
C350   C     0.88969   0.13761   0.78548   0.00000  Uiso   1.00
C351   C     0.53228   0.24418   0.95749   0.00000  Uiso   1.00
C352   C     0.60964   0.36395   0.21456   0.00000  Uiso   1.00
C353   C     0.88761   0.13968   0.71452   0.00000  Uiso   1.00
C354   C     0.61393   0.35966   0.28545   0.00000  Uiso   1.00
C355   C     0.86012   0.38741   0.71453   0.00000  Uiso   1.00
C356   C     0.64077   0.11437   0.28540   0.00000  Uiso   1.00
C357   C     0.61242   0.36028   0.71452   0.00000  Uiso   1.00
C358   C     0.88612   0.14030   0.28545   0.00000  Uiso   1.00
C359   C     0.63987   0.11258   0.71453   0.00000  Uiso   1.00
C360   C     0.85923   0.38563   0.28539   0.00000  Uiso   1.00
C361   C     0.88731   0.36001   0.28546   0.00000  Uiso   1.00
C362   C     0.99413   0.28229   0.54252   0.00000  Uiso   1.00
C363   C     0.61418   0.14059   0.71459   0.00000  Uiso   1.00
C364   C     0.86040   0.11229   0.28549   0.00000  Uiso   1.00
C365   C     0.64044   0.38599   0.71458   0.00000  Uiso   1.00
C366   C     0.61270   0.14000   0.28547   0.00000  Uiso   1.00
C367   C     0.88581   0.35939   0.71459   0.00000  Uiso   1.00
C368   C     0.63962   0.38770   0.28549   0.00000  Uiso   1.00
C369   C     0.85963   0.11394   0.71457   0.00000  Uiso   1.00
C370   C     0.59825   0.34826   0.25000   0.00000  Uiso   1.00
C371   C     0.90201   0.15201   0.75000   0.00000  Uiso   1.00
C372   C     0.65174   0.09826   0.25001   0.00000  Uiso   1.00
H373   H     0.73801   0.05757   0.02820   0.00000  Uiso   1.00
H374   H     0.51113   0.30777   0.47178   0.00000  Uiso   1.00
H375   H     0.69225   0.48884   0.52817   0.00000  Uiso   1.00
H376   H     0.69242   0.01211   0.47181   0.00000  Uiso   1.00
H377   H     0.51167   0.19238   0.52822   0.00000  Uiso   1.00
H378   H     0.98889   0.19226   0.47179   0.00000  Uiso   1.00
H379   H     0.80772   0.01115   0.52816   0.00000  Uiso   1.00
H380   H     0.80754   0.48789   0.47182   0.00000  Uiso   1.00
H381   H     0.76110   0.05775   0.97182   0.00000  Uiso   1.00
H382   H     0.94226   0.23882   0.02821   0.00000  Uiso   1.00
H383   H     0.94235   0.26163   0.97178   0.00000  Uiso   1.00
H384   H     0.76198   0.44241   0.02820   0.00000  Uiso   1.00
H385   H     0.73889   0.44224   0.97181   0.00000  Uiso   1.00
H386   H     0.55774   0.26123   0.02821   0.00000  Uiso   1.00
H387   H     0.55764   0.23842   0.97178   0.00000  Uiso   1.00
H388   H     0.98835   0.30766   0.52822   0.00000  Uiso   1.00
I389   I     0.66032   0.40755   0.16024   0.00000  Uiso   1.00
I390   I     0.84998   0.41514   0.16014   0.00000  Uiso   1.00
I391   I     0.59215   0.34003   0.83978   0.00000  Uiso   1.00
I392   I     0.91408   0.15121   0.16004   0.00000  Uiso   1.00
I393   I     0.84044   0.40820   0.83981   0.00000  Uiso   1.00
I394   I     0.65000   0.08483   0.16012   0.00000  Uiso   1.00
I395   I     0.90782   0.16002   0.83978   0.00000  Uiso   1.00
I396   I     0.58584   0.34886   0.16004   0.00000  Uiso   1.00
I397   I     0.91004   0.15780   0.66022   0.00000  Uiso   1.00
I398   I     0.59880   0.33590   0.33998   0.00000  Uiso   1.00
I399   I     0.84182   0.40959   0.66019   0.00000  Uiso   1.00
I400   I     0.84864   0.08598   0.83991   0.00000  Uiso   1.00
I401   I     0.66528   0.10012   0.33991   0.00000  Uiso   1.00
I402   I     0.58998   0.34218   0.66022   0.00000  Uiso   1.00
I403   I     0.90143   0.16391   0.33998   0.00000  Uiso   1.00
I404   I     0.65815   0.09037   0.66019   0.00000  Uiso   1.00
I405   I     0.83476   0.39989   0.33986   0.00000  Uiso   1.00
I406   I     0.90943   0.34167   0.33983   0.00000  Uiso   1.00
I407   I     0.59945   0.16469   0.66010   0.00000  Uiso   1.00
I408   I     0.84249   0.08962   0.33977   0.00000  Uiso   1.00
I409   I     0.66428   0.40102   0.66009   0.00000  Uiso   1.00
I410   I     0.59060   0.15836   0.33984   0.00000  Uiso   1.00
I411   I     0.59166   0.15941   0.16017   0.00000  Uiso   1.00
I412   I     0.90051   0.33527   0.66011   0.00000  Uiso   1.00
I413   I     0.65750   0.41040   0.33976   0.00000  Uiso   1.00
I414   I     0.83594   0.09867   0.66007   0.00000  Uiso   1.00
I415   I     0.74212   0.08367   0.11069   0.00000  Uiso   1.00
I416   I     0.75667   0.08378   0.88935   0.00000  Uiso   1.00
I417   I     0.91625   0.24319   0.11066   0.00000  Uiso   1.00
I418   I     0.91630   0.25740   0.88931   0.00000  Uiso   1.00
I419   I     0.75786   0.41633   0.11069   0.00000  Uiso   1.00
I420   I     0.74325   0.41623   0.88932   0.00000  Uiso   1.00
I421   I     0.58376   0.25679   0.11066   0.00000  Uiso   1.00
I422   I     0.91467   0.34942   0.83988   0.00000  Uiso   1.00
I423   I     0.58370   0.24264   0.88932   0.00000  Uiso   1.00
I424   I     0.99257   0.33371   0.61070   0.00000  Uiso   1.00
I425   I     0.50672   0.33378   0.38931   0.00000  Uiso   1.00
I426   I     0.66624   0.49314   0.61067   0.00000  Uiso   1.00
I427   I     0.66632   0.00801   0.38929   0.00000  Uiso   1.00
I428   I     0.50743   0.16630   0.61067   0.00000  Uiso   1.00
I429   I     0.99336   0.16622   0.38934   0.00000  Uiso   1.00
I430   I     0.83376   0.00673   0.61063   0.00000  Uiso   1.00
I431   I     0.83366   0.49200   0.38933   0.00000  Uiso   1.00
I432   I     0.83963   0.09248   0.16024   0.00000  Uiso   1.00
I433   I     0.65115   0.41419   0.83991   0.00000  Uiso   1.00
I434   I     0.90833   0.34058   0.16016   0.00000  Uiso   1.00
I435   I     0.58535   0.15061   0.83988   0.00000  Uiso   1.00
I436   I     0.65955   0.09180   0.83981   0.00000  Uiso   1.00
O437   O     0.75000  -0.00000   0.25000   0.00000  Uiso   1.00
O438   O     0.75000   0.46964   0.66317   0.00000  Uiso   1.00
O439   O     0.96964   0.25000   0.33683   0.00000  Uiso   1.00
O440   O     0.53036   0.25000   0.66317   0.00000  Uiso   1.00
O441   O     0.50000   0.21964   0.83683   0.00000  Uiso   1.00
O442   O     0.50000   0.28036   0.16317   0.00000  Uiso   1.00
O443   O     0.78036  -0.00000   0.83683   0.00000  Uiso   1.00
O444   O     0.71964  -0.00000   0.16317   0.00000  Uiso   1.00
O445   O     0.50000   0.28036   0.83683   0.00000  Uiso   1.00
O446   O     0.50000   0.21964   0.16317   0.00000  Uiso   1.00
O447   O     0.71964  -0.00000   0.83683   0.00000  Uiso   1.00
O448   O     0.75000  -0.00000   0.75000   0.00000  Uiso   1.00
O449   O     0.78036  -0.00000   0.16317   0.00000  Uiso   1.00
O450   O     0.70725   0.07307   0.27282   0.00000  Uiso   1.00
O451   O     0.79274   0.42693   0.72718   0.00000  Uiso   1.00
O452   O     0.92693   0.20725   0.27282   0.00000  Uiso   1.00
O453   O     0.57307   0.29274   0.72718   0.00000  Uiso   1.00
O454   O     0.79274   0.42693   0.27282   0.00000  Uiso   1.00
O455   O     0.70725   0.07307   0.72718   0.00000  Uiso   1.00
O456   O     0.57307   0.29274   0.27282   0.00000  Uiso   1.00
O457   O     0.92693   0.20725   0.72718   0.00000  Uiso   1.00
O458   O     0.70725   0.42693   0.72718   0.00000  Uiso   1.00
O459   O     0.50000   0.25000   0.25000   0.00000  Uiso   1.00
O460   O     0.79274   0.07307   0.27282   0.00000  Uiso   1.00
O461   O     0.92693   0.29274   0.72718   0.00000  Uiso   1.00
O462   O     0.57307   0.20725   0.27282   0.00000  Uiso   1.00
O463   O     0.79274   0.07307   0.72718   0.00000  Uiso   1.00
O464   O     0.70725   0.42693   0.27282   0.00000  Uiso   1.00
O465   O     0.57307   0.20725   0.72718   0.00000  Uiso   1.00
O466   O     0.92693   0.29274   0.27282   0.00000  Uiso   1.00
O467   O     0.95725   0.32307   0.77282   0.00000  Uiso   1.00
O468   O     0.54274   0.17693   0.22718   0.00000  Uiso   1.00
O469   O     0.67693   0.45725   0.77282   0.00000  Uiso   1.00
O470   O     0.50000   0.25000   0.75000   0.00000  Uiso   1.00
O471   O     0.82307   0.04274   0.22718   0.00000  Uiso   1.00
O472   O     0.54274   0.17693   0.77282   0.00000  Uiso   1.00
O473   O     0.95725   0.32307   0.22718   0.00000  Uiso   1.00
O474   O     0.82307   0.04274   0.77282   0.00000  Uiso   1.00
O475   O     0.67693   0.45725   0.22718   0.00000  Uiso   1.00
O476   O     0.95725   0.17693   0.22718   0.00000  Uiso   1.00
O477   O     0.54274   0.32307   0.77282   0.00000  Uiso   1.00
O478   O     0.67693   0.04274   0.22718   0.00000  Uiso   1.00
O479   O     0.82307   0.45725   0.77282   0.00000  Uiso   1.00
O480   O     0.54274   0.32307   0.22718   0.00000  Uiso   1.00
O481   O     0.75000   0.46964   0.33683   0.00000  Uiso   1.00
O482   O     0.95725   0.17693   0.77282   0.00000  Uiso   1.00
O483   O     0.82307   0.45725   0.22718   0.00000  Uiso   1.00
O484   O     0.67693   0.04274   0.77282   0.00000  Uiso   1.00
O485   O     0.75000   0.03036   0.66317   0.00000  Uiso   1.00
O486   O     0.53036   0.25000   0.33683   0.00000  Uiso   1.00
O487   O     0.96964   0.25000   0.66317   0.00000  Uiso   1.00
O488   O     0.75000   0.03036   0.33683   0.00000  Uiso   1.00
Zn489  Zn    0.70660  -0.00000   0.21760   0.00000  Uiso   1.00
Zn490  Zn    0.54340   0.25000   0.28240   0.00000  Uiso   1.00
Zn491  Zn    0.75000   0.45660   0.71760   0.00000  Uiso   1.00
Zn492  Zn    0.75000   0.04340   0.28240   0.00000  Uiso   1.00
Zn493  Zn    0.54340   0.25000   0.71760   0.00000  Uiso   1.00
Zn494  Zn    0.95660   0.25000   0.28240   0.00000  Uiso   1.00
Zn495  Zn    0.75000   0.04340   0.71760   0.00000  Uiso   1.00
Zn496  Zn    0.75000   0.45660   0.28240   0.00000  Uiso   1.00
Zn497  Zn    0.79340  -0.00000   0.78240   0.00000  Uiso   1.00
Zn498  Zn    0.50000   0.20660   0.21760   0.00000  Uiso   1.00
Zn499  Zn    0.50000   0.29340   0.78240   0.00000  Uiso   1.00
Zn500  Zn    0.79340  -0.00000   0.21760   0.00000  Uiso   1.00
Zn501  Zn    0.70660  -0.00000   0.78240   0.00000  Uiso   1.00
Zn502  Zn    0.50000   0.29340   0.21760   0.00000  Uiso   1.00
Zn503  Zn    0.50000   0.20660   0.78240   0.00000  Uiso   1.00
Zn504  Zn    0.95660   0.25000   0.71760   0.00000  Uiso   1.00
C505   C     0.24394   0.53224   0.04251   0.00000  Uiso   1.00
C506   C     0.00558   0.78235   0.45748   0.00000  Uiso   1.00
C507   C     0.34799   0.90201   0.75000   0.00000  Uiso   1.00
C508   C     0.40175   0.65173   0.25000   0.00000  Uiso   1.00
C509   C     0.09798   0.84799   0.75000   0.00000  Uiso   1.00
C510   C     0.34825   0.90173   0.25000   0.00000  Uiso   1.00
C511   C     0.15200   0.59799   0.75000   0.00000  Uiso   1.00
C512   C     0.09826   0.65175   0.75000   0.00000  Uiso   1.00
C513   C     0.40201   0.84799   0.25000   0.00000  Uiso   1.00
C514   C     0.15175   0.90174   0.75000   0.00000  Uiso   1.00
C515   C     0.34798   0.59799   0.25000   0.00000  Uiso   1.00
C516   C     0.40174   0.84826   0.75000   0.00000  Uiso   1.00
C517   C     0.21765   0.99440   0.54249   0.00000  Uiso   1.00
C518   C     0.09799   0.65201   0.25000   0.00000  Uiso   1.00
C519   C     0.34825   0.59825   0.75000   0.00000  Uiso   1.00
C520   C     0.15201   0.90202   0.25000   0.00000  Uiso   1.00
C521   C     0.25000   0.50000   0.10305   0.00000  Uiso   1.00
C522   C     0.25000   0.50000   0.89696   0.00000  Uiso   1.00
C523   C     0.00000   0.75000   0.10305   0.00000  Uiso   1.00
C524   C    -0.00000   0.75000   0.89695   0.00000  Uiso   1.00
C525   C    -0.00000   0.75001   0.60305   0.00000  Uiso   1.00
C526   C     0.00000   0.75001   0.39695   0.00000  Uiso   1.00
C527   C     0.24999   0.99999   0.60304   0.00000  Uiso   1.00
C528   C     0.21774   0.50613   0.45749   0.00000  Uiso   1.00
C529   C     0.24999   0.50000   0.39695   0.00000  Uiso   1.00
C530   C     0.00588   0.71774   0.54251   0.00000  Uiso   1.00
C531   C     0.49444   0.71768   0.45749   0.00000  Uiso   1.00
C532   C     0.28231   0.50560   0.54249   0.00000  Uiso   1.00
C533   C     0.28222   0.99387   0.45750   0.00000  Uiso   1.00
C534   C     0.24538   0.53260   0.08275   0.00000  Uiso   1.00
C535   C     0.25412   0.53267   0.91727   0.00000  Uiso   1.00
C536   C     0.46734   0.74584   0.08274   0.00000  Uiso   1.00
C537   C     0.25556   0.53233   0.95750   0.00000  Uiso   1.00
C538   C     0.46738   0.75442   0.91725   0.00000  Uiso   1.00
C539   C     0.25461   0.96739   0.08274   0.00000  Uiso   1.00
C540   C     0.24587   0.96733   0.91726   0.00000  Uiso   1.00
C541   C     0.03267   0.75418   0.08274   0.00000  Uiso   1.00
C542   C     0.03262   0.74561   0.91725   0.00000  Uiso   1.00
C543   C     0.49557   0.78264   0.58275   0.00000  Uiso   1.00
C544   C     0.00413   0.78268   0.41725   0.00000  Uiso   1.00
C545   C     0.21733   0.99583   0.58273   0.00000  Uiso   1.00
C546   C     0.21739   0.50468   0.41725   0.00000  Uiso   1.00
C547   C     0.00443   0.71739   0.58274   0.00000  Uiso   1.00
C548   C     0.46767   0.74441   0.04251   0.00000  Uiso   1.00
C549   C     0.49589   0.71734   0.41726   0.00000  Uiso   1.00
C550   C     0.28265   0.50415   0.58272   0.00000  Uiso   1.00
C551   C     0.28259   0.99532   0.41726   0.00000  Uiso   1.00
C552   C     0.25000   0.99999   0.02159   0.00000  Uiso   1.00
C553   C     0.25000   0.99999   0.97842   0.00000  Uiso   1.00
C554   C    -0.00000   0.75003   0.02159   0.00000  Uiso   1.00
C555   C    -0.00000   0.75002   0.97841   0.00000  Uiso   1.00
C556   C     0.00001   0.75002   0.52159   0.00000  Uiso   1.00
C557   C     0.00001   0.75002   0.47841   0.00000  Uiso   1.00
C558   C     0.24998   0.50000   0.52158   0.00000  Uiso   1.00
C559   C     0.46772   0.75586   0.95748   0.00000  Uiso   1.00
C560   C     0.24998   0.50000   0.47841   0.00000  Uiso   1.00
C561   C     0.25000   0.50000   0.35493   0.00000  Uiso   1.00
C562   C     0.25000   0.50000   0.64507   0.00000  Uiso   1.00
C563   C     0.00000   0.75000   0.35493   0.00000  Uiso   1.00
C564   C    -0.00000   0.75000   0.64507   0.00000  Uiso   1.00
C565   C    -0.00000   0.75000   0.85493   0.00000  Uiso   1.00
C566   C     0.00000   0.75000   0.14507   0.00000  Uiso   1.00
C567   C     0.25000   0.50000   0.85493   0.00000  Uiso   1.00
C568   C     0.25000   0.50000   0.14507   0.00000  Uiso   1.00
C569   C     0.17990   0.57010   0.25000   0.00000  Uiso   1.00
C570   C     0.25606   0.96774   0.04251   0.00000  Uiso   1.00
C571   C     0.32000   0.93000   0.75000   0.00000  Uiso   1.00
C572   C     0.42991   0.67990   0.25000   0.00000  Uiso   1.00
C573   C     0.06999   0.82000   0.75000   0.00000  Uiso   1.00
C574   C     0.32010   0.92990   0.25000   0.00000  Uiso   1.00
C575   C     0.18000   0.57000   0.75000   0.00000  Uiso   1.00
C576   C     0.07009   0.82010   0.25000   0.00000  Uiso   1.00
C577   C     0.43000   0.68000   0.75000   0.00000  Uiso   1.00
C578   C     0.17991   0.92991   0.75000   0.00000  Uiso   1.00
C579   C     0.31999   0.57000   0.25000   0.00000  Uiso   1.00
C580   C     0.42991   0.82010   0.75000   0.00000  Uiso   1.00
C581   C     0.24444   0.96766   0.95750   0.00000  Uiso   1.00
C582   C     0.07000   0.68000   0.25000   0.00000  Uiso   1.00
C583   C     0.32009   0.57009   0.75000   0.00000  Uiso   1.00
C584   C     0.18001   0.93001   0.25000   0.00000  Uiso   1.00
C585   C     0.07009   0.67990   0.75000   0.00000  Uiso   1.00
C586   C     0.43000   0.82000   0.25000   0.00000  Uiso   1.00
C587   C     0.13768   0.88963   0.21451   0.00000  Uiso   1.00
C588   C     0.36393   0.60963   0.78542   0.00000  Uiso   1.00
C589   C     0.11001   0.63730   0.21454   0.00000  Uiso   1.00
C590   C     0.39060   0.86418   0.78540   0.00000  Uiso   1.00
C591   C     0.36230   0.61039   0.21451   0.00000  Uiso   1.00
C592   C     0.03233   0.75564   0.04251   0.00000  Uiso   1.00
C593   C     0.13601   0.89042   0.78542   0.00000  Uiso   1.00
C594   C     0.38998   0.86268   0.21453   0.00000  Uiso   1.00
C595   C     0.10941   0.63583   0.78540   0.00000  Uiso   1.00
C596   C     0.13741   0.61012   0.78547   0.00000  Uiso   1.00
C597   C     0.36434   0.89074   0.21461   0.00000  Uiso   1.00
C598   C     0.11028   0.86243   0.78548   0.00000  Uiso   1.00
C599   C     0.39033   0.63608   0.21456   0.00000  Uiso   1.00
C600   C     0.36259   0.88988   0.78546   0.00000  Uiso   1.00
C601   C     0.13565   0.60924   0.21461   0.00000  Uiso   1.00
C602   C     0.38969   0.63761   0.78548   0.00000  Uiso   1.00
C603   C     0.03228   0.74418   0.95749   0.00000  Uiso   1.00
C604   C     0.10964   0.86395   0.21456   0.00000  Uiso   1.00
C605   C     0.38761   0.63968   0.71452   0.00000  Uiso   1.00
C606   C     0.11393   0.85966   0.28545   0.00000  Uiso   1.00
C607   C     0.36012   0.88741   0.71453   0.00000  Uiso   1.00
C608   C     0.14077   0.61437   0.28540   0.00000  Uiso   1.00
C609   C     0.11242   0.86028   0.71452   0.00000  Uiso   1.00
C610   C     0.38612   0.64030   0.28545   0.00000  Uiso   1.00
C611   C     0.13987   0.61258   0.71453   0.00000  Uiso   1.00
C612   C     0.35923   0.88563   0.28539   0.00000  Uiso   1.00
C613   C     0.38731   0.86001   0.28546   0.00000  Uiso   1.00
C614   C     0.49413   0.78229   0.54252   0.00000  Uiso   1.00
C615   C     0.11418   0.64059   0.71459   0.00000  Uiso   1.00
C616   C     0.36040   0.61229   0.28549   0.00000  Uiso   1.00
C617   C     0.14044   0.88599   0.71458   0.00000  Uiso   1.00
C618   C     0.11270   0.64000   0.28547   0.00000  Uiso   1.00
C619   C     0.38581   0.85939   0.71459   0.00000  Uiso   1.00
C620   C     0.13962   0.88770   0.28549   0.00000  Uiso   1.00
C621   C     0.35963   0.61394   0.71457   0.00000  Uiso   1.00
C622   C     0.09825   0.84826   0.25000   0.00000  Uiso   1.00
C623   C     0.40201   0.65201   0.75000   0.00000  Uiso   1.00
C624   C     0.15174   0.59826   0.25001   0.00000  Uiso   1.00
H625   H     0.23801   0.55757   0.02820   0.00000  Uiso   1.00
H626   H     0.01113   0.80777   0.47178   0.00000  Uiso   1.00
H627   H     0.19225   0.98884   0.52817   0.00000  Uiso   1.00
H628   H     0.19242   0.51211   0.47181   0.00000  Uiso   1.00
H629   H     0.01167   0.69238   0.52822   0.00000  Uiso   1.00
H630   H     0.48889   0.69226   0.47179   0.00000  Uiso   1.00
H631   H     0.30772   0.51115   0.52816   0.00000  Uiso   1.00
H632   H     0.30754   0.98789   0.47182   0.00000  Uiso   1.00
H633   H     0.26110   0.55775   0.97182   0.00000  Uiso   1.00
H634   H     0.44226   0.73882   0.02821   0.00000  Uiso   1.00
H635   H     0.44235   0.76163   0.97178   0.00000  Uiso   1.00
H636   H     0.26198   0.94241   0.02820   0.00000  Uiso   1.00
H637   H     0.23889   0.94224   0.97181   0.00000  Uiso   1.00
H638   H     0.05774   0.76123   0.02821   0.00000  Uiso   1.00
H639   H     0.05764   0.73842   0.97178   0.00000  Uiso   1.00
H640   H     0.48835   0.80766   0.52822   0.00000  Uiso   1.00
I641   I     0.16032   0.90755   0.16024   0.00000  Uiso   1.00
I642   I     0.34998   0.91514   0.16014   0.00000  Uiso   1.00
I643   I     0.09215   0.84003   0.83978   0.00000  Uiso   1.00
I644   I     0.41408   0.65121   0.16004   0.00000  Uiso   1.00
I645   I     0.34044   0.90820   0.83981   0.00000  Uiso   1.00
I646   I     0.15000   0.58483   0.16012   0.00000  Uiso   1.00
I647   I     0.40782   0.66002   0.83978   0.00000  Uiso   1.00
I648   I     0.08584   0.84886   0.16004   0.00000  Uiso   1.00
I649   I     0.41004   0.65780   0.66022   0.00000  Uiso   1.00
I650   I     0.09880   0.83590   0.33998   0.00000  Uiso   1.00
I651   I     0.34182   0.90959   0.66019   0.00000  Uiso   1.00
I652   I     0.34864   0.58598   0.83991   0.00000  Uiso   1.00
I653   I     0.16528   0.60012   0.33991   0.00000  Uiso   1.00
I654   I     0.08998   0.84218   0.66022   0.00000  Uiso   1.00
I655   I     0.40143   0.66391   0.33998   0.00000  Uiso   1.00
I656   I     0.15815   0.59037   0.66019   0.00000  Uiso   1.00
I657   I     0.33476   0.89989   0.33986   0.00000  Uiso   1.00
I658   I     0.40943   0.84167   0.33983   0.00000  Uiso   1.00
I659   I     0.09945   0.66469   0.66010   0.00000  Uiso   1.00
I660   I     0.34249   0.58962   0.33977   0.00000  Uiso   1.00
I661   I     0.16428   0.90102   0.66009   0.00000  Uiso   1.00
I662   I     0.09060   0.65836   0.33984   0.00000  Uiso   1.00
I663   I     0.09166   0.65941   0.16017   0.00000  Uiso   1.00
I664   I     0.40051   0.83527   0.66011   0.00000  Uiso   1.00
I665   I     0.15750   0.91040   0.33976   0.00000  Uiso   1.00
I666   I     0.33594   0.59867   0.66007   0.00000  Uiso   1.00
I667   I     0.24212   0.58367   0.11069   0.00000  Uiso   1.00
I668   I     0.25667   0.58378   0.88935   0.00000  Uiso   1.00
I669   I     0.41625   0.74319   0.11066   0.00000  Uiso   1.00
I670   I     0.41630   0.75740   0.88931   0.00000  Uiso   1.00
I671   I     0.25786   0.91633   0.11069   0.00000  Uiso   1.00
I672   I     0.24325   0.91623   0.88932   0.00000  Uiso   1.00
I673   I     0.08376   0.75679   0.11066   0.00000  Uiso   1.00
I674   I     0.41467   0.84942   0.83988   0.00000  Uiso   1.00
I675   I     0.08370   0.74264   0.88932   0.00000  Uiso   1.00
I676   I     0.49257   0.83371   0.61070   0.00000  Uiso   1.00
I677   I     0.00672   0.83378   0.38931   0.00000  Uiso   1.00
I678   I     0.16624   0.99314   0.61067   0.00000  Uiso   1.00
I679   I     0.16632   0.50801   0.38929   0.00000  Uiso   1.00
I680   I     0.00743   0.66630   0.61067   0.00000  Uiso   1.00
I681   I     0.49336   0.66622   0.38934   0.00000  Uiso   1.00
I682   I     0.33376   0.50673   0.61063   0.00000  Uiso   1.00
I683   I     0.33366   0.99200   0.38933   0.00000  Uiso   1.00
I684   I     0.33963   0.59248   0.16024   0.00000  Uiso   1.00
I685   I     0.15115   0.91419   0.83991   0.00000  Uiso   1.00
I686   I     0.40833   0.84058   0.16016   0.00000  Uiso   1.00
I687   I     0.08535   0.65061   0.83988   0.00000  Uiso   1.00
I688   I     0.15955   0.59180   0.83981   0.00000  Uiso   1.00
O689   O     0.25000   0.50000   0.25000   0.00000  Uiso   1.00
O690   O     0.25000   0.96964   0.66317   0.00000  Uiso   1.00
O691   O     0.46964   0.75000   0.33683   0.00000  Uiso   1.00
O692   O     0.03036   0.75000   0.66317   0.00000  Uiso   1.00
O693   O     0.00000   0.71964   0.83683   0.00000  Uiso   1.00
O694   O     0.00000   0.78036   0.16317   0.00000  Uiso   1.00
O695   O     0.28036   0.50000   0.83683   0.00000  Uiso   1.00
O696   O     0.21964   0.50000   0.16317   0.00000  Uiso   1.00
O697   O     0.00000   0.78036   0.83683   0.00000  Uiso   1.00
O698   O     0.00000   0.71964   0.16317   0.00000  Uiso   1.00
O699   O     0.21964   0.50000   0.83683   0.00000  Uiso   1.00
O700   O     0.25000   0.50000   0.75000   0.00000  Uiso   1.00
O701   O     0.28036   0.50000   0.16317   0.00000  Uiso   1.00
O702   O     0.20725   0.57307   0.27282   0.00000  Uiso   1.00
O703   O     0.29274   0.92693   0.72718   0.00000  Uiso   1.00
O704   O     0.42693   0.70725   0.27282   0.00000  Uiso   1.00
O705   O     0.07307   0.79274   0.72718   0.00000  Uiso   1.00
O706   O     0.29274   0.92693   0.27282   0.00000  Uiso   1.00
O707   O     0.20725   0.57307   0.72718   0.00000  Uiso   1.00
O708   O     0.07307   0.79274   0.27282   0.00000  Uiso   1.00
O709   O     0.42693   0.70725   0.72718   0.00000  Uiso   1.00
O710   O     0.20725   0.92693   0.72718   0.00000  Uiso   1.00
O711   O     0.00000   0.75000   0.25000   0.00000  Uiso   1.00
O712   O     0.29274   0.57307   0.27282   0.00000  Uiso   1.00
O713   O     0.42693   0.79274   0.72718   0.00000  Uiso   1.00
O714   O     0.07307   0.70725   0.27282   0.00000  Uiso   1.00
O715   O     0.29274   0.57307   0.72718   0.00000  Uiso   1.00
O716   O     0.20725   0.92693   0.27282   0.00000  Uiso   1.00
O717   O     0.07307   0.70725   0.72718   0.00000  Uiso   1.00
O718   O     0.42693   0.79274   0.27282   0.00000  Uiso   1.00
O719   O     0.45725   0.82307   0.77282   0.00000  Uiso   1.00
O720   O     0.04274   0.67693   0.22718   0.00000  Uiso   1.00
O721   O     0.17693   0.95725   0.77282   0.00000  Uiso   1.00
O722   O     0.00000   0.75000   0.75000   0.00000  Uiso   1.00
O723   O     0.32307   0.54274   0.22718   0.00000  Uiso   1.00
O724   O     0.04274   0.67693   0.77282   0.00000  Uiso   1.00
O725   O     0.45725   0.82307   0.22718   0.00000  Uiso   1.00
O726   O     0.32307   0.54274   0.77282   0.00000  Uiso   1.00
O727   O     0.17693   0.95725   0.22718   0.00000  Uiso   1.00
O728   O     0.45725   0.67693   0.22718   0.00000  Uiso   1.00
O729   O     0.04274   0.82307   0.77282   0.00000  Uiso   1.00
O730   O     0.17693   0.54274   0.22718   0.00000  Uiso   1.00
O731   O     0.32307   0.95725   0.77282   0.00000  Uiso   1.00
O732   O     0.04274   0.82307   0.22718   0.00000  Uiso   1.00
O733   O     0.25000   0.96964   0.33683   0.00000  Uiso   1.00
O734   O     0.45725   0.67693   0.77282   0.00000  Uiso   1.00
O735   O     0.32307   0.95725   0.22718   0.00000  Uiso   1.00
O736   O     0.17693   0.54274   0.77282   0.00000  Uiso   1.00
O737   O     0.25000   0.53036   0.66317   0.00000  Uiso   1.00
O738   O     0.03036   0.75000   0.33683   0.00000  Uiso   1.00
O739   O     0.46964   0.75000   0.66317   0.00000  Uiso   1.00
O740   O     0.25000   0.53036   0.33683   0.00000  Uiso   1.00
Zn741  Zn    0.20660   0.50000   0.21760   0.00000  Uiso   1.00
Zn742  Zn    0.04340   0.75000   0.28240   0.00000  Uiso   1.00
Zn743  Zn    0.25000   0.95660   0.71760   0.00000  Uiso   1.00
Zn744  Zn    0.25000   0.54340   0.28240   0.00000  Uiso   1.00
Zn745  Zn    0.04340   0.75000   0.71760   0.00000  Uiso   1.00
Zn746  Zn    0.45660   0.75000   0.28240   0.00000  Uiso   1.00
Zn747  Zn    0.25000   0.54340   0.71760   0.00000  Uiso   1.00
Zn748  Zn    0.25000   0.95660   0.28240   0.00000  Uiso   1.00
Zn749  Zn    0.29340   0.50000   0.78240   0.00000  Uiso   1.00
Zn750  Zn    0.00000   0.70660   0.21760   0.00000  Uiso   1.00
Zn751  Zn    0.00000   0.79340   0.78240   0.00000  Uiso   1.00
Zn752  Zn    0.29340   0.50000   0.21760   0.00000  Uiso   1.00
Zn753  Zn    0.20660   0.50000   0.78240   0.00000  Uiso   1.00
Zn754  Zn    0.00000   0.79340   0.21760   0.00000  Uiso   1.00
Zn755  Zn    0.00000   0.70660   0.78240   0.00000  Uiso   1.00
Zn756  Zn    0.45660   0.75000   0.71760   0.00000  Uiso   1.00
C757   C     0.74394   0.53224   0.04251   0.00000  Uiso   1.00
C758   C     0.50558   0.78235   0.45748   0.00000  Uiso   1.00
C759   C     0.84799   0.90201   0.75000   0.00000  Uiso   1.00
C760   C     0.90175   0.65173   0.25000   0.00000  Uiso   1.00
C761   C     0.59798   0.84799   0.75000   0.00000  Uiso   1.00
C762   C     0.84825   0.90173   0.25000   0.00000  Uiso   1.00
C763   C     0.65200   0.59799   0.75000   0.00000  Uiso   1.00
C764   C     0.59826   0.65175   0.75000   0.00000  Uiso   1.00
C765   C     0.90201   0.84799   0.25000   0.00000  Uiso   1.00
C766   C     0.65175   0.90174   0.75000   0.00000  Uiso   1.00
C767   C     0.84798   0.59799   0.25000   0.00000  Uiso   1.00
C768   C     0.90174   0.84826   0.75000   0.00000  Uiso   1.00
C769   C     0.71765   0.99440   0.54249   0.00000  Uiso   1.00
C770   C     0.59799   0.65201   0.25000   0.00000  Uiso   1.00
C771   C     0.84825   0.59825   0.75000   0.00000  Uiso   1.00
C772   C     0.65201   0.90202   0.25000   0.00000  Uiso   1.00
C773   C     0.75000   0.50000   0.10305   0.00000  Uiso   1.00
C774   C     0.75000   0.50000   0.89696   0.00000  Uiso   1.00
C775   C     0.50000   0.75000   0.10305   0.00000  Uiso   1.00
C776   C     0.50000   0.75000   0.89695   0.00000  Uiso   1.00
C777   C     0.50000   0.75001   0.60305   0.00000  Uiso   1.00
C778   C     0.50000   0.75001   0.39695   0.00000  Uiso   1.00
C779   C     0.74999   0.99999   0.60304   0.00000  Uiso   1.00
C780   C     0.71774   0.50613   0.45749   0.00000  Uiso   1.00
C781   C     0.74999   0.50000   0.39695   0.00000  Uiso   1.00
C782   C     0.50588   0.71774   0.54251   0.00000  Uiso   1.00
C783   C     0.99444   0.71768   0.45749   0.00000  Uiso   1.00
C784   C     0.78231   0.50560   0.54249   0.00000  Uiso   1.00
C785   C     0.78222   0.99387   0.45750   0.00000  Uiso   1.00
C786   C     0.74538   0.53260   0.08275   0.00000  Uiso   1.00
C787   C     0.75412   0.53267   0.91727   0.00000  Uiso   1.00
C788   C     0.96734   0.74584   0.08274   0.00000  Uiso   1.00
C789   C     0.75556   0.53233   0.95750   0.00000  Uiso   1.00
C790   C     0.96738   0.75442   0.91725   0.00000  Uiso   1.00
C791   C     0.75461   0.96739   0.08274   0.00000  Uiso   1.00
C792   C     0.74587   0.96733   0.91726   0.00000  Uiso   1.00
C793   C     0.53267   0.75418   0.08274   0.00000  Uiso   1.00
C794   C     0.53262   0.74561   0.91725   0.00000  Uiso   1.00
C795   C     0.99557   0.78264   0.58275   0.00000  Uiso   1.00
C796   C     0.50413   0.78268   0.41725   0.00000  Uiso   1.00
C797   C     0.71733   0.99583   0.58273   0.00000  Uiso   1.00
C798   C     0.71739   0.50468   0.41725   0.00000  Uiso   1.00
C799   C     0.50443   0.71739   0.58274   0.00000  Uiso   1.00
C800   C     0.96767   0.74441   0.04251   0.00000  Uiso   1.00
C801   C     0.99589   0.71734   0.41726   0.00000  Uiso   1.00
C802   C     0.78265   0.50415   0.58272   0.00000  Uiso   1.00
C803   C     0.78259   0.99532   0.41726   0.00000  Uiso   1.00
C804   C     0.75000   0.99999   0.02159   0.00000  Uiso   1.00
C805   C     0.75000   0.99999   0.97842   0.00000  Uiso   1.00
C806   C     0.50000   0.75003   0.02159   0.00000  Uiso   1.00
C807   C     0.50000   0.75002   0.97841   0.00000  Uiso   1.00
C808   C     0.50001   0.75002   0.52159   0.00000  Uiso   1.00
C809   C     0.50001   0.75002   0.47841   0.00000  Uiso   1.00
C810   C     0.74998   0.50000   0.52158   0.00000  Uiso   1.00
C811   C     0.96772   0.75586   0.95748   0.00000  Uiso   1.00
C812   C     0.74998   0.50000   0.47841   0.00000  Uiso   1.00
C813   C     0.75000   0.50000   0.35493   0.00000  Uiso   1.00
C814   C     0.75000   0.50000   0.64507   0.00000  Uiso   1.00
C815   C     0.50000   0.75000   0.35493   0.00000  Uiso   1.00
C816   C     0.50000   0.75000   0.64507   0.00000  Uiso   1.00
C817   C     0.50000   0.75000   0.85493   0.00000  Uiso   1.00
C818   C     0.50000   0.75000   0.14507   0.00000  Uiso   1.00
C819   C     0.75000   0.50000   0.85493   0.00000  Uiso   1.00
C820   C     0.75000   0.50000   0.14507   0.00000  Uiso   1.00
C821   C     0.67990   0.57010   0.25000   0.00000  Uiso   1.00
C822   C     0.75606   0.96774   0.04251   0.00000  Uiso   1.00
C823   C     0.82000   0.93000   0.75000   0.00000  Uiso   1.00
C824   C     0.92991   0.67990   0.25000   0.00000  Uiso   1.00
C825   C     0.56999   0.82000   0.75000   0.00000  Uiso   1.00
C826   C     0.82010   0.92990   0.25000   0.00000  Uiso   1.00
C827   C     0.68000   0.57000   0.75000   0.00000  Uiso   1.00
C828   C     0.57009   0.82010   0.25000   0.00000  Uiso   1.00
C829   C     0.93000   0.68000   0.75000   0.00000  Uiso   1.00
C830   C     0.67991   0.92991   0.75000   0.00000  Uiso   1.00
C831   C     0.81999   0.57000   0.25000   0.00000  Uiso   1.00
C832   C     0.92991   0.82010   0.75000   0.00000  Uiso   1.00
C833   C     0.74444   0.96766   0.95750   0.00000  Uiso   1.00
C834   C     0.57000   0.68000   0.25000   0.00000  Uiso   1.00
C835   C     0.82009   0.57009   0.75000   0.00000  Uiso   1.00
C836   C     0.68001   0.93001   0.25000   0.00000  Uiso   1.00
C837   C     0.57009   0.67990   0.75000   0.00000  Uiso   1.00
C838   C     0.93000   0.82000   0.25000   0.00000  Uiso   1.00
C839   C     0.63768   0.88963   0.21451   0.00000  Uiso   1.00
C840   C     0.86393   0.60963   0.78542   0.00000  Uiso   1.00
C841   C     0.61001   0.63730   0.21454   0.00000  Uiso   1.00
C842   C     0.89060   0.86418   0.78540   0.00000  Uiso   1.00
C843   C     0.86230   0.61039   0.21451   0.00000  Uiso   1.00
C844   C     0.53233   0.75564   0.04251   0.00000  Uiso   1.00
C845   C     0.63601   0.89042   0.78542   0.00000  Uiso   1.00
C846   C     0.88998   0.86268   0.21453   0.00000  Uiso   1.00
C847   C     0.60941   0.63583   0.78540   0.00000  Uiso   1.00
C848   C     0.63741   0.61012   0.78547   0.00000  Uiso   1.00
C849   C     0.86434   0.89074   0.21461   0.00000  Uiso   1.00
C850   C     0.61028   0.86243   0.78548   0.00000  Uiso   1.00
C851   C     0.89033   0.63608   0.21456   0.00000  Uiso   1.00
C852   C     0.86259   0.88988   0.78546   0.00000  Uiso   1.00
C853   C     0.63565   0.60924   0.21461   0.00000  Uiso   1.00
C854   C     0.88969   0.63761   0.78548   0.00000  Uiso   1.00
C855   C     0.53228   0.74418   0.95749   0.00000  Uiso   1.00
C856   C     0.60964   0.86395   0.21456   0.00000  Uiso   1.00
C857   C     0.88761   0.63968   0.71452   0.00000  Uiso   1.00
C858   C     0.61393   0.85966   0.28545   0.00000  Uiso   1.00
C859   C     0.86012   0.88741   0.71453   0.00000  Uiso   1.00
C860   C     0.64077   0.61437   0.28540   0.00000  Uiso   1.00
C861   C     0.61242   0.86028   0.71452   0.00000  Uiso   1.00
C862   C     0.88612   0.64030   0.28545   0.00000  Uiso   1.00
C863   C     0.63987   0.61258   0.71453   0.00000  Uiso   1.00
C864   C     0.85923   0.88563   0.28539   0.00000  Uiso   1.00
C865   C     0.88731   0.86001   0.28546   0.00000  Uiso   1.00
C866   C     0.99413   0.78229   0.54252   0.00000  Uiso   1.00
C867   C     0.61418   0.64059   0.71459   0.00000  Uiso   1.00
C868   C     0.86040   0.61229   0.28549   0.00000  Uiso   1.00
C869   C     0.64044   0.88599   0.71458   0.00000  Uiso   1.00
C870   C     0.61270   0.64000   0.28547   0.00000  Uiso   1.00
C871   C     0.88581   0.85939   0.71459   0.00000  Uiso   1.00
C872   C     0.63962   0.88770   0.28549   0.00000  Uiso   1.00
C873   C     0.85963   0.61394   0.71457   0.00000  Uiso   1.00
C874   C     0.59825   0.84826   0.25000   0.00000  Uiso   1.00
C875   C     0.90201   0.65201   0.75000   0.00000  Uiso   1.00
C876   C     0.65174   0.59826   0.25001   0.00000  Uiso   1.00
H877   H     0.73801   0.55757   0.02820   0.00000  Uiso   1.00
H878   H     0.51113   0.80777   0.47178   0.00000  Uiso   1.00
H879   H     0.69225   0.98884   0.52817   0.00000  Uiso   1.00
H880   H     0.69242   0.51211   0.47181   0.00000  Uiso   1.00
H881   H     0.51167   0.69238   0.52822   0.00000  Uiso   1.00
H882   H     0.98889   0.69226   0.47179   0.00000  Uiso   1.00
H883   H     0.80772   0.51115   0.52816   0.00000  Uiso   1.00
H884   H     0.80754   0.98789   0.47182   0.00000  Uiso   1.00
H885   H     0.76110   0.55775   0.97182   0.00000  Uiso   1.00
H886   H     0.94226   0.73882   0.02821   0.00000  Uiso   1.00
H887   H     0.94235   0.76163   0.97178   0.00000  Uiso   1.00
H888   H     0.76198   0.94241   0.02820   0.00000  Uiso   1.00
H889   H     0.73889   0.94224   0.97181   0.00000  Uiso   1.00
H890   H     0.55774   0.76123   0.02821   0.00000  Uiso   1.00
H891   H     0.55764   0.73842   0.97178   0.00000  Uiso   1.00
H892   H     0.98835   0.80766   0.52822   0.00000  Uiso   1.00
I893   I     0.66032   0.90755   0.16024   0.00000  Uiso   1.00
I894   I     0.84998   0.91514   0.16014   0.00000  Uiso   1.00
I895   I     0.59215   0.84003   0.83978   0.00000  Uiso   1.00
I896   I     0.91408   0.65121   0.16004   0.00000  Uiso   1.00
I897   I     0.84044   0.90820   0.83981   0.00000  Uiso   1.00
I898   I     0.65000   0.58483   0.16012   0.00000  Uiso   1.00
I899   I     0.90782   0.66002   0.83978   0.00000  Uiso   1.00
I900   I     0.58584   0.84886   0.16004   0.00000  Uiso   1.00
I901   I     0.91004   0.65780   0.66022   0.00000  Uiso   1.00
I902   I     0.59880   0.83590   0.33998   0.00000  Uiso   1.00
I903   I     0.84182   0.90959   0.66019   0.00000  Uiso   1.00
I904   I     0.84864   0.58598   0.83991   0.00000  Uiso   1.00
I905   I     0.66528   0.60012   0.33991   0.00000  Uiso   1.00
I906   I     0.58998   0.84218   0.66022   0.00000  Uiso   1.00
I907   I     0.90143   0.66391   0.33998   0.00000  Uiso   1.00
I908   I     0.65815   0.59037   0.66019   0.00000  Uiso   1.00
I909   I     0.83476   0.89989   0.33986   0.00000  Uiso   1.00
I910   I     0.90943   0.84167   0.33983   0.00000  Uiso   1.00
I911   I     0.59945   0.66469   0.66010   0.00000  Uiso   1.00
I912   I     0.84249   0.58962   0.33977   0.00000  Uiso   1.00
I913   I     0.66428   0.90102   0.66009   0.00000  Uiso   1.00
I914   I     0.59060   0.65836   0.33984   0.00000  Uiso   1.00
I915   I     0.59166   0.65941   0.16017   0.00000  Uiso   1.00
I916   I     0.90051   0.83527   0.66011   0.00000  Uiso   1.00
I917   I     0.65750   0.91040   0.33976   0.00000  Uiso   1.00
I918   I     0.83594   0.59867   0.66007   0.00000  Uiso   1.00
I919   I     0.74212   0.58367   0.11069   0.00000  Uiso   1.00
I920   I     0.75667   0.58378   0.88935   0.00000  Uiso   1.00
I921   I     0.91625   0.74319   0.11066   0.00000  Uiso   1.00
I922   I     0.91630   0.75740   0.88931   0.00000  Uiso   1.00
I923   I     0.75786   0.91633   0.11069   0.00000  Uiso   1.00
I924   I     0.74325   0.91623   0.88932   0.00000  Uiso   1.00
I925   I     0.58376   0.75679   0.11066   0.00000  Uiso   1.00
I926   I     0.91467   0.84942   0.83988   0.00000  Uiso   1.00
I927   I     0.58370   0.74264   0.88932   0.00000  Uiso   1.00
I928   I     0.99257   0.83371   0.61070   0.00000  Uiso   1.00
I929   I     0.50672   0.83378   0.38931   0.00000  Uiso   1.00
I930   I     0.66624   0.99314   0.61067   0.00000  Uiso   1.00
I931   I     0.66632   0.50801   0.38929   0.00000  Uiso   1.00
I932   I     0.50743   0.66630   0.61067   0.00000  Uiso   1.00
I933   I     0.99336   0.66622   0.38934   0.00000  Uiso   1.00
I934   I     0.83376   0.50673   0.61063   0.00000  Uiso   1.00
I935   I     0.83366   0.99200   0.38933   0.00000  Uiso   1.00
I936   I     0.83963   0.59248   0.16024   0.00000  Uiso   1.00
I937   I     0.65115   0.91419   0.83991   0.00000  Uiso   1.00
I938   I     0.90833   0.84058   0.16016   0.00000  Uiso   1.00
I939   I     0.58535   0.65061   0.83988   0.00000  Uiso   1.00
I940   I     0.65955   0.59180   0.83981   0.00000  Uiso   1.00
O941   O     0.75000   0.50000   0.25000   0.00000  Uiso   1.00
O942   O     0.75000   0.96964   0.66317   0.00000  Uiso   1.00
O943   O     0.96964   0.75000   0.33683   0.00000  Uiso   1.00
O944   O     0.53036   0.75000   0.66317   0.00000  Uiso   1.00
O945   O     0.50000   0.71964   0.83683   0.00000  Uiso   1.00
O946   O     0.50000   0.78036   0.16317   0.00000  Uiso   1.00
O947   O     0.78036   0.50000   0.83683   0.00000  Uiso   1.00
O948   O     0.71964   0.50000   0.16317   0.00000  Uiso   1.00
O949   O     0.50000   0.78036   0.83683   0.00000  Uiso   1.00
O950   O     0.50000   0.71964   0.16317   0.00000  Uiso   1.00
O951   O     0.71964   0.50000   0.83683   0.00000  Uiso   1.00
O952   O     0.75000   0.50000   0.75000   0.00000  Uiso   1.00
O953   O     0.78036   0.50000   0.16317   0.00000  Uiso   1.00
O954   O     0.70725   0.57307   0.27282   0.00000  Uiso   1.00
O955   O     0.79274   0.92693   0.72718   0.00000  Uiso   1.00
O956   O     0.92693   0.70725   0.27282   0.00000  Uiso   1.00
O957   O     0.57307   0.79274   0.72718   0.00000  Uiso   1.00
O958   O     0.79274   0.92693   0.27282   0.00000  Uiso   1.00
O959   O     0.70725   0.57307   0.72718   0.00000  Uiso   1.00
O960   O     0.57307   0.79274   0.27282   0.00000  Uiso   1.00
O961   O     0.92693   0.70725   0.72718   0.00000  Uiso   1.00
O962   O     0.70725   0.92693   0.72718   0.00000  Uiso   1.00
O963   O     0.50000   0.75000   0.25000   0.00000  Uiso   1.00
O964   O     0.79274   0.57307   0.27282   0.00000  Uiso   1.00
O965   O     0.92693   0.79274   0.72718   0.00000  Uiso   1.00
O966   O     0.57307   0.70725   0.27282   0.00000  Uiso   1.00
O967   O     0.79274   0.57307   0.72718   0.00000  Uiso   1.00
O968   O     0.70725   0.92693   0.27282   0.00000  Uiso   1.00
O969   O     0.57307   0.70725   0.72718   0.00000  Uiso   1.00
O970   O     0.92693   0.79274   0.27282   0.00000  Uiso   1.00
O971   O     0.95725   0.82307   0.77282   0.00000  Uiso   1.00
O972   O     0.54274   0.67693   0.22718   0.00000  Uiso   1.00
O973   O     0.67693   0.95725   0.77282   0.00000  Uiso   1.00
O974   O     0.50000   0.75000   0.75000   0.00000  Uiso   1.00
O975   O     0.82307   0.54274   0.22718   0.00000  Uiso   1.00
O976   O     0.54274   0.67693   0.77282   0.00000  Uiso   1.00
O977   O     0.95725   0.82307   0.22718   0.00000  Uiso   1.00
O978   O     0.82307   0.54274   0.77282   0.00000  Uiso   1.00
O979   O     0.67693   0.95725   0.22718   0.00000  Uiso   1.00
O980   O     0.95725   0.67693   0.22718   0.00000  Uiso   1.00
O981   O     0.54274   0.82307   0.77282   0.00000  Uiso   1.00
O982   O     0.67693   0.54274   0.22718   0.00000  Uiso   1.00
O983   O     0.82307   0.95725   0.77282   0.00000  Uiso   1.00
O984   O     0.54274   0.82307   0.22718   0.00000  Uiso   1.00
O985   O     0.75000   0.96964   0.33683   0.00000  Uiso   1.00
O986   O     0.95725   0.67693   0.77282   0.00000  Uiso   1.00
O987   O     0.82307   0.95725   0.22718   0.00000  Uiso   1.00
O988   O     0.67693   0.54274   0.77282   0.00000  Uiso   1.00
O989   O     0.75000   0.53036   0.66317   0.00000  Uiso   1.00
O990   O     0.53036   0.75000   0.33683   0.00000  Uiso   1.00
O991   O     0.96964   0.75000   0.66317   0.00000  Uiso   1.00
O992   O     0.75000   0.53036   0.33683   0.00000  Uiso   1.00
Zn993  Zn    0.70660   0.50000   0.21760   0.00000  Uiso   1.00
Zn994  Zn    0.54340   0.75000   0.28240   0.00000  Uiso   1.00
Zn995  Zn    0.75000   0.95660   0.71760   0.00000  Uiso   1.00
Zn996  Zn    0.75000   0.54340   0.28240   0.00000  Uiso   1.00
Zn997  Zn    0.54340   0.75000   0.71760   0.00000  Uiso   1.00
Zn998  Zn    0.95660   0.75000   0.28240   0.00000  Uiso   1.00
Zn999  Zn    0.75000   0.54340   0.71760   0.00000  Uiso   1.00
Zn1000 Zn    0.75000   0.95660   0.28240   0.00000  Uiso   1.00
Zn1001 Zn    0.79340   0.50000   0.78240   0.00000  Uiso   1.00
Zn1002 Zn    0.50000   0.70660   0.21760   0.00000  Uiso   1.00
Zn1003 Zn    0.50000   0.79340   0.78240   0.00000  Uiso   1.00
Zn1004 Zn    0.79340   0.50000   0.21760   0.00000  Uiso   1.00
Zn1005 Zn    0.70660   0.50000   0.78240   0.00000  Uiso   1.00
Zn1006 Zn    0.50000   0.79340   0.21760   0.00000  Uiso   1.00
Zn1007 Zn    0.50000   0.70660   0.78240   0.00000  Uiso   1.00
Zn1008 Zn    0.95660   0.75000   0.71760   0.00000  Uiso   1.00
loop_
_geom_bond_atom_site_label_1
_geom_bond_atom_site_label_2
_geom_bond_distance
_geom_bond_site_symmetry_2
_ccdc_geom_bond_type
C1     C30     1.390   .     A
C1     H121    1.079   .     S
C1     C552    1.409   1_545 S
C2     H122    1.079   .     S
C2     C53     1.409   .     A
C2     C40     1.390   .     A
C3     C96     1.410   .     A
C3     C103    1.410   .     A
C3     C67     1.460   .     S
C4     C68     1.468   .     S
C4     C106    1.417   .     A
C4     C95     1.417   .     A
C5     C94     1.410   .     A
C5     C69     1.459   .     S
C5     C105    1.410   .     A
C6     C93     1.417   .     A
C6     C70     1.469   .     S
C6     C108    1.417   .     A
C7     C107    1.410   .     A
C7     C71     1.460   .     S
C7     C92     1.410   .     A
C8     C81     1.468   .     S
C8     C91     1.417   .     A
C8     C111    1.417   .     A
C9     C82     1.460   .     S
C9     C109    1.410   .     A
C9     C90     1.410   .     A
C10    C89     1.417   .     A
C10    C113    1.417   .     A
C10    C74     1.468   .     S
C11    C87     1.410   .     A
C11    C112    1.410   .     A
C11    C75     1.459   .     S
C12    C115    1.417   .     A
C12    C76     1.468   .     S
C12    C86     1.417   .     A
C13    C41     1.390   .     A
C13    H123    1.079   .     S
C13    C558    1.409   .     S
C14    C78     1.460   .     S
C14    C114    1.411   .     A
C14    C85     1.411   .     A
C15    C117    1.416   .     A
C15    C84     1.416   .     A
C15    C79     1.468   .     S
C16    C116    1.410   .     A
C16    C80     1.459   .     S
C16    C83     1.410   .     A
C17    C64     1.451   .     S
C17    C539    1.402   1_545 A
C17    C30     1.402   .     S
C18    C540    1.402   1_545 A
C18    C31     1.402   .     S
C18    C63     1.451   .     S
C19    C62     1.451   .     S
C19    C37     1.402   .     A
C19    C284    1.402   1_455 S
C20    C286    1.402   1_455 A
C20    C61     1.451   .     S
C20    C38     1.402   .     S
C21    C60     1.451   .     S
C21    C291    1.402   1_455 A
C21    C43     1.402   .     S
C22    C59     1.451   .     S
C22    C40     1.402   .     A
C22    C297    1.402   1_455 S
C23    C562    1.451   .     S
C23    C41     1.402   .     A
C23    C550    1.402   .     S
C24    C42     1.390   .     A
C24    H124    1.079   .     S
C24    C56     1.409   .     S
C25    C57     1.451   .     S
C25    C42     1.402   .     A
C25    C551    1.402   1_545 S
C26    C43     1.390   .     A
C26    C52     1.409   .     A
C26    H125    1.079   .     S
C27    H126    1.079   .     S
C27    C45     1.390   .     A
C27    C305    1.409   .     S
C28    H127    1.079   .     S
C28    C54     1.409   .     A
C28    C46     1.390   .     A
C29    C47     1.390   .     A
C29    C560    1.409   .     A
C29    H128    1.079   .     S
C30    I163    2.119   .     S
C31    C33     1.390   .     A
C31    I164    2.119   .     S
C32    C44     1.390   .     A
C32    I165    2.118   .     S
C32    C271    1.402   .     S
C33    H129    1.079   .     S
C33    C553    1.409   1_545 S
C34    C272    1.402   .     A
C34    C55     1.390   .     A
C34    I166    2.118   .     S
C35    C66     1.390   .     A
C35    I167    2.119   .     S
C35    C521    1.402   .     A
C36    I168    2.118   .     S
C36    C522    1.402   .     A
C36    C77     1.390   .     A
C37    C88     1.390   .     A
C37    I169    2.118   .     S
C38    I171    2.118   .     S
C38    C99     1.390   .     A
C39    I172    2.119   .     S
C39    C110    1.390   .     A
C39    C273    1.402   .     A
C40    I173    2.119   .     S
C41    I174    2.118   .     S
C42    I175    2.119   .     S
C43    I176    2.119   .     S
C44    C302    1.409   .     A
C44    H130    1.079   .     S
C45    I177    2.119   .     S
C45    C274    1.402   .     S
C46    I178    2.118   .     S
C46    C527    1.402   1_545 S
C47    I179    2.119   .     S
C47    C529    1.402   .     S
C48    C66     1.409   .     A
C48    C505    1.409   .     S
C48    C49     1.491   1_554 S
C49    C77     1.409   .     A
C49    C48     1.491   1_556 S
C49    C537    1.409   .     S
C50    C296    1.409   1_455 A
C50    C51     1.491   1_554 S
C50    C88     1.409   .     S
C51    C307    1.409   1_455 A
C51    C50     1.491   1_556 S
C51    C99     1.409   .     S
C52    C53     1.491   .     S
C52    C362    1.409   1_455 S
C53    C279    1.409   1_455 S
C54    C517    1.409   1_545 S
C54    C56     1.491   .     S
C55    C303    1.409   .     A
C55    H131    1.079   .     S
C56    C533    1.409   1_545 A
C57    O236    1.282   .     A
C57    O733    1.282   1_545 S
C58    C527    1.451   1_545 S
C58    O690    1.282   1_545 A
C58    O233    1.282   .     S
C59    O234    1.282   .     A
C59    O439    1.282   1_455 S
C60    O487    1.282   1_455 A
C60    O188    1.282   .     S
C61    O189    1.282   .     S
C61    O193    1.282   .     S
C62    O190    1.282   .     A
C62    O194    1.282   .     A
C63    O195    1.282   .     A
C63    O191    1.282   .     A
C64    O192    1.282   .     S
C64    O197    1.282   .     S
C65    O198    1.284   .     A
C65    C120    1.469   .     S
C65    O226    1.284   .     A
C66    H132    1.079   .     S
C67    O199    1.282   .     A
C67    O227    1.282   .     A
C68    O200    1.284   .     A
C68    O224    1.284   .     A
C69    O201    1.282   .     A
C69    O225    1.282   .     A
C70    O231    1.284   .     A
C70    O202    1.284   .     A
C71    O232    1.282   .     A
C71    O203    1.282   .     A
C72    O204    1.284   .     A
C72    C118    1.468   .     S
C72    O228    1.284   .     A
C73    C119    1.459   .     S
C73    O230    1.282   .     A
C73    O205    1.282   .     A
C74    O206    1.284   .     A
C74    O217    1.284   .     A
C75    O219    1.282   .     A
C75    O208    1.282   .     A
C76    O209    1.284   .     A
C76    O215    1.284   .     A
C77    H133    1.079   .     S
C78    O210    1.282   .     A
C78    O216    1.282   .     A
C79    O211    1.284   .     A
C79    O222    1.284   .     A
C80    O212    1.282   .     A
C80    O223    1.282   .     A
C81    O213    1.284   .     A
C81    O220    1.284   .     A
C82    O221    1.282   .     A
C82    O214    1.282   .     A
C83    C100    1.402   .     A
C83    I137    2.155   .     S
C84    I148    2.149   .     S
C84    C98     1.402   .     A
C85    C97     1.402   .     A
C85    I159    2.155   .     S
C86    C96     1.402   .     A
C86    I170    2.150   .     S
C87    I180    2.155   .     S
C87    C95     1.402   .     A
C88    H134    1.079   .     S
C89    C94     1.402   .     A
C89    I181    2.149   .     S
C90    I182    2.156   .     S
C90    C93     1.402   .     A
C91    I183    2.150   .     S
C91    C92     1.402   .     A
C92    I184    2.155   .     S
C93    I138    2.151   .     S
C94    I139    2.155   .     S
C95    I140    2.149   .     S
C96    I141    2.155   .     S
C97    C120    1.418   .     A
C97    I142    2.152   .     S
C98    I143    2.155   .     S
C98    C119    1.410   .     A
C99    H135    1.079   .     S
C100   I144    2.150   .     S
C100   C118    1.417   .     A
C101   I145    2.155   .     S
C101   C119    1.410   .     A
C101   C117    1.402   .     A
C102   C118    1.417   .     A
C102   C116    1.402   .     A
C102   I146    2.150   .     S
C103   I147    2.155   .     S
C103   C115    1.402   .     A
C104   I149    2.153   .     S
C104   C114    1.402   .     A
C104   C120    1.418   .     A
C105   I150    2.155   .     S
C105   C113    1.402   .     A
C106   C112    1.402   .     A
C106   I151    2.150   .     S
C107   I152    2.155   .     S
C107   C111    1.402   .     A
C108   C109    1.402   .     A
C108   I153    2.151   .     S
C109   I154    2.155   .     S
C110   H136    1.079   .     S
C110   C304    1.409   .     S
C111   I155    2.150   .     S
C112   I156    2.155   .     S
C113   I157    2.149   .     S
C114   I158    2.155   .     S
C115   I160    2.150   .     S
C116   I161    2.155   .     S
C117   I162    2.149   .     S
O185   Zn748   1.952   1_545 S
O185   Zn237   1.952   .     S
O185   Zn240   1.952   .     S
O185   Zn248   1.952   .     S
O186   C562    1.282   .     A
O186   Zn239   1.940   .     S
O187   Zn242   1.940   .     S
O187   C311    1.282   .     S
O188   Zn241   1.940   .     S
O189   Zn251   1.940   .     S
O190   Zn250   1.940   .     S
O191   Zn245   1.940   .     S
O192   Zn237   1.940   .     S
O193   Zn247   1.940   .     S
O194   Zn246   1.940   .     S
O195   Zn249   1.940   .     S
O196   Zn743   1.952   1_545 S
O196   Zn243   1.952   .     S
O196   Zn245   1.952   .     S
O196   Zn249   1.952   .     S
O197   Zn248   1.940   .     S
O198   Zn240   1.947   .     S
O199   Zn239   1.947   .     S
O200   Zn242   1.946   .     S
O201   Zn241   1.946   .     S
O202   Zn244   1.947   .     S
O203   Zn243   1.947   .     S
O204   Zn238   1.946   .     S
O205   Zn252   1.946   .     S
O206   Zn239   1.946   .     S
O207   Zn238   1.952   .     S
O207   Zn246   1.952   .     S
O207   Zn250   1.952   .     S
O207   Zn494   1.952   1_455 S
O208   Zn240   1.946   .     S
O209   Zn252   1.947   .     S
O210   Zn238   1.947   .     S
O211   Zn243   1.946   .     S
O212   Zn244   1.946   .     S
O213   Zn241   1.947   .     S
O214   Zn242   1.947   .     S
O215   Zn499   1.947   .     S
O216   Zn246   1.947   .     S
O217   Zn753   1.946   .     S
O218   Zn251   1.952   .     S
O218   Zn241   1.952   .     S
O218   Zn247   1.952   .     S
O218   Zn504   1.952   1_455 S
O219   Zn248   1.946   .     S
O220   Zn251   1.947   .     S
O221   Zn502   1.947   .     S
O222   Zn245   1.946   .     S
O223   Zn741   1.946   .     S
O224   Zn498   1.946   .     S
O225   Zn247   1.946   .     S
O226   Zn237   1.947   .     S
O227   Zn749   1.947   .     S
O228   Zn250   1.946   .     S
O229   Zn244   1.940   .     S
O229   C561    1.282   .     S
O230   Zn503   1.946   .     S
O231   Zn752   1.947   .     S
O232   Zn249   1.947   .     S
O233   Zn243   1.940   .     S
O234   Zn238   1.940   .     S
O235   C312    1.282   .     A
O235   Zn252   1.940   .     S
O236   Zn240   1.940   .     S
Zn237  O727    1.946   1_545 S
Zn239  O700    1.952   .     S
Zn242  O459    1.952   .     S
Zn244  O689    1.952   .     S
Zn245  O731    1.947   1_545 S
Zn246  O476    1.946   1_455 S
Zn247  O467    1.947   1_455 S
Zn248  O735    1.947   1_545 S
Zn249  O721    1.946   1_545 S
Zn250  O473    1.947   1_455 S
Zn251  O482    1.946   1_455 S
Zn252  O470    1.952   .     S
C253   C282    1.390   .     A
C253   H373    1.079   .     S
C253   C804    1.409   1_545 S
C254   H374    1.079   .     S
C254   C305    1.409   .     A
C254   C292    1.390   .     A
C255   C348    1.410   .     A
C255   C355    1.410   .     A
C255   C319    1.460   .     S
C256   C320    1.468   .     S
C256   C358    1.417   .     A
C256   C347    1.417   .     A
C257   C346    1.410   .     A
C257   C321    1.459   .     S
C257   C357    1.410   .     A
C258   C345    1.417   .     A
C258   C322    1.469   .     S
C258   C360    1.417   .     A
C259   C359    1.410   .     A
C259   C323    1.460   .     S
C259   C344    1.410   .     A
C260   C333    1.468   .     S
C260   C343    1.417   .     A
C260   C363    1.417   .     A
C261   C334    1.460   .     S
C261   C361    1.410   .     A
C261   C342    1.410   .     A
C262   C341    1.417   .     A
C262   C365    1.417   .     A
C262   C326    1.468   .     S
C263   C339    1.410   .     A
C263   C364    1.410   .     A
C263   C327    1.459   .     S
C264   C367    1.417   .     A
C264   C328    1.468   .     S
C264   C338    1.417   .     A
C265   C293    1.390   .     A
C265   H375    1.079   .     S
C265   C810    1.409   .     S
C266   C330    1.460   .     S
C266   C366    1.411   .     A
C266   C337    1.411   .     A
C267   C369    1.416   .     A
C267   C336    1.416   .     A
C267   C331    1.468   .     S
C268   C368    1.410   .     A
C268   C332    1.459   .     S
C268   C335    1.410   .     A
C269   C316    1.451   .     S
C269   C791    1.402   1_545 A
C269   C282    1.402   .     S
C270   C792    1.402   1_545 A
C270   C283    1.402   .     S
C270   C315    1.451   .     S
C271   C314    1.451   .     S
C271   C289    1.402   .     A
C272   C313    1.451   .     S
C272   C290    1.402   .     S
C273   C312    1.451   .     S
C273   C295    1.402   .     S
C274   C311    1.451   .     S
C274   C292    1.402   .     A
C275   C814    1.451   .     S
C275   C293    1.402   .     A
C275   C802    1.402   .     S
C276   C294    1.390   .     A
C276   H376    1.079   .     S
C276   C308    1.409   .     S
C277   C309    1.451   .     S
C277   C294    1.402   .     A
C277   C803    1.402   1_545 S
C278   C295    1.390   .     A
C278   C304    1.409   .     A
C278   H377    1.079   .     S
C279   H378    1.079   .     S
C279   C297    1.390   .     A
C279   C53     1.409   1_655 S
C280   H379    1.079   .     S
C280   C306    1.409   .     A
C280   C298    1.390   .     A
C281   C299    1.390   .     A
C281   C812    1.409   .     A
C281   H380    1.079   .     S
C282   I415    2.119   .     S
C283   C285    1.390   .     A
C283   I416    2.119   .     S
C284   C296    1.390   .     A
C284   I417    2.118   .     S
C284   C19     1.402   1_655 S
C285   H381    1.079   .     S
C285   C805    1.409   1_545 S
C286   C20     1.402   1_655 A
C286   C307    1.390   .     A
C286   I418    2.118   .     S
C287   C318    1.390   .     A
C287   I419    2.119   .     S
C287   C773    1.402   .     A
C288   I420    2.118   .     S
C288   C774    1.402   .     A
C288   C329    1.390   .     A
C289   C340    1.390   .     A
C289   I421    2.118   .     S
C290   I423    2.118   .     S
C290   C351    1.390   .     A
C291   I424    2.119   .     S
C291   C362    1.390   .     A
C291   C21     1.402   1_655 A
C292   I425    2.119   .     S
C293   I426    2.118   .     S
C294   I427    2.119   .     S
C295   I428    2.119   .     S
C296   C50     1.409   1_655 A
C296   H382    1.079   .     S
C297   I429    2.119   .     S
C297   C22     1.402   1_655 S
C298   I430    2.118   .     S
C298   C779    1.402   1_545 S
C299   I431    2.119   .     S
C299   C781    1.402   .     S
C300   C318    1.409   .     A
C300   C757    1.409   .     S
C300   C301    1.491   1_554 S
C301   C329    1.409   .     A
C301   C300    1.491   1_556 S
C301   C789    1.409   .     S
C302   C303    1.491   1_554 S
C302   C340    1.409   .     S
C303   C302    1.491   1_556 S
C303   C351    1.409   .     S
C304   C305    1.491   .     S
C306   C769    1.409   1_545 S
C306   C308    1.491   .     S
C307   C51     1.409   1_655 A
C307   H383    1.079   .     S
C308   C785    1.409   1_545 A
C309   O488    1.282   .     A
C309   O985    1.282   1_545 S
C310   C779    1.451   1_545 S
C310   O942    1.282   1_545 A
C310   O485    1.282   .     S
C311   O486    1.282   .     A
C312   O440    1.282   .     S
C313   O441    1.282   .     S
C313   O445    1.282   .     S
C314   O442    1.282   .     A
C314   O446    1.282   .     A
C315   O447    1.282   .     A
C315   O443    1.282   .     A
C316   O444    1.282   .     S
C316   O449    1.282   .     S
C317   O450    1.284   .     A
C317   C372    1.469   .     S
C317   O478    1.284   .     A
C318   H384    1.079   .     S
C319   O451    1.282   .     A
C319   O479    1.282   .     A
C320   O452    1.284   .     A
C320   O476    1.284   .     A
C321   O453    1.282   .     A
C321   O477    1.282   .     A
C322   O483    1.284   .     A
C322   O454    1.284   .     A
C323   O484    1.282   .     A
C323   O455    1.282   .     A
C324   O456    1.284   .     A
C324   C370    1.468   .     S
C324   O480    1.284   .     A
C325   C371    1.459   .     S
C325   O482    1.282   .     A
C325   O457    1.282   .     A
C326   O458    1.284   .     A
C326   O469    1.284   .     A
C327   O471    1.282   .     A
C327   O460    1.282   .     A
C328   O461    1.284   .     A
C328   O467    1.284   .     A
C329   H385    1.079   .     S
C330   O462    1.282   .     A
C330   O468    1.282   .     A
C331   O463    1.284   .     A
C331   O474    1.284   .     A
C332   O464    1.282   .     A
C332   O475    1.282   .     A
C333   O465    1.284   .     A
C333   O472    1.284   .     A
C334   O473    1.282   .     A
C334   O466    1.282   .     A
C335   C352    1.402   .     A
C335   I389    2.155   .     S
C336   I400    2.149   .     S
C336   C350    1.402   .     A
C337   C349    1.402   .     A
C337   I411    2.155   .     S
C338   C348    1.402   .     A
C338   I422    2.150   .     S
C339   I432    2.155   .     S
C339   C347    1.402   .     A
C340   H386    1.079   .     S
C341   C346    1.402   .     A
C341   I433    2.149   .     S
C342   I434    2.156   .     S
C342   C345    1.402   .     A
C343   I435    2.150   .     S
C343   C344    1.402   .     A
C344   I436    2.155   .     S
C345   I390    2.151   .     S
C346   I391    2.155   .     S
C347   I392    2.149   .     S
C348   I393    2.155   .     S
C349   C372    1.418   .     A
C349   I394    2.152   .     S
C350   I395    2.155   .     S
C350   C371    1.410   .     A
C351   H387    1.079   .     S
C352   I396    2.150   .     S
C352   C370    1.417   .     A
C353   I397    2.155   .     S
C353   C371    1.410   .     A
C353   C369    1.402   .     A
C354   C370    1.417   .     A
C354   C368    1.402   .     A
C354   I398    2.150   .     S
C355   I399    2.155   .     S
C355   C367    1.402   .     A
C356   I401    2.153   .     S
C356   C366    1.402   .     A
C356   C372    1.418   .     A
C357   I402    2.155   .     S
C357   C365    1.402   .     A
C358   C364    1.402   .     A
C358   I403    2.150   .     S
C359   I404    2.155   .     S
C359   C363    1.402   .     A
C360   C361    1.402   .     A
C360   I405    2.151   .     S
C361   I406    2.155   .     S
C362   H388    1.079   .     S
C362   C52     1.409   1_655 S
C363   I407    2.150   .     S
C364   I408    2.155   .     S
C365   I409    2.149   .     S
C366   I410    2.155   .     S
C367   I412    2.150   .     S
C368   I413    2.155   .     S
C369   I414    2.149   .     S
O437   Zn1000  1.952   1_545 S
O437   Zn489   1.952   .     S
O437   Zn492   1.952   .     S
O437   Zn500   1.952   .     S
O438   C814    1.282   .     A
O438   Zn491   1.940   .     S
O439   Zn494   1.940   .     S
O439   C59     1.282   1_655 S
O440   Zn493   1.940   .     S
O441   Zn503   1.940   .     S
O442   Zn502   1.940   .     S
O443   Zn497   1.940   .     S
O444   Zn489   1.940   .     S
O445   Zn499   1.940   .     S
O446   Zn498   1.940   .     S
O447   Zn501   1.940   .     S
O448   Zn995   1.952   1_545 S
O448   Zn495   1.952   .     S
O448   Zn497   1.952   .     S
O448   Zn501   1.952   .     S
O449   Zn500   1.940   .     S
O450   Zn492   1.947   .     S
O451   Zn491   1.947   .     S
O452   Zn494   1.946   .     S
O453   Zn493   1.946   .     S
O454   Zn496   1.947   .     S
O455   Zn495   1.947   .     S
O456   Zn490   1.946   .     S
O457   Zn504   1.946   .     S
O458   Zn491   1.946   .     S
O459   Zn490   1.952   .     S
O459   Zn498   1.952   .     S
O459   Zn502   1.952   .     S
O460   Zn492   1.946   .     S
O461   Zn504   1.947   .     S
O462   Zn490   1.947   .     S
O463   Zn495   1.946   .     S
O464   Zn496   1.946   .     S
O465   Zn493   1.947   .     S
O466   Zn494   1.947   .     S
O467   Zn247   1.947   1_655 S
O468   Zn498   1.947   .     S
O469   Zn1005  1.946   .     S
O470   Zn503   1.952   .     S
O470   Zn493   1.952   .     S
O470   Zn499   1.952   .     S
O471   Zn500   1.946   .     S
O472   Zn503   1.947   .     S
O473   Zn250   1.947   1_655 S
O474   Zn497   1.946   .     S
O475   Zn993   1.946   .     S
O476   Zn246   1.946   1_655 S
O477   Zn499   1.946   .     S
O478   Zn489   1.947   .     S
O479   Zn1001  1.947   .     S
O480   Zn502   1.946   .     S
O481   Zn496   1.940   .     S
O481   C813    1.282   .     S
O482   Zn251   1.946   1_655 S
O483   Zn1004  1.947   .     S
O484   Zn501   1.947   .     S
O485   Zn495   1.940   .     S
O486   Zn490   1.940   .     S
O487   C60     1.282   1_655 A
O487   Zn504   1.940   .     S
O488   Zn492   1.940   .     S
Zn489  O979    1.946   1_545 S
Zn491  O952    1.952   .     S
Zn494  O207    1.952   1_655 S
Zn496  O941    1.952   .     S
Zn497  O983    1.947   1_545 S
Zn500  O987    1.947   1_545 S
Zn501  O973    1.946   1_545 S
Zn504  O218    1.952   1_655 S
C505   C534    1.390   .     A
C505   H625    1.079   .     S
C506   H626    1.079   .     S
C506   C557    1.409   .     A
C506   C544    1.390   .     A
C507   C600    1.410   .     A
C507   C607    1.410   .     A
C507   C571    1.460   .     S
C508   C572    1.468   .     S
C508   C610    1.417   .     A
C508   C599    1.417   .     A
C509   C598    1.410   .     A
C509   C573    1.459   .     S
C509   C609    1.410   .     A
C510   C597    1.417   .     A
C510   C574    1.469   .     S
C510   C612    1.417   .     A
C511   C611    1.410   .     A
C511   C575    1.460   .     S
C511   C596    1.410   .     A
C512   C585    1.468   .     S
C512   C595    1.417   .     A
C512   C615    1.417   .     A
C513   C586    1.460   .     S
C513   C613    1.410   .     A
C513   C594    1.410   .     A
C514   C593    1.417   .     A
C514   C617    1.417   .     A
C514   C578    1.468   .     S
C515   C591    1.410   .     A
C515   C616    1.410   .     A
C515   C579    1.459   .     S
C516   C619    1.417   .     A
C516   C580    1.468   .     S
C516   C590    1.417   .     A
C517   C545    1.390   .     A
C517   H627    1.079   .     S
C517   C54     1.409   1_565 S
C518   C582    1.460   .     S
C518   C618    1.411   .     A
C518   C589    1.411   .     A
C519   C621    1.416   .     A
C519   C588    1.416   .     A
C519   C583    1.468   .     S
C520   C620    1.410   .     A
C520   C584    1.459   .     S
C520   C587    1.410   .     A
C521   C568    1.451   .     S
C521   C534    1.402   .     S
C522   C535    1.402   .     S
C522   C567    1.451   .     S
C523   C566    1.451   .     S
C523   C541    1.402   .     A
C523   C788    1.402   1_455 S
C524   C790    1.402   1_455 A
C524   C565    1.451   .     S
C524   C542    1.402   .     S
C525   C564    1.451   .     S
C525   C795    1.402   1_455 A
C525   C547    1.402   .     S
C526   C563    1.451   .     S
C526   C544    1.402   .     A
C526   C801    1.402   1_455 S
C527   C58     1.451   1_565 S
C527   C545    1.402   .     A
C527   C46     1.402   1_565 S
C528   C546    1.390   .     A
C528   H628    1.079   .     S
C528   C560    1.409   .     S
C529   C561    1.451   .     S
C529   C546    1.402   .     A
C530   C547    1.390   .     A
C530   C556    1.409   .     A
C530   H629    1.079   .     S
C531   H630    1.079   .     S
C531   C549    1.390   .     A
C531   C809    1.409   .     S
C532   H631    1.079   .     S
C532   C558    1.409   .     A
C532   C550    1.390   .     A
C533   C551    1.390   .     A
C533   C56     1.409   1_565 A
C533   H632    1.079   .     S
C534   I667    2.119   .     S
C535   C537    1.390   .     A
C535   I668    2.119   .     S
C536   C548    1.390   .     A
C536   I669    2.118   .     S
C536   C775    1.402   .     S
C537   H633    1.079   .     S
C538   C776    1.402   .     A
C538   C559    1.390   .     A
C538   I670    2.118   .     S
C539   C570    1.390   .     A
C539   I671    2.119   .     S
C539   C17     1.402   1_565 A
C540   I672    2.118   .     S
C540   C18     1.402   1_565 A
C540   C581    1.390   .     A
C541   C592    1.390   .     A
C541   I673    2.118   .     S
C542   I675    2.118   .     S
C542   C603    1.390   .     A
C543   I676    2.119   .     S
C543   C614    1.390   .     A
C543   C777    1.402   .     A
C544   I677    2.119   .     S
C545   I678    2.118   .     S
C546   I679    2.119   .     S
C547   I680    2.119   .     S
C548   C806    1.409   .     A
C548   H634    1.079   .     S
C549   I681    2.119   .     S
C549   C778    1.402   .     S
C550   I682    2.118   .     S
C551   I683    2.119   .     S
C551   C25     1.402   1_565 S
C552   C570    1.409   .     A
C552   C1      1.409   1_565 S
C552   C553    1.491   1_554 S
C553   C581    1.409   .     A
C553   C552    1.491   1_556 S
C553   C33     1.409   1_565 S
C554   C800    1.409   1_455 A
C554   C555    1.491   1_554 S
C554   C592    1.409   .     S
C555   C811    1.409   1_455 A
C555   C554    1.491   1_556 S
C555   C603    1.409   .     S
C556   C557    1.491   .     S
C556   C866    1.409   1_455 S
C557   C783    1.409   1_455 S
C558   C560    1.491   .     S
C559   C807    1.409   .     A
C559   H635    1.079   .     S
C561   O740    1.282   .     A
C562   O737    1.282   .     S
C563   O738    1.282   .     A
C563   O943    1.282   1_455 S
C564   O991    1.282   1_455 A
C564   O692    1.282   .     S
C565   O693    1.282   .     S
C565   O697    1.282   .     S
C566   O694    1.282   .     A
C566   O698    1.282   .     A
C567   O699    1.282   .     A
C567   O695    1.282   .     A
C568   O696    1.282   .     S
C568   O701    1.282   .     S
C569   O702    1.284   .     A
C569   C624    1.469   .     S
C569   O730    1.284   .     A
C570   H636    1.079   .     S
C571   O703    1.282   .     A
C571   O731    1.282   .     A
C572   O704    1.284   .     A
C572   O728    1.284   .     A
C573   O705    1.282   .     A
C573   O729    1.282   .     A
C574   O735    1.284   .     A
C574   O706    1.284   .     A
C575   O736    1.282   .     A
C575   O707    1.282   .     A
C576   O708    1.284   .     A
C576   C622    1.468   .     S
C576   O732    1.284   .     A
C577   C623    1.459   .     S
C577   O734    1.282   .     A
C577   O709    1.282   .     A
C578   O710    1.284   .     A
C578   O721    1.284   .     A
C579   O723    1.282   .     A
C579   O712    1.282   .     A
C580   O713    1.284   .     A
C580   O719    1.284   .     A
C581   H637    1.079   .     S
C582   O714    1.282   .     A
C582   O720    1.282   .     A
C583   O715    1.284   .     A
C583   O726    1.284   .     A
C584   O716    1.282   .     A
C584   O727    1.282   .     A
C585   O717    1.284   .     A
C585   O724    1.284   .     A
C586   O725    1.282   .     A
C586   O718    1.282   .     A
C587   C604    1.402   .     A
C587   I641    2.155   .     S
C588   I652    2.149   .     S
C588   C602    1.402   .     A
C589   C601    1.402   .     A
C589   I663    2.155   .     S
C590   C600    1.402   .     A
C590   I674    2.150   .     S
C591   I684    2.155   .     S
C591   C599    1.402   .     A
C592   H638    1.079   .     S
C593   C598    1.402   .     A
C593   I685    2.149   .     S
C594   I686    2.156   .     S
C594   C597    1.402   .     A
C595   I687    2.150   .     S
C595   C596    1.402   .     A
C596   I688    2.155   .     S
C597   I642    2.151   .     S
C598   I643    2.155   .     S
C599   I644    2.149   .     S
C600   I645    2.155   .     S
C601   C624    1.418   .     A
C601   I646    2.152   .     S
C602   I647    2.155   .     S
C602   C623    1.410   .     A
C603   H639    1.079   .     S
C604   I648    2.150   .     S
C604   C622    1.417   .     A
C605   I649    2.155   .     S
C605   C623    1.410   .     A
C605   C621    1.402   .     A
C606   C622    1.417   .     A
C606   C620    1.402   .     A
C606   I650    2.150   .     S
C607   I651    2.155   .     S
C607   C619    1.402   .     A
C608   I653    2.153   .     S
C608   C618    1.402   .     A
C608   C624    1.418   .     A
C609   I654    2.155   .     S
C609   C617    1.402   .     A
C610   C616    1.402   .     A
C610   I655    2.150   .     S
C611   I656    2.155   .     S
C611   C615    1.402   .     A
C612   C613    1.402   .     A
C612   I657    2.151   .     S
C613   I658    2.155   .     S
C614   H640    1.079   .     S
C614   C808    1.409   .     S
C615   I659    2.150   .     S
C616   I660    2.155   .     S
C617   I661    2.149   .     S
C618   I662    2.155   .     S
C619   I664    2.150   .     S
C620   I665    2.155   .     S
C621   I666    2.149   .     S
O689   Zn741   1.952   .     S
O689   Zn744   1.952   .     S
O689   Zn752   1.952   .     S
O690   C58     1.282   1_565 A
O690   Zn743   1.940   .     S
O691   Zn746   1.940   .     S
O691   C815    1.282   .     S
O692   Zn745   1.940   .     S
O693   Zn755   1.940   .     S
O694   Zn754   1.940   .     S
O695   Zn749   1.940   .     S
O696   Zn741   1.940   .     S
O697   Zn751   1.940   .     S
O698   Zn750   1.940   .     S
O699   Zn753   1.940   .     S
O700   Zn747   1.952   .     S
O700   Zn749   1.952   .     S
O700   Zn753   1.952   .     S
O701   Zn752   1.940   .     S
O702   Zn744   1.947   .     S
O703   Zn743   1.947   .     S
O704   Zn746   1.946   .     S
O705   Zn745   1.946   .     S
O706   Zn748   1.947   .     S
O707   Zn747   1.947   .     S
O708   Zn742   1.946   .     S
O709   Zn756   1.946   .     S
O710   Zn743   1.946   .     S
O711   Zn742   1.952   .     S
O711   Zn750   1.952   .     S
O711   Zn754   1.952   .     S
O711   Zn998   1.952   1_455 S
O712   Zn744   1.946   .     S
O713   Zn756   1.947   .     S
O714   Zn742   1.947   .     S
O715   Zn747   1.946   .     S
O716   Zn748   1.946   .     S
O717   Zn745   1.947   .     S
O718   Zn746   1.947   .     S
O719   Zn1003  1.947   .     S
O720   Zn750   1.947   .     S
O721   Zn249   1.946   1_565 S
O722   Zn755   1.952   .     S
O722   Zn745   1.952   .     S
O722   Zn751   1.952   .     S
O722   Zn1008  1.952   1_455 S
O723   Zn752   1.946   .     S
O724   Zn755   1.947   .     S
O725   Zn1006  1.947   .     S
O726   Zn749   1.946   .     S
O727   Zn237   1.946   1_565 S
O728   Zn1002  1.946   .     S
O729   Zn751   1.946   .     S
O730   Zn741   1.947   .     S
O731   Zn245   1.947   1_565 S
O732   Zn754   1.946   .     S
O733   Zn748   1.940   .     S
O733   C57     1.282   1_565 S
O734   Zn1007  1.946   .     S
O735   Zn248   1.947   1_565 S
O736   Zn753   1.947   .     S
O737   Zn747   1.940   .     S
O738   Zn742   1.940   .     S
O739   C816    1.282   .     A
O739   Zn756   1.940   .     S
O740   Zn744   1.940   .     S
Zn743  O196    1.952   1_565 S
Zn746  O963    1.952   .     S
Zn748  O185    1.952   1_565 S
Zn750  O980    1.946   1_455 S
Zn751  O971    1.947   1_455 S
Zn754  O977    1.947   1_455 S
Zn755  O986    1.946   1_455 S
Zn756  O974    1.952   .     S
C757   C786    1.390   .     A
C757   H877    1.079   .     S
C758   H878    1.079   .     S
C758   C809    1.409   .     A
C758   C796    1.390   .     A
C759   C852    1.410   .     A
C759   C859    1.410   .     A
C759   C823    1.460   .     S
C760   C824    1.468   .     S
C760   C862    1.417   .     A
C760   C851    1.417   .     A
C761   C850    1.410   .     A
C761   C825    1.459   .     S
C761   C861    1.410   .     A
C762   C849    1.417   .     A
C762   C826    1.469   .     S
C762   C864    1.417   .     A
C763   C863    1.410   .     A
C763   C827    1.460   .     S
C763   C848    1.410   .     A
C764   C837    1.468   .     S
C764   C847    1.417   .     A
C764   C867    1.417   .     A
C765   C838    1.460   .     S
C765   C865    1.410   .     A
C765   C846    1.410   .     A
C766   C845    1.417   .     A
C766   C869    1.417   .     A
C766   C830    1.468   .     S
C767   C843    1.410   .     A
C767   C868    1.410   .     A
C767   C831    1.459   .     S
C768   C871    1.417   .     A
C768   C832    1.468   .     S
C768   C842    1.417   .     A
C769   C797    1.390   .     A
C769   H879    1.079   .     S
C769   C306    1.409   1_565 S
C770   C834    1.460   .     S
C770   C870    1.411   .     A
C770   C841    1.411   .     A
C771   C873    1.416   .     A
C771   C840    1.416   .     A
C771   C835    1.468   .     S
C772   C872    1.410   .     A
C772   C836    1.459   .     S
C772   C839    1.410   .     A
C773   C820    1.451   .     S
C773   C786    1.402   .     S
C774   C787    1.402   .     S
C774   C819    1.451   .     S
C775   C818    1.451   .     S
C775   C793    1.402   .     A
C776   C817    1.451   .     S
C776   C794    1.402   .     S
C777   C816    1.451   .     S
C777   C799    1.402   .     S
C778   C815    1.451   .     S
C778   C796    1.402   .     A
C779   C310    1.451   1_565 S
C779   C797    1.402   .     A
C779   C298    1.402   1_565 S
C780   C798    1.390   .     A
C780   H880    1.079   .     S
C780   C812    1.409   .     S
C781   C813    1.451   .     S
C781   C798    1.402   .     A
C782   C799    1.390   .     A
C782   C808    1.409   .     A
C782   H881    1.079   .     S
C783   H882    1.079   .     S
C783   C801    1.390   .     A
C783   C557    1.409   1_655 S
C784   H883    1.079   .     S
C784   C810    1.409   .     A
C784   C802    1.390   .     A
C785   C803    1.390   .     A
C785   C308    1.409   1_565 A
C785   H884    1.079   .     S
C786   I919    2.119   .     S
C787   C789    1.390   .     A
C787   I920    2.119   .     S
C788   C800    1.390   .     A
C788   I921    2.118   .     S
C788   C523    1.402   1_655 S
C789   H885    1.079   .     S
C790   C524    1.402   1_655 A
C790   C811    1.390   .     A
C790   I922    2.118   .     S
C791   C822    1.390   .     A
C791   I923    2.119   .     S
C791   C269    1.402   1_565 A
C792   I924    2.118   .     S
C792   C270    1.402   1_565 A
C792   C833    1.390   .     A
C793   C844    1.390   .     A
C793   I925    2.118   .     S
C794   I927    2.118   .     S
C794   C855    1.390   .     A
C795   I928    2.119   .     S
C795   C866    1.390   .     A
C795   C525    1.402   1_655 A
C796   I929    2.119   .     S
C797   I930    2.118   .     S
C798   I931    2.119   .     S
C799   I932    2.119   .     S
C800   C554    1.409   1_655 A
C800   H886    1.079   .     S
C801   I933    2.119   .     S
C801   C526    1.402   1_655 S
C802   I934    2.118   .     S
C803   I935    2.119   .     S
C803   C277    1.402   1_565 S
C804   C822    1.409   .     A
C804   C253    1.409   1_565 S
C804   C805    1.491   1_554 S
C805   C833    1.409   .     A
C805   C804    1.491   1_556 S
C805   C285    1.409   1_565 S
C806   C807    1.491   1_554 S
C806   C844    1.409   .     S
C807   C806    1.491   1_556 S
C807   C855    1.409   .     S
C808   C809    1.491   .     S
C810   C812    1.491   .     S
C811   C555    1.409   1_655 A
C811   H887    1.079   .     S
C813   O992    1.282   .     A
C814   O989    1.282   .     S
C815   O990    1.282   .     A
C816   O944    1.282   .     S
C817   O945    1.282   .     S
C817   O949    1.282   .     S
C818   O946    1.282   .     A
C818   O950    1.282   .     A
C819   O951    1.282   .     A
C819   O947    1.282   .     A
C820   O948    1.282   .     S
C820   O953    1.282   .     S
C821   O954    1.284   .     A
C821   C876    1.469   .     S
C821   O982    1.284   .     A
C822   H888    1.079   .     S
C823   O955    1.282   .     A
C823   O983    1.282   .     A
C824   O956    1.284   .     A
C824   O980    1.284   .     A
C825   O957    1.282   .     A
C825   O981    1.282   .     A
C826   O987    1.284   .     A
C826   O958    1.284   .     A
C827   O988    1.282   .     A
C827   O959    1.282   .     A
C828   O960    1.284   .     A
C828   C874    1.468   .     S
C828   O984    1.284   .     A
C829   C875    1.459   .     S
C829   O986    1.282   .     A
C829   O961    1.282   .     A
C830   O962    1.284   .     A
C830   O973    1.284   .     A
C831   O975    1.282   .     A
C831   O964    1.282   .     A
C832   O965    1.284   .     A
C832   O971    1.284   .     A
C833   H889    1.079   .     S
C834   O966    1.282   .     A
C834   O972    1.282   .     A
C835   O967    1.284   .     A
C835   O978    1.284   .     A
C836   O968    1.282   .     A
C836   O979    1.282   .     A
C837   O969    1.284   .     A
C837   O976    1.284   .     A
C838   O977    1.282   .     A
C838   O970    1.282   .     A
C839   C856    1.402   .     A
C839   I893    2.155   .     S
C840   I904    2.149   .     S
C840   C854    1.402   .     A
C841   C853    1.402   .     A
C841   I915    2.155   .     S
C842   C852    1.402   .     A
C842   I926    2.150   .     S
C843   I936    2.155   .     S
C843   C851    1.402   .     A
C844   H890    1.079   .     S
C845   C850    1.402   .     A
C845   I937    2.149   .     S
C846   I938    2.156   .     S
C846   C849    1.402   .     A
C847   I939    2.150   .     S
C847   C848    1.402   .     A
C848   I940    2.155   .     S
C849   I894    2.151   .     S
C850   I895    2.155   .     S
C851   I896    2.149   .     S
C852   I897    2.155   .     S
C853   C876    1.418   .     A
C853   I898    2.152   .     S
C854   I899    2.155   .     S
C854   C875    1.410   .     A
C855   H891    1.079   .     S
C856   I900    2.150   .     S
C856   C874    1.417   .     A
C857   I901    2.155   .     S
C857   C875    1.410   .     A
C857   C873    1.402   .     A
C858   C874    1.417   .     A
C858   C872    1.402   .     A
C858   I902    2.150   .     S
C859   I903    2.155   .     S
C859   C871    1.402   .     A
C860   I905    2.153   .     S
C860   C870    1.402   .     A
C860   C876    1.418   .     A
C861   I906    2.155   .     S
C861   C869    1.402   .     A
C862   C868    1.402   .     A
C862   I907    2.150   .     S
C863   I908    2.155   .     S
C863   C867    1.402   .     A
C864   C865    1.402   .     A
C864   I909    2.151   .     S
C865   I910    2.155   .     S
C866   H892    1.079   .     S
C866   C556    1.409   1_655 S
C867   I911    2.150   .     S
C868   I912    2.155   .     S
C869   I913    2.149   .     S
C870   I914    2.155   .     S
C871   I916    2.150   .     S
C872   I917    2.155   .     S
C873   I918    2.149   .     S
O941   Zn993   1.952   .     S
O941   Zn996   1.952   .     S
O941   Zn1004  1.952   .     S
O942   C310    1.282   1_565 A
O942   Zn995   1.940   .     S
O943   Zn998   1.940   .     S
O943   C563    1.282   1_655 S
O944   Zn997   1.940   .     S
O945   Zn1007  1.940   .     S
O946   Zn1006  1.940   .     S
O947   Zn1001  1.940   .     S
O948   Zn993   1.940   .     S
O949   Zn1003  1.940   .     S
O950   Zn1002  1.940   .     S
O951   Zn1005  1.940   .     S
O952   Zn999   1.952   .     S
O952   Zn1001  1.952   .     S
O952   Zn1005  1.952   .     S
O953   Zn1004  1.940   .     S
O954   Zn996   1.947   .     S
O955   Zn995   1.947   .     S
O956   Zn998   1.946   .     S
O957   Zn997   1.946   .     S
O958   Zn1000  1.947   .     S
O959   Zn999   1.947   .     S
O960   Zn994   1.946   .     S
O961   Zn1008  1.946   .     S
O962   Zn995   1.946   .     S
O963   Zn994   1.952   .     S
O963   Zn1002  1.952   .     S
O963   Zn1006  1.952   .     S
O964   Zn996   1.946   .     S
O965   Zn1008  1.947   .     S
O966   Zn994   1.947   .     S
O967   Zn999   1.946   .     S
O968   Zn1000  1.946   .     S
O969   Zn997   1.947   .     S
O970   Zn998   1.947   .     S
O971   Zn751   1.947   1_655 S
O972   Zn1002  1.947   .     S
O973   Zn501   1.946   1_565 S
O974   Zn1007  1.952   .     S
O974   Zn997   1.952   .     S
O974   Zn1003  1.952   .     S
O975   Zn1004  1.946   .     S
O976   Zn1007  1.947   .     S
O977   Zn754   1.947   1_655 S
O978   Zn1001  1.946   .     S
O979   Zn489   1.946   1_565 S
O980   Zn750   1.946   1_655 S
O981   Zn1003  1.946   .     S
O982   Zn993   1.947   .     S
O983   Zn497   1.947   1_565 S
O984   Zn1006  1.946   .     S
O985   Zn1000  1.940   .     S
O985   C309    1.282   1_565 S
O986   Zn755   1.946   1_655 S
O987   Zn500   1.947   1_565 S
O988   Zn1005  1.947   .     S
O989   Zn999   1.940   .     S
O990   Zn994   1.940   .     S
O991   C564    1.282   1_655 A
O991   Zn1008  1.940   .     S
O992   Zn996   1.940   .     S
Zn995  O448    1.952   1_565 S
Zn998  O711    1.952   1_655 S
Zn1000 O437    1.952   1_565 S
Zn1008 O722    1.952   1_655 S
