data_str_m2_o10_o16_pcu_sym.176
_audit_creation_date              2020-01-03
_audit_creation_method            'Materials Studio'
_symmetry_space_group_name_H-M    'P1'
_symmetry_Int_Tables_number       1
_symmetry_cell_setting            triclinic
loop_
_symmetry_equiv_pos_as_xyz
  x,y,z
_cell_length_a                    22.4599
_cell_length_b                    26.0951
_cell_length_c                    26.9247
_cell_angle_alpha                 94.8572
_cell_angle_beta                  78.5590
_cell_angle_gamma                 103.0352
loop_
_atom_site_label
_atom_site_type_symbol
_atom_site_fract_x
_atom_site_fract_y
_atom_site_fract_z
_atom_site_U_iso_or_equiv
_atom_site_adp_type
_atom_site_occupancy
C1     C     0.18102   0.26652   0.25342   0.00000  Uiso   1.00
C2     C     0.14403   0.15142   0.48375   0.00000  Uiso   1.00
C3     C     0.15715   0.17331   0.43554   0.00000  Uiso   1.00
C4     C     0.18852   0.16589   0.01584   0.00000  Uiso   1.00
C5     C     0.24971   0.19290   0.49624   0.00000  Uiso   1.00
C6     C     0.26120   0.21623   0.44952   0.00000  Uiso   1.00
C7     C     0.21366   0.20997   0.42186   0.00000  Uiso   1.00
C8     C     0.17292   0.15712   0.06768   0.00000  Uiso   1.00
C9     C     0.28161   0.17750   0.07382   0.00000  Uiso   1.00
C10    C     0.11443   0.15667   0.40180   0.00000  Uiso   1.00
C11    C     0.18698   0.32222   0.26083   0.00000  Uiso   1.00
C12    C     0.13374   0.16457   0.34696   0.00000  Uiso   1.00
C13    C     0.14565   0.01096   0.24560   0.00000  Uiso   1.00
C14    C     0.15190   0.06674   0.24838   0.00000  Uiso   1.00
C15    C     0.19951   0.16723   0.15311   0.00000  Uiso   1.00
C16    C     0.29721   0.19712   0.02469   0.00000  Uiso   1.00
C17    C     0.21861   0.16675   0.09765   0.00000  Uiso   1.00
C18    C     0.05738   0.12228   0.41838   0.00000  Uiso   1.00
C19    C     0.04524   0.10012   0.46540   0.00000  Uiso   1.00
C20    C     0.08893   0.11312   0.49706   0.00000  Uiso   1.00
Cu21   Cu    0.10710   0.16105   0.24436   0.00000  Uiso   1.00
Cu22   Cu    0.22623   0.17228   0.25564   0.00000  Uiso   1.00
H23    H     0.33100   0.12971   0.20801   0.00000  Uiso   1.00
H24    H     0.12486   0.14546   0.08544   0.00000  Uiso   1.00
H25    H     0.08065   0.09101   0.03073   0.00000  Uiso   1.00
H26    H     0.00297   0.07085   0.47633   0.00000  Uiso   1.00
H27    H     0.22184   0.23332   0.38927   0.00000  Uiso   1.00
N28    N     0.31574   0.18074   0.26416   0.00000  Uiso   1.00
N29    N     0.01759   0.15259   0.23584   0.00000  Uiso   1.00
O30    O     0.12797   0.23807   0.24633   0.00000  Uiso   1.00
O31    O     0.22858   0.24755   0.25587   0.00000  Uiso   1.00
O32    O     0.09181   0.15960   0.31840   0.00000  Uiso   1.00
O33    O     0.19242   0.16908   0.32793   0.00000  Uiso   1.00
O34    O     0.10476   0.08578   0.24414   0.00000  Uiso   1.00
O35    O     0.20536   0.09526   0.25367   0.00000  Uiso   1.00
O36    O     0.14092   0.16425   0.17207   0.00000  Uiso   1.00
O37    O     0.24152   0.17373   0.18160   0.00000  Uiso   1.00
O38    O     0.32781   0.16912   0.09747   0.00000  Uiso   1.00
C39    C     0.31835   0.11432   0.10415   0.00000  Uiso   1.00
H40    H     0.27777   0.09989   0.13410   0.00000  Uiso   1.00
H41    H     0.02596   0.10614   0.11650   0.00000  Uiso   1.00
H42    H     0.31157   0.09059   0.06865   0.00000  Uiso   1.00
H43    H     0.10751   0.32095   0.22894   0.00000  Uiso   1.00
O44    O     0.00625   0.20626   0.30371   0.00000  Uiso   1.00
C45    C     0.00196   0.25914   0.30391   0.00000  Uiso   1.00
H46    H     0.28915   0.26451   0.32373   0.00000  Uiso   1.00
H47    H     0.01193   0.27424   0.26505   0.00000  Uiso   1.00
H48    H     0.03677   0.28342   0.32511   0.00000  Uiso   1.00
H49    H     0.30596   0.24109   0.43526   0.00000  Uiso   1.00
O50    O     0.02541   0.21499   0.00248   0.00000  Uiso   1.00
C51    C     0.04709   0.26556   0.02334   0.00000  Uiso   1.00
H52    H     0.04870   0.26428   0.06422   0.00000  Uiso   1.00
H53    H     0.01832   0.29353   0.01786   0.00000  Uiso   1.00
H54    H     0.09526   0.28086   0.00330   0.00000  Uiso   1.00
H55    H     0.02426   0.10890   0.39329   0.00000  Uiso   1.00
O56    O     0.23641   0.01784   0.28200   0.00000  Uiso   1.00
C57    C     0.21752   0.01988   0.33521   0.00000  Uiso   1.00
H58    H     0.25769   0.04114   0.35236   0.00000  Uiso   1.00
H59    H     0.20247   0.31312   0.35061   0.00000  Uiso   1.00
H60    H     0.17960   0.04193   0.34686   0.00000  Uiso   1.00
C61    C     0.51435   0.26652   0.25342   0.00000  Uiso   1.00
C62    C     0.47736   0.15142   0.48375   0.00000  Uiso   1.00
C63    C     0.49048   0.17331   0.43554   0.00000  Uiso   1.00
C64    C     0.52186   0.16589   0.01584   0.00000  Uiso   1.00
C65    C     0.58304   0.19290   0.49624   0.00000  Uiso   1.00
C66    C     0.59453   0.21623   0.44952   0.00000  Uiso   1.00
C67    C     0.54699   0.20997   0.42186   0.00000  Uiso   1.00
C68    C     0.50625   0.15712   0.06768   0.00000  Uiso   1.00
C69    C     0.61494   0.17750   0.07382   0.00000  Uiso   1.00
C70    C     0.44776   0.15667   0.40180   0.00000  Uiso   1.00
C71    C     0.52032   0.32222   0.26083   0.00000  Uiso   1.00
C72    C     0.46707   0.16457   0.34696   0.00000  Uiso   1.00
C73    C     0.47899   0.01096   0.24560   0.00000  Uiso   1.00
C74    C     0.48523   0.06674   0.24838   0.00000  Uiso   1.00
C75    C     0.53284   0.16723   0.15311   0.00000  Uiso   1.00
C76    C     0.63054   0.19712   0.02469   0.00000  Uiso   1.00
C77    C     0.55194   0.16675   0.09765   0.00000  Uiso   1.00
C78    C     0.39071   0.12228   0.41838   0.00000  Uiso   1.00
C79    C     0.37858   0.10012   0.46540   0.00000  Uiso   1.00
C80    C     0.42227   0.11312   0.49706   0.00000  Uiso   1.00
Cu81   Cu    0.44043   0.16105   0.24436   0.00000  Uiso   1.00
Cu82   Cu    0.55957   0.17228   0.25564   0.00000  Uiso   1.00
H83    H     0.66433   0.12971   0.20801   0.00000  Uiso   1.00
H84    H     0.45819   0.14546   0.08544   0.00000  Uiso   1.00
H85    H     0.41398   0.09101   0.03073   0.00000  Uiso   1.00
H86    H     0.33630   0.07085   0.47633   0.00000  Uiso   1.00
H87    H     0.55518   0.23332   0.38927   0.00000  Uiso   1.00
N88    N     0.64908   0.18074   0.26416   0.00000  Uiso   1.00
N89    N     0.35092   0.15259   0.23584   0.00000  Uiso   1.00
O90    O     0.46131   0.23807   0.24633   0.00000  Uiso   1.00
O91    O     0.56191   0.24755   0.25587   0.00000  Uiso   1.00
O92    O     0.42515   0.15960   0.31840   0.00000  Uiso   1.00
O93    O     0.52575   0.16908   0.32793   0.00000  Uiso   1.00
O94    O     0.43809   0.08578   0.24414   0.00000  Uiso   1.00
O95    O     0.53869   0.09526   0.25367   0.00000  Uiso   1.00
O96    O     0.47425   0.16425   0.17207   0.00000  Uiso   1.00
O97    O     0.57485   0.17373   0.18160   0.00000  Uiso   1.00
O98    O     0.66115   0.16912   0.09747   0.00000  Uiso   1.00
C99    C     0.65168   0.11432   0.10415   0.00000  Uiso   1.00
H100   H     0.61111   0.09989   0.13410   0.00000  Uiso   1.00
H101   H     0.35929   0.10614   0.11650   0.00000  Uiso   1.00
H102   H     0.64490   0.09059   0.06865   0.00000  Uiso   1.00
H103   H     0.44085   0.32095   0.22894   0.00000  Uiso   1.00
O104   O     0.33959   0.20626   0.30371   0.00000  Uiso   1.00
C105   C     0.33529   0.25914   0.30391   0.00000  Uiso   1.00
H106   H     0.62249   0.26451   0.32373   0.00000  Uiso   1.00
H107   H     0.34526   0.27424   0.26505   0.00000  Uiso   1.00
H108   H     0.37011   0.28342   0.32511   0.00000  Uiso   1.00
H109   H     0.63929   0.24109   0.43526   0.00000  Uiso   1.00
O110   O     0.35874   0.21499   0.00248   0.00000  Uiso   1.00
C111   C     0.38043   0.26556   0.02334   0.00000  Uiso   1.00
H112   H     0.38203   0.26428   0.06422   0.00000  Uiso   1.00
H113   H     0.35165   0.29353   0.01786   0.00000  Uiso   1.00
H114   H     0.42859   0.28086   0.00330   0.00000  Uiso   1.00
H115   H     0.35759   0.10890   0.39329   0.00000  Uiso   1.00
O116   O     0.56974   0.01784   0.28200   0.00000  Uiso   1.00
C117   C     0.55086   0.01988   0.33521   0.00000  Uiso   1.00
H118   H     0.59102   0.04114   0.35236   0.00000  Uiso   1.00
H119   H     0.53581   0.31312   0.35061   0.00000  Uiso   1.00
H120   H     0.51294   0.04193   0.34686   0.00000  Uiso   1.00
C121   C     0.84768   0.26652   0.25342   0.00000  Uiso   1.00
C122   C     0.81069   0.15142   0.48375   0.00000  Uiso   1.00
C123   C     0.82381   0.17331   0.43554   0.00000  Uiso   1.00
C124   C     0.85519   0.16589   0.01584   0.00000  Uiso   1.00
C125   C     0.91637   0.19290   0.49624   0.00000  Uiso   1.00
C126   C     0.92786   0.21623   0.44952   0.00000  Uiso   1.00
C127   C     0.88032   0.20997   0.42186   0.00000  Uiso   1.00
C128   C     0.83958   0.15712   0.06768   0.00000  Uiso   1.00
C129   C     0.94827   0.17750   0.07382   0.00000  Uiso   1.00
C130   C     0.78109   0.15667   0.40180   0.00000  Uiso   1.00
C131   C     0.85365   0.32222   0.26083   0.00000  Uiso   1.00
C132   C     0.80040   0.16457   0.34696   0.00000  Uiso   1.00
C133   C     0.81232   0.01096   0.24560   0.00000  Uiso   1.00
C134   C     0.81856   0.06674   0.24838   0.00000  Uiso   1.00
C135   C     0.86618   0.16723   0.15311   0.00000  Uiso   1.00
C136   C     0.96387   0.19712   0.02469   0.00000  Uiso   1.00
C137   C     0.88528   0.16675   0.09765   0.00000  Uiso   1.00
C138   C     0.72405   0.12228   0.41838   0.00000  Uiso   1.00
C139   C     0.71191   0.10012   0.46540   0.00000  Uiso   1.00
C140   C     0.75560   0.11312   0.49706   0.00000  Uiso   1.00
Cu141  Cu    0.77377   0.16105   0.24436   0.00000  Uiso   1.00
Cu142  Cu    0.89290   0.17228   0.25564   0.00000  Uiso   1.00
H143   H     0.99766   0.12971   0.20801   0.00000  Uiso   1.00
H144   H     0.79153   0.14546   0.08544   0.00000  Uiso   1.00
H145   H     0.74731   0.09101   0.03073   0.00000  Uiso   1.00
H146   H     0.66964   0.07085   0.47633   0.00000  Uiso   1.00
H147   H     0.88851   0.23332   0.38927   0.00000  Uiso   1.00
N148   N     0.98241   0.18074   0.26416   0.00000  Uiso   1.00
N149   N     0.68426   0.15259   0.23584   0.00000  Uiso   1.00
O150   O     0.79464   0.23807   0.24633   0.00000  Uiso   1.00
O151   O     0.89524   0.24755   0.25587   0.00000  Uiso   1.00
O152   O     0.75848   0.15960   0.31840   0.00000  Uiso   1.00
O153   O     0.85908   0.16908   0.32793   0.00000  Uiso   1.00
O154   O     0.77142   0.08578   0.24414   0.00000  Uiso   1.00
O155   O     0.87203   0.09526   0.25367   0.00000  Uiso   1.00
O156   O     0.80758   0.16425   0.17207   0.00000  Uiso   1.00
O157   O     0.90819   0.17373   0.18160   0.00000  Uiso   1.00
O158   O     0.99448   0.16912   0.09747   0.00000  Uiso   1.00
C159   C     0.98502   0.11432   0.10415   0.00000  Uiso   1.00
H160   H     0.94444   0.09989   0.13410   0.00000  Uiso   1.00
H161   H     0.69262   0.10614   0.11650   0.00000  Uiso   1.00
H162   H     0.97823   0.09059   0.06865   0.00000  Uiso   1.00
H163   H     0.77418   0.32095   0.22894   0.00000  Uiso   1.00
O164   O     0.67292   0.20626   0.30371   0.00000  Uiso   1.00
C165   C     0.66863   0.25914   0.30391   0.00000  Uiso   1.00
H166   H     0.95582   0.26451   0.32373   0.00000  Uiso   1.00
H167   H     0.67859   0.27424   0.26505   0.00000  Uiso   1.00
H168   H     0.70344   0.28342   0.32511   0.00000  Uiso   1.00
H169   H     0.97262   0.24109   0.43526   0.00000  Uiso   1.00
O170   O     0.69207   0.21499   0.00248   0.00000  Uiso   1.00
C171   C     0.71376   0.26556   0.02334   0.00000  Uiso   1.00
H172   H     0.71536   0.26428   0.06422   0.00000  Uiso   1.00
H173   H     0.68499   0.29353   0.01786   0.00000  Uiso   1.00
H174   H     0.76192   0.28086   0.00330   0.00000  Uiso   1.00
H175   H     0.69093   0.10890   0.39329   0.00000  Uiso   1.00
O176   O     0.90307   0.01784   0.28200   0.00000  Uiso   1.00
C177   C     0.88419   0.01988   0.33521   0.00000  Uiso   1.00
H178   H     0.92436   0.04114   0.35236   0.00000  Uiso   1.00
H179   H     0.86914   0.31312   0.35061   0.00000  Uiso   1.00
H180   H     0.84627   0.04193   0.34686   0.00000  Uiso   1.00
C181   C     0.18102   0.59986   0.25342   0.00000  Uiso   1.00
C182   C     0.14403   0.48476   0.48375   0.00000  Uiso   1.00
C183   C     0.15715   0.50665   0.43554   0.00000  Uiso   1.00
C184   C     0.18852   0.49922   0.01584   0.00000  Uiso   1.00
C185   C     0.24971   0.52623   0.49624   0.00000  Uiso   1.00
C186   C     0.26120   0.54957   0.44952   0.00000  Uiso   1.00
C187   C     0.21366   0.54330   0.42186   0.00000  Uiso   1.00
C188   C     0.17292   0.49045   0.06768   0.00000  Uiso   1.00
C189   C     0.28161   0.51083   0.07382   0.00000  Uiso   1.00
C190   C     0.11443   0.49001   0.40180   0.00000  Uiso   1.00
C191   C     0.18698   0.65556   0.26083   0.00000  Uiso   1.00
C192   C     0.13374   0.49791   0.34696   0.00000  Uiso   1.00
C193   C     0.14565   0.34429   0.24560   0.00000  Uiso   1.00
C194   C     0.15190   0.40008   0.24838   0.00000  Uiso   1.00
C195   C     0.19951   0.50057   0.15311   0.00000  Uiso   1.00
C196   C     0.29721   0.53046   0.02469   0.00000  Uiso   1.00
C197   C     0.21861   0.50008   0.09765   0.00000  Uiso   1.00
C198   C     0.05738   0.45561   0.41838   0.00000  Uiso   1.00
C199   C     0.04524   0.43345   0.46540   0.00000  Uiso   1.00
C200   C     0.08893   0.44645   0.49706   0.00000  Uiso   1.00
Cu201  Cu    0.10710   0.49439   0.24436   0.00000  Uiso   1.00
Cu202  Cu    0.22623   0.50561   0.25564   0.00000  Uiso   1.00
H203   H     0.33100   0.46304   0.20801   0.00000  Uiso   1.00
H204   H     0.12486   0.47879   0.08544   0.00000  Uiso   1.00
H205   H     0.08065   0.42435   0.03073   0.00000  Uiso   1.00
H206   H     0.00297   0.40418   0.47633   0.00000  Uiso   1.00
H207   H     0.22184   0.56665   0.38927   0.00000  Uiso   1.00
N208   N     0.31574   0.51407   0.26416   0.00000  Uiso   1.00
N209   N     0.01759   0.48593   0.23584   0.00000  Uiso   1.00
O210   O     0.12797   0.57141   0.24633   0.00000  Uiso   1.00
O211   O     0.22858   0.58089   0.25587   0.00000  Uiso   1.00
O212   O     0.09181   0.49293   0.31840   0.00000  Uiso   1.00
O213   O     0.19242   0.50241   0.32793   0.00000  Uiso   1.00
O214   O     0.10476   0.41911   0.24414   0.00000  Uiso   1.00
O215   O     0.20536   0.42859   0.25367   0.00000  Uiso   1.00
O216   O     0.14092   0.49759   0.17207   0.00000  Uiso   1.00
O217   O     0.24152   0.50707   0.18160   0.00000  Uiso   1.00
O218   O     0.32781   0.50246   0.09747   0.00000  Uiso   1.00
C219   C     0.31835   0.44765   0.10415   0.00000  Uiso   1.00
H220   H     0.27777   0.43322   0.13410   0.00000  Uiso   1.00
H221   H     0.02596   0.43947   0.11650   0.00000  Uiso   1.00
H222   H     0.31157   0.42392   0.06865   0.00000  Uiso   1.00
H223   H     0.10751   0.65428   0.22894   0.00000  Uiso   1.00
O224   O     0.00625   0.53960   0.30371   0.00000  Uiso   1.00
C225   C     0.00196   0.59247   0.30391   0.00000  Uiso   1.00
H226   H     0.28915   0.59784   0.32373   0.00000  Uiso   1.00
H227   H     0.01193   0.60758   0.26505   0.00000  Uiso   1.00
H228   H     0.03677   0.61675   0.32511   0.00000  Uiso   1.00
H229   H     0.30596   0.57442   0.43526   0.00000  Uiso   1.00
O230   O     0.02541   0.54832   0.00248   0.00000  Uiso   1.00
C231   C     0.04709   0.59889   0.02334   0.00000  Uiso   1.00
H232   H     0.04870   0.59761   0.06422   0.00000  Uiso   1.00
H233   H     0.01832   0.62686   0.01786   0.00000  Uiso   1.00
H234   H     0.09526   0.61419   0.00330   0.00000  Uiso   1.00
H235   H     0.02426   0.44223   0.39329   0.00000  Uiso   1.00
O236   O     0.23641   0.35118   0.28200   0.00000  Uiso   1.00
C237   C     0.21752   0.35321   0.33521   0.00000  Uiso   1.00
H238   H     0.25769   0.37447   0.35236   0.00000  Uiso   1.00
H239   H     0.20247   0.64645   0.35061   0.00000  Uiso   1.00
H240   H     0.17960   0.37526   0.34686   0.00000  Uiso   1.00
C241   C     0.51435   0.59986   0.25342   0.00000  Uiso   1.00
C242   C     0.47736   0.48476   0.48375   0.00000  Uiso   1.00
C243   C     0.49048   0.50665   0.43554   0.00000  Uiso   1.00
C244   C     0.52186   0.49922   0.01584   0.00000  Uiso   1.00
C245   C     0.58304   0.52623   0.49624   0.00000  Uiso   1.00
C246   C     0.59453   0.54957   0.44952   0.00000  Uiso   1.00
C247   C     0.54699   0.54330   0.42186   0.00000  Uiso   1.00
C248   C     0.50625   0.49045   0.06768   0.00000  Uiso   1.00
C249   C     0.61494   0.51083   0.07382   0.00000  Uiso   1.00
C250   C     0.44776   0.49001   0.40180   0.00000  Uiso   1.00
C251   C     0.52032   0.65556   0.26083   0.00000  Uiso   1.00
C252   C     0.46707   0.49791   0.34696   0.00000  Uiso   1.00
C253   C     0.47899   0.34429   0.24560   0.00000  Uiso   1.00
C254   C     0.48523   0.40008   0.24838   0.00000  Uiso   1.00
C255   C     0.53284   0.50057   0.15311   0.00000  Uiso   1.00
C256   C     0.63054   0.53046   0.02469   0.00000  Uiso   1.00
C257   C     0.55194   0.50008   0.09765   0.00000  Uiso   1.00
C258   C     0.39071   0.45561   0.41838   0.00000  Uiso   1.00
C259   C     0.37858   0.43345   0.46540   0.00000  Uiso   1.00
C260   C     0.42227   0.44645   0.49706   0.00000  Uiso   1.00
Cu261  Cu    0.44043   0.49439   0.24436   0.00000  Uiso   1.00
Cu262  Cu    0.55957   0.50561   0.25564   0.00000  Uiso   1.00
H263   H     0.66433   0.46304   0.20801   0.00000  Uiso   1.00
H264   H     0.45819   0.47879   0.08544   0.00000  Uiso   1.00
H265   H     0.41398   0.42435   0.03073   0.00000  Uiso   1.00
H266   H     0.33630   0.40418   0.47633   0.00000  Uiso   1.00
H267   H     0.55518   0.56665   0.38927   0.00000  Uiso   1.00
N268   N     0.64908   0.51407   0.26416   0.00000  Uiso   1.00
N269   N     0.35092   0.48593   0.23584   0.00000  Uiso   1.00
O270   O     0.46131   0.57141   0.24633   0.00000  Uiso   1.00
O271   O     0.56191   0.58089   0.25587   0.00000  Uiso   1.00
O272   O     0.42515   0.49293   0.31840   0.00000  Uiso   1.00
O273   O     0.52575   0.50241   0.32793   0.00000  Uiso   1.00
O274   O     0.43809   0.41911   0.24414   0.00000  Uiso   1.00
O275   O     0.53869   0.42859   0.25367   0.00000  Uiso   1.00
O276   O     0.47425   0.49759   0.17207   0.00000  Uiso   1.00
O277   O     0.57485   0.50707   0.18160   0.00000  Uiso   1.00
O278   O     0.66115   0.50246   0.09747   0.00000  Uiso   1.00
C279   C     0.65168   0.44765   0.10415   0.00000  Uiso   1.00
H280   H     0.61111   0.43322   0.13410   0.00000  Uiso   1.00
H281   H     0.35929   0.43947   0.11650   0.00000  Uiso   1.00
H282   H     0.64490   0.42392   0.06865   0.00000  Uiso   1.00
H283   H     0.44085   0.65428   0.22894   0.00000  Uiso   1.00
O284   O     0.33959   0.53960   0.30371   0.00000  Uiso   1.00
C285   C     0.33529   0.59247   0.30391   0.00000  Uiso   1.00
H286   H     0.62249   0.59784   0.32373   0.00000  Uiso   1.00
H287   H     0.34526   0.60758   0.26505   0.00000  Uiso   1.00
H288   H     0.37011   0.61675   0.32511   0.00000  Uiso   1.00
H289   H     0.63929   0.57442   0.43526   0.00000  Uiso   1.00
O290   O     0.35874   0.54832   0.00248   0.00000  Uiso   1.00
C291   C     0.38043   0.59889   0.02334   0.00000  Uiso   1.00
H292   H     0.38203   0.59761   0.06422   0.00000  Uiso   1.00
H293   H     0.35165   0.62686   0.01786   0.00000  Uiso   1.00
H294   H     0.42859   0.61419   0.00330   0.00000  Uiso   1.00
H295   H     0.35759   0.44223   0.39329   0.00000  Uiso   1.00
O296   O     0.56974   0.35118   0.28200   0.00000  Uiso   1.00
C297   C     0.55086   0.35321   0.33521   0.00000  Uiso   1.00
H298   H     0.59102   0.37447   0.35236   0.00000  Uiso   1.00
H299   H     0.53581   0.64645   0.35061   0.00000  Uiso   1.00
H300   H     0.51294   0.37526   0.34686   0.00000  Uiso   1.00
C301   C     0.84768   0.59986   0.25342   0.00000  Uiso   1.00
C302   C     0.81069   0.48476   0.48375   0.00000  Uiso   1.00
C303   C     0.82381   0.50665   0.43554   0.00000  Uiso   1.00
C304   C     0.85519   0.49922   0.01584   0.00000  Uiso   1.00
C305   C     0.91637   0.52623   0.49624   0.00000  Uiso   1.00
C306   C     0.92786   0.54957   0.44952   0.00000  Uiso   1.00
C307   C     0.88032   0.54330   0.42186   0.00000  Uiso   1.00
C308   C     0.83958   0.49045   0.06768   0.00000  Uiso   1.00
C309   C     0.94827   0.51083   0.07382   0.00000  Uiso   1.00
C310   C     0.78109   0.49001   0.40180   0.00000  Uiso   1.00
C311   C     0.85365   0.65556   0.26083   0.00000  Uiso   1.00
C312   C     0.80040   0.49791   0.34696   0.00000  Uiso   1.00
C313   C     0.81232   0.34429   0.24560   0.00000  Uiso   1.00
C314   C     0.81856   0.40008   0.24838   0.00000  Uiso   1.00
C315   C     0.86618   0.50057   0.15311   0.00000  Uiso   1.00
C316   C     0.96387   0.53046   0.02469   0.00000  Uiso   1.00
C317   C     0.88528   0.50008   0.09765   0.00000  Uiso   1.00
C318   C     0.72405   0.45561   0.41838   0.00000  Uiso   1.00
C319   C     0.71191   0.43345   0.46540   0.00000  Uiso   1.00
C320   C     0.75560   0.44645   0.49706   0.00000  Uiso   1.00
Cu321  Cu    0.77377   0.49439   0.24436   0.00000  Uiso   1.00
Cu322  Cu    0.89290   0.50561   0.25564   0.00000  Uiso   1.00
H323   H     0.99766   0.46304   0.20801   0.00000  Uiso   1.00
H324   H     0.79153   0.47879   0.08544   0.00000  Uiso   1.00
H325   H     0.74731   0.42435   0.03073   0.00000  Uiso   1.00
H326   H     0.66964   0.40418   0.47633   0.00000  Uiso   1.00
H327   H     0.88851   0.56665   0.38927   0.00000  Uiso   1.00
N328   N     0.98241   0.51407   0.26416   0.00000  Uiso   1.00
N329   N     0.68426   0.48593   0.23584   0.00000  Uiso   1.00
O330   O     0.79464   0.57141   0.24633   0.00000  Uiso   1.00
O331   O     0.89524   0.58089   0.25587   0.00000  Uiso   1.00
O332   O     0.75848   0.49293   0.31840   0.00000  Uiso   1.00
O333   O     0.85908   0.50241   0.32793   0.00000  Uiso   1.00
O334   O     0.77142   0.41911   0.24414   0.00000  Uiso   1.00
O335   O     0.87203   0.42859   0.25367   0.00000  Uiso   1.00
O336   O     0.80758   0.49759   0.17207   0.00000  Uiso   1.00
O337   O     0.90819   0.50707   0.18160   0.00000  Uiso   1.00
O338   O     0.99448   0.50246   0.09747   0.00000  Uiso   1.00
C339   C     0.98502   0.44765   0.10415   0.00000  Uiso   1.00
H340   H     0.94444   0.43322   0.13410   0.00000  Uiso   1.00
H341   H     0.69262   0.43947   0.11650   0.00000  Uiso   1.00
H342   H     0.97823   0.42392   0.06865   0.00000  Uiso   1.00
H343   H     0.77418   0.65428   0.22894   0.00000  Uiso   1.00
O344   O     0.67292   0.53960   0.30371   0.00000  Uiso   1.00
C345   C     0.66863   0.59247   0.30391   0.00000  Uiso   1.00
H346   H     0.95582   0.59784   0.32373   0.00000  Uiso   1.00
H347   H     0.67859   0.60758   0.26505   0.00000  Uiso   1.00
H348   H     0.70344   0.61675   0.32511   0.00000  Uiso   1.00
H349   H     0.97262   0.57442   0.43526   0.00000  Uiso   1.00
O350   O     0.69207   0.54832   0.00248   0.00000  Uiso   1.00
C351   C     0.71376   0.59889   0.02334   0.00000  Uiso   1.00
H352   H     0.71536   0.59761   0.06422   0.00000  Uiso   1.00
H353   H     0.68499   0.62686   0.01786   0.00000  Uiso   1.00
H354   H     0.76192   0.61419   0.00330   0.00000  Uiso   1.00
H355   H     0.69093   0.44223   0.39329   0.00000  Uiso   1.00
O356   O     0.90307   0.35118   0.28200   0.00000  Uiso   1.00
C357   C     0.88419   0.35321   0.33521   0.00000  Uiso   1.00
H358   H     0.92436   0.37447   0.35236   0.00000  Uiso   1.00
H359   H     0.86914   0.64645   0.35061   0.00000  Uiso   1.00
H360   H     0.84627   0.37526   0.34686   0.00000  Uiso   1.00
C361   C     0.18102   0.93319   0.25342   0.00000  Uiso   1.00
C362   C     0.14403   0.81809   0.48375   0.00000  Uiso   1.00
C363   C     0.15715   0.83998   0.43554   0.00000  Uiso   1.00
C364   C     0.18852   0.83256   0.01584   0.00000  Uiso   1.00
C365   C     0.24971   0.85956   0.49624   0.00000  Uiso   1.00
C366   C     0.26120   0.88290   0.44952   0.00000  Uiso   1.00
C367   C     0.21366   0.87663   0.42186   0.00000  Uiso   1.00
C368   C     0.17292   0.82379   0.06768   0.00000  Uiso   1.00
C369   C     0.28161   0.84417   0.07382   0.00000  Uiso   1.00
C370   C     0.11443   0.82334   0.40180   0.00000  Uiso   1.00
C371   C     0.18698   0.98889   0.26083   0.00000  Uiso   1.00
C372   C     0.13374   0.83124   0.34696   0.00000  Uiso   1.00
C373   C     0.14565   0.67763   0.24560   0.00000  Uiso   1.00
C374   C     0.15190   0.73341   0.24838   0.00000  Uiso   1.00
C375   C     0.19951   0.83390   0.15311   0.00000  Uiso   1.00
C376   C     0.29721   0.86379   0.02469   0.00000  Uiso   1.00
C377   C     0.21861   0.83342   0.09765   0.00000  Uiso   1.00
C378   C     0.05738   0.78895   0.41838   0.00000  Uiso   1.00
C379   C     0.04524   0.76679   0.46540   0.00000  Uiso   1.00
C380   C     0.08893   0.77978   0.49706   0.00000  Uiso   1.00
Cu381  Cu    0.10710   0.82772   0.24436   0.00000  Uiso   1.00
Cu382  Cu    0.22623   0.83895   0.25564   0.00000  Uiso   1.00
H383   H     0.33100   0.79637   0.20801   0.00000  Uiso   1.00
H384   H     0.12486   0.81212   0.08544   0.00000  Uiso   1.00
H385   H     0.08065   0.75768   0.03073   0.00000  Uiso   1.00
H386   H     0.00297   0.73751   0.47633   0.00000  Uiso   1.00
H387   H     0.22184   0.89998   0.38927   0.00000  Uiso   1.00
N388   N     0.31574   0.84741   0.26416   0.00000  Uiso   1.00
N389   N     0.01759   0.81926   0.23584   0.00000  Uiso   1.00
O390   O     0.12797   0.90474   0.24633   0.00000  Uiso   1.00
O391   O     0.22858   0.91422   0.25587   0.00000  Uiso   1.00
O392   O     0.09181   0.82627   0.31840   0.00000  Uiso   1.00
O393   O     0.19242   0.83575   0.32793   0.00000  Uiso   1.00
O394   O     0.10476   0.75245   0.24414   0.00000  Uiso   1.00
O395   O     0.20536   0.76193   0.25367   0.00000  Uiso   1.00
O396   O     0.14092   0.83092   0.17207   0.00000  Uiso   1.00
O397   O     0.24152   0.84040   0.18160   0.00000  Uiso   1.00
O398   O     0.32781   0.83579   0.09747   0.00000  Uiso   1.00
C399   C     0.31835   0.78099   0.10415   0.00000  Uiso   1.00
H400   H     0.27777   0.76655   0.13410   0.00000  Uiso   1.00
H401   H     0.02596   0.77280   0.11650   0.00000  Uiso   1.00
H402   H     0.31157   0.75725   0.06865   0.00000  Uiso   1.00
H403   H     0.10751   0.98761   0.22894   0.00000  Uiso   1.00
O404   O     0.00625   0.87293   0.30371   0.00000  Uiso   1.00
C405   C     0.00196   0.92581   0.30391   0.00000  Uiso   1.00
H406   H     0.28915   0.93118   0.32373   0.00000  Uiso   1.00
H407   H     0.01193   0.94091   0.26505   0.00000  Uiso   1.00
H408   H     0.03677   0.95008   0.32511   0.00000  Uiso   1.00
H409   H     0.30596   0.90776   0.43526   0.00000  Uiso   1.00
O410   O     0.02541   0.88166   0.00248   0.00000  Uiso   1.00
C411   C     0.04709   0.93222   0.02334   0.00000  Uiso   1.00
H412   H     0.04870   0.93094   0.06422   0.00000  Uiso   1.00
H413   H     0.01832   0.96019   0.01786   0.00000  Uiso   1.00
H414   H     0.09526   0.94752   0.00330   0.00000  Uiso   1.00
H415   H     0.02426   0.77557   0.39329   0.00000  Uiso   1.00
O416   O     0.23641   0.68451   0.28200   0.00000  Uiso   1.00
C417   C     0.21752   0.68654   0.33521   0.00000  Uiso   1.00
H418   H     0.25769   0.70780   0.35236   0.00000  Uiso   1.00
H419   H     0.20247   0.97978   0.35061   0.00000  Uiso   1.00
H420   H     0.17960   0.70859   0.34686   0.00000  Uiso   1.00
C421   C     0.51435   0.93319   0.25342   0.00000  Uiso   1.00
C422   C     0.47736   0.81809   0.48375   0.00000  Uiso   1.00
C423   C     0.49048   0.83998   0.43554   0.00000  Uiso   1.00
C424   C     0.52186   0.83256   0.01584   0.00000  Uiso   1.00
C425   C     0.58304   0.85956   0.49624   0.00000  Uiso   1.00
C426   C     0.59453   0.88290   0.44952   0.00000  Uiso   1.00
C427   C     0.54699   0.87663   0.42186   0.00000  Uiso   1.00
C428   C     0.50625   0.82379   0.06768   0.00000  Uiso   1.00
C429   C     0.61494   0.84417   0.07382   0.00000  Uiso   1.00
C430   C     0.44776   0.82334   0.40180   0.00000  Uiso   1.00
C431   C     0.52032   0.98889   0.26083   0.00000  Uiso   1.00
C432   C     0.46707   0.83124   0.34696   0.00000  Uiso   1.00
C433   C     0.47899   0.67763   0.24560   0.00000  Uiso   1.00
C434   C     0.48523   0.73341   0.24838   0.00000  Uiso   1.00
C435   C     0.53284   0.83390   0.15311   0.00000  Uiso   1.00
C436   C     0.63054   0.86379   0.02469   0.00000  Uiso   1.00
C437   C     0.55194   0.83342   0.09765   0.00000  Uiso   1.00
C438   C     0.39071   0.78895   0.41838   0.00000  Uiso   1.00
C439   C     0.37858   0.76679   0.46540   0.00000  Uiso   1.00
C440   C     0.42227   0.77978   0.49706   0.00000  Uiso   1.00
Cu441  Cu    0.44043   0.82772   0.24436   0.00000  Uiso   1.00
Cu442  Cu    0.55957   0.83895   0.25564   0.00000  Uiso   1.00
H443   H     0.66433   0.79637   0.20801   0.00000  Uiso   1.00
H444   H     0.45819   0.81212   0.08544   0.00000  Uiso   1.00
H445   H     0.41398   0.75768   0.03073   0.00000  Uiso   1.00
H446   H     0.33630   0.73751   0.47633   0.00000  Uiso   1.00
H447   H     0.55518   0.89998   0.38927   0.00000  Uiso   1.00
N448   N     0.64908   0.84741   0.26416   0.00000  Uiso   1.00
N449   N     0.35092   0.81926   0.23584   0.00000  Uiso   1.00
O450   O     0.46131   0.90474   0.24633   0.00000  Uiso   1.00
O451   O     0.56191   0.91422   0.25587   0.00000  Uiso   1.00
O452   O     0.42515   0.82627   0.31840   0.00000  Uiso   1.00
O453   O     0.52575   0.83575   0.32793   0.00000  Uiso   1.00
O454   O     0.43809   0.75245   0.24414   0.00000  Uiso   1.00
O455   O     0.53869   0.76193   0.25367   0.00000  Uiso   1.00
O456   O     0.47425   0.83092   0.17207   0.00000  Uiso   1.00
O457   O     0.57485   0.84040   0.18160   0.00000  Uiso   1.00
O458   O     0.66115   0.83579   0.09747   0.00000  Uiso   1.00
C459   C     0.65168   0.78099   0.10415   0.00000  Uiso   1.00
H460   H     0.61111   0.76655   0.13410   0.00000  Uiso   1.00
H461   H     0.35929   0.77280   0.11650   0.00000  Uiso   1.00
H462   H     0.64490   0.75725   0.06865   0.00000  Uiso   1.00
H463   H     0.44085   0.98761   0.22894   0.00000  Uiso   1.00
O464   O     0.33959   0.87293   0.30371   0.00000  Uiso   1.00
C465   C     0.33529   0.92581   0.30391   0.00000  Uiso   1.00
H466   H     0.62249   0.93118   0.32373   0.00000  Uiso   1.00
H467   H     0.34526   0.94091   0.26505   0.00000  Uiso   1.00
H468   H     0.37011   0.95008   0.32511   0.00000  Uiso   1.00
H469   H     0.63929   0.90776   0.43526   0.00000  Uiso   1.00
O470   O     0.35874   0.88166   0.00248   0.00000  Uiso   1.00
C471   C     0.38043   0.93222   0.02334   0.00000  Uiso   1.00
H472   H     0.38203   0.93094   0.06422   0.00000  Uiso   1.00
H473   H     0.35165   0.96019   0.01786   0.00000  Uiso   1.00
H474   H     0.42859   0.94752   0.00330   0.00000  Uiso   1.00
H475   H     0.35759   0.77557   0.39329   0.00000  Uiso   1.00
O476   O     0.56974   0.68451   0.28200   0.00000  Uiso   1.00
C477   C     0.55086   0.68654   0.33521   0.00000  Uiso   1.00
H478   H     0.59102   0.70780   0.35236   0.00000  Uiso   1.00
H479   H     0.53581   0.97978   0.35061   0.00000  Uiso   1.00
H480   H     0.51294   0.70859   0.34686   0.00000  Uiso   1.00
C481   C     0.84768   0.93319   0.25342   0.00000  Uiso   1.00
C482   C     0.81069   0.81809   0.48375   0.00000  Uiso   1.00
C483   C     0.82381   0.83998   0.43554   0.00000  Uiso   1.00
C484   C     0.85519   0.83256   0.01584   0.00000  Uiso   1.00
C485   C     0.91637   0.85956   0.49624   0.00000  Uiso   1.00
C486   C     0.92786   0.88290   0.44952   0.00000  Uiso   1.00
C487   C     0.88032   0.87663   0.42186   0.00000  Uiso   1.00
C488   C     0.83958   0.82379   0.06768   0.00000  Uiso   1.00
C489   C     0.94827   0.84417   0.07382   0.00000  Uiso   1.00
C490   C     0.78109   0.82334   0.40180   0.00000  Uiso   1.00
C491   C     0.85365   0.98889   0.26083   0.00000  Uiso   1.00
C492   C     0.80040   0.83124   0.34696   0.00000  Uiso   1.00
C493   C     0.81232   0.67763   0.24560   0.00000  Uiso   1.00
C494   C     0.81856   0.73341   0.24838   0.00000  Uiso   1.00
C495   C     0.86618   0.83390   0.15311   0.00000  Uiso   1.00
C496   C     0.96387   0.86379   0.02469   0.00000  Uiso   1.00
C497   C     0.88528   0.83342   0.09765   0.00000  Uiso   1.00
C498   C     0.72405   0.78895   0.41838   0.00000  Uiso   1.00
C499   C     0.71191   0.76679   0.46540   0.00000  Uiso   1.00
C500   C     0.75560   0.77978   0.49706   0.00000  Uiso   1.00
Cu501  Cu    0.77377   0.82772   0.24436   0.00000  Uiso   1.00
Cu502  Cu    0.89290   0.83895   0.25564   0.00000  Uiso   1.00
H503   H     0.99766   0.79637   0.20801   0.00000  Uiso   1.00
H504   H     0.79153   0.81212   0.08544   0.00000  Uiso   1.00
H505   H     0.74731   0.75768   0.03073   0.00000  Uiso   1.00
H506   H     0.66964   0.73751   0.47633   0.00000  Uiso   1.00
H507   H     0.88851   0.89998   0.38927   0.00000  Uiso   1.00
N508   N     0.98241   0.84741   0.26416   0.00000  Uiso   1.00
N509   N     0.68426   0.81926   0.23584   0.00000  Uiso   1.00
O510   O     0.79464   0.90474   0.24633   0.00000  Uiso   1.00
O511   O     0.89524   0.91422   0.25587   0.00000  Uiso   1.00
O512   O     0.75848   0.82627   0.31840   0.00000  Uiso   1.00
O513   O     0.85908   0.83575   0.32793   0.00000  Uiso   1.00
O514   O     0.77142   0.75245   0.24414   0.00000  Uiso   1.00
O515   O     0.87203   0.76193   0.25367   0.00000  Uiso   1.00
O516   O     0.80758   0.83092   0.17207   0.00000  Uiso   1.00
O517   O     0.90819   0.84040   0.18160   0.00000  Uiso   1.00
O518   O     0.99448   0.83579   0.09747   0.00000  Uiso   1.00
C519   C     0.98502   0.78099   0.10415   0.00000  Uiso   1.00
H520   H     0.94444   0.76655   0.13410   0.00000  Uiso   1.00
H521   H     0.69262   0.77280   0.11650   0.00000  Uiso   1.00
H522   H     0.97823   0.75725   0.06865   0.00000  Uiso   1.00
H523   H     0.77418   0.98761   0.22894   0.00000  Uiso   1.00
O524   O     0.67292   0.87293   0.30371   0.00000  Uiso   1.00
C525   C     0.66863   0.92581   0.30391   0.00000  Uiso   1.00
H526   H     0.95582   0.93118   0.32373   0.00000  Uiso   1.00
H527   H     0.67859   0.94091   0.26505   0.00000  Uiso   1.00
H528   H     0.70344   0.95008   0.32511   0.00000  Uiso   1.00
H529   H     0.97262   0.90776   0.43526   0.00000  Uiso   1.00
O530   O     0.69207   0.88166   0.00248   0.00000  Uiso   1.00
C531   C     0.71376   0.93222   0.02334   0.00000  Uiso   1.00
H532   H     0.71536   0.93094   0.06422   0.00000  Uiso   1.00
H533   H     0.68499   0.96019   0.01786   0.00000  Uiso   1.00
H534   H     0.76192   0.94752   0.00330   0.00000  Uiso   1.00
H535   H     0.69093   0.77557   0.39329   0.00000  Uiso   1.00
O536   O     0.90307   0.68451   0.28200   0.00000  Uiso   1.00
C537   C     0.88419   0.68654   0.33521   0.00000  Uiso   1.00
H538   H     0.92436   0.70780   0.35236   0.00000  Uiso   1.00
H539   H     0.86914   0.97978   0.35061   0.00000  Uiso   1.00
H540   H     0.84627   0.70859   0.34686   0.00000  Uiso   1.00
C541   C     0.18102   0.26652   0.75342   0.00000  Uiso   1.00
C542   C     0.14403   0.15142   0.98375   0.00000  Uiso   1.00
C543   C     0.15715   0.17331   0.93554   0.00000  Uiso   1.00
C544   C     0.18852   0.16589   0.51584   0.00000  Uiso   1.00
C545   C     0.24971   0.19290   0.99624   0.00000  Uiso   1.00
C546   C     0.26120   0.21623   0.94952   0.00000  Uiso   1.00
C547   C     0.21366   0.20997   0.92186   0.00000  Uiso   1.00
C548   C     0.17292   0.15712   0.56768   0.00000  Uiso   1.00
C549   C     0.28161   0.17750   0.57382   0.00000  Uiso   1.00
C550   C     0.11443   0.15667   0.90180   0.00000  Uiso   1.00
C551   C     0.18698   0.32222   0.76083   0.00000  Uiso   1.00
C552   C     0.13374   0.16457   0.84696   0.00000  Uiso   1.00
C553   C     0.14565   0.01096   0.74560   0.00000  Uiso   1.00
C554   C     0.15190   0.06674   0.74838   0.00000  Uiso   1.00
C555   C     0.19951   0.16723   0.65311   0.00000  Uiso   1.00
C556   C     0.29721   0.19712   0.52469   0.00000  Uiso   1.00
C557   C     0.21861   0.16675   0.59765   0.00000  Uiso   1.00
C558   C     0.05738   0.12228   0.91838   0.00000  Uiso   1.00
C559   C     0.04524   0.10012   0.96540   0.00000  Uiso   1.00
C560   C     0.08893   0.11312   0.99706   0.00000  Uiso   1.00
Cu561  Cu    0.10710   0.16105   0.74436   0.00000  Uiso   1.00
Cu562  Cu    0.22623   0.17228   0.75564   0.00000  Uiso   1.00
H563   H     0.33100   0.12971   0.70801   0.00000  Uiso   1.00
H564   H     0.12486   0.14546   0.58544   0.00000  Uiso   1.00
H565   H     0.08065   0.09101   0.53073   0.00000  Uiso   1.00
H566   H     0.00297   0.07085   0.97633   0.00000  Uiso   1.00
H567   H     0.22184   0.23332   0.88927   0.00000  Uiso   1.00
N568   N     0.31574   0.18074   0.76416   0.00000  Uiso   1.00
N569   N     0.01759   0.15259   0.73584   0.00000  Uiso   1.00
O570   O     0.12797   0.23807   0.74633   0.00000  Uiso   1.00
O571   O     0.22858   0.24755   0.75587   0.00000  Uiso   1.00
O572   O     0.09181   0.15960   0.81840   0.00000  Uiso   1.00
O573   O     0.19242   0.16908   0.82793   0.00000  Uiso   1.00
O574   O     0.10476   0.08578   0.74414   0.00000  Uiso   1.00
O575   O     0.20536   0.09526   0.75367   0.00000  Uiso   1.00
O576   O     0.14092   0.16425   0.67207   0.00000  Uiso   1.00
O577   O     0.24152   0.17373   0.68160   0.00000  Uiso   1.00
O578   O     0.32781   0.16912   0.59747   0.00000  Uiso   1.00
C579   C     0.31835   0.11432   0.60415   0.00000  Uiso   1.00
H580   H     0.27777   0.09989   0.63410   0.00000  Uiso   1.00
H581   H     0.02596   0.10614   0.61650   0.00000  Uiso   1.00
H582   H     0.31157   0.09059   0.56865   0.00000  Uiso   1.00
H583   H     0.10751   0.32095   0.72894   0.00000  Uiso   1.00
O584   O     0.00625   0.20626   0.80371   0.00000  Uiso   1.00
C585   C     0.00196   0.25914   0.80391   0.00000  Uiso   1.00
H586   H     0.28915   0.26451   0.82373   0.00000  Uiso   1.00
H587   H     0.01193   0.27424   0.76505   0.00000  Uiso   1.00
H588   H     0.03677   0.28342   0.82511   0.00000  Uiso   1.00
H589   H     0.30596   0.24109   0.93526   0.00000  Uiso   1.00
O590   O     0.02541   0.21499   0.50248   0.00000  Uiso   1.00
C591   C     0.04709   0.26556   0.52334   0.00000  Uiso   1.00
H592   H     0.04870   0.26428   0.56422   0.00000  Uiso   1.00
H593   H     0.01832   0.29353   0.51786   0.00000  Uiso   1.00
H594   H     0.09526   0.28086   0.50330   0.00000  Uiso   1.00
H595   H     0.02426   0.10890   0.89329   0.00000  Uiso   1.00
O596   O     0.23641   0.01784   0.78200   0.00000  Uiso   1.00
C597   C     0.21752   0.01988   0.83521   0.00000  Uiso   1.00
H598   H     0.25769   0.04114   0.85236   0.00000  Uiso   1.00
H599   H     0.20247   0.31312   0.85061   0.00000  Uiso   1.00
H600   H     0.17960   0.04193   0.84686   0.00000  Uiso   1.00
C601   C     0.51435   0.26652   0.75342   0.00000  Uiso   1.00
C602   C     0.47736   0.15142   0.98375   0.00000  Uiso   1.00
C603   C     0.49048   0.17331   0.93554   0.00000  Uiso   1.00
C604   C     0.52186   0.16589   0.51584   0.00000  Uiso   1.00
C605   C     0.58304   0.19290   0.99624   0.00000  Uiso   1.00
C606   C     0.59453   0.21623   0.94952   0.00000  Uiso   1.00
C607   C     0.54699   0.20997   0.92186   0.00000  Uiso   1.00
C608   C     0.50625   0.15712   0.56768   0.00000  Uiso   1.00
C609   C     0.61494   0.17750   0.57382   0.00000  Uiso   1.00
C610   C     0.44776   0.15667   0.90180   0.00000  Uiso   1.00
C611   C     0.52032   0.32222   0.76083   0.00000  Uiso   1.00
C612   C     0.46707   0.16457   0.84696   0.00000  Uiso   1.00
C613   C     0.47899   0.01096   0.74560   0.00000  Uiso   1.00
C614   C     0.48523   0.06674   0.74838   0.00000  Uiso   1.00
C615   C     0.53284   0.16723   0.65311   0.00000  Uiso   1.00
C616   C     0.63054   0.19712   0.52469   0.00000  Uiso   1.00
C617   C     0.55194   0.16675   0.59765   0.00000  Uiso   1.00
C618   C     0.39071   0.12228   0.91838   0.00000  Uiso   1.00
C619   C     0.37858   0.10012   0.96540   0.00000  Uiso   1.00
C620   C     0.42227   0.11312   0.99706   0.00000  Uiso   1.00
Cu621  Cu    0.44043   0.16105   0.74436   0.00000  Uiso   1.00
Cu622  Cu    0.55957   0.17228   0.75564   0.00000  Uiso   1.00
H623   H     0.66433   0.12971   0.70801   0.00000  Uiso   1.00
H624   H     0.45819   0.14546   0.58544   0.00000  Uiso   1.00
H625   H     0.41398   0.09101   0.53073   0.00000  Uiso   1.00
H626   H     0.33630   0.07085   0.97633   0.00000  Uiso   1.00
H627   H     0.55518   0.23332   0.88927   0.00000  Uiso   1.00
N628   N     0.64908   0.18074   0.76416   0.00000  Uiso   1.00
N629   N     0.35092   0.15259   0.73584   0.00000  Uiso   1.00
O630   O     0.46131   0.23807   0.74633   0.00000  Uiso   1.00
O631   O     0.56191   0.24755   0.75587   0.00000  Uiso   1.00
O632   O     0.42515   0.15960   0.81840   0.00000  Uiso   1.00
O633   O     0.52575   0.16908   0.82793   0.00000  Uiso   1.00
O634   O     0.43809   0.08578   0.74414   0.00000  Uiso   1.00
O635   O     0.53869   0.09526   0.75367   0.00000  Uiso   1.00
O636   O     0.47425   0.16425   0.67207   0.00000  Uiso   1.00
O637   O     0.57485   0.17373   0.68160   0.00000  Uiso   1.00
O638   O     0.66115   0.16912   0.59747   0.00000  Uiso   1.00
C639   C     0.65168   0.11432   0.60415   0.00000  Uiso   1.00
H640   H     0.61111   0.09989   0.63410   0.00000  Uiso   1.00
H641   H     0.35929   0.10614   0.61650   0.00000  Uiso   1.00
H642   H     0.64490   0.09059   0.56865   0.00000  Uiso   1.00
H643   H     0.44085   0.32095   0.72894   0.00000  Uiso   1.00
O644   O     0.33959   0.20626   0.80371   0.00000  Uiso   1.00
C645   C     0.33529   0.25914   0.80391   0.00000  Uiso   1.00
H646   H     0.62249   0.26451   0.82373   0.00000  Uiso   1.00
H647   H     0.34526   0.27424   0.76505   0.00000  Uiso   1.00
H648   H     0.37011   0.28342   0.82511   0.00000  Uiso   1.00
H649   H     0.63929   0.24109   0.93526   0.00000  Uiso   1.00
O650   O     0.35874   0.21499   0.50248   0.00000  Uiso   1.00
C651   C     0.38043   0.26556   0.52334   0.00000  Uiso   1.00
H652   H     0.38203   0.26428   0.56422   0.00000  Uiso   1.00
H653   H     0.35165   0.29353   0.51786   0.00000  Uiso   1.00
H654   H     0.42859   0.28086   0.50330   0.00000  Uiso   1.00
H655   H     0.35759   0.10890   0.89329   0.00000  Uiso   1.00
O656   O     0.56974   0.01784   0.78200   0.00000  Uiso   1.00
C657   C     0.55086   0.01988   0.83521   0.00000  Uiso   1.00
H658   H     0.59102   0.04114   0.85236   0.00000  Uiso   1.00
H659   H     0.53581   0.31312   0.85061   0.00000  Uiso   1.00
H660   H     0.51294   0.04193   0.84686   0.00000  Uiso   1.00
C661   C     0.84768   0.26652   0.75342   0.00000  Uiso   1.00
C662   C     0.81069   0.15142   0.98375   0.00000  Uiso   1.00
C663   C     0.82381   0.17331   0.93554   0.00000  Uiso   1.00
C664   C     0.85519   0.16589   0.51584   0.00000  Uiso   1.00
C665   C     0.91637   0.19290   0.99624   0.00000  Uiso   1.00
C666   C     0.92786   0.21623   0.94952   0.00000  Uiso   1.00
C667   C     0.88032   0.20997   0.92186   0.00000  Uiso   1.00
C668   C     0.83958   0.15712   0.56768   0.00000  Uiso   1.00
C669   C     0.94827   0.17750   0.57382   0.00000  Uiso   1.00
C670   C     0.78109   0.15667   0.90180   0.00000  Uiso   1.00
C671   C     0.85365   0.32222   0.76083   0.00000  Uiso   1.00
C672   C     0.80040   0.16457   0.84696   0.00000  Uiso   1.00
C673   C     0.81232   0.01096   0.74560   0.00000  Uiso   1.00
C674   C     0.81856   0.06674   0.74838   0.00000  Uiso   1.00
C675   C     0.86618   0.16723   0.65311   0.00000  Uiso   1.00
C676   C     0.96387   0.19712   0.52469   0.00000  Uiso   1.00
C677   C     0.88528   0.16675   0.59765   0.00000  Uiso   1.00
C678   C     0.72405   0.12228   0.91838   0.00000  Uiso   1.00
C679   C     0.71191   0.10012   0.96540   0.00000  Uiso   1.00
C680   C     0.75560   0.11312   0.99706   0.00000  Uiso   1.00
Cu681  Cu    0.77377   0.16105   0.74436   0.00000  Uiso   1.00
Cu682  Cu    0.89290   0.17228   0.75564   0.00000  Uiso   1.00
H683   H     0.99766   0.12971   0.70801   0.00000  Uiso   1.00
H684   H     0.79153   0.14546   0.58544   0.00000  Uiso   1.00
H685   H     0.74731   0.09101   0.53073   0.00000  Uiso   1.00
H686   H     0.66964   0.07085   0.97633   0.00000  Uiso   1.00
H687   H     0.88851   0.23332   0.88927   0.00000  Uiso   1.00
N688   N     0.98241   0.18074   0.76416   0.00000  Uiso   1.00
N689   N     0.68426   0.15259   0.73584   0.00000  Uiso   1.00
O690   O     0.79464   0.23807   0.74633   0.00000  Uiso   1.00
O691   O     0.89524   0.24755   0.75587   0.00000  Uiso   1.00
O692   O     0.75848   0.15960   0.81840   0.00000  Uiso   1.00
O693   O     0.85908   0.16908   0.82793   0.00000  Uiso   1.00
O694   O     0.77142   0.08578   0.74414   0.00000  Uiso   1.00
O695   O     0.87203   0.09526   0.75367   0.00000  Uiso   1.00
O696   O     0.80758   0.16425   0.67207   0.00000  Uiso   1.00
O697   O     0.90819   0.17373   0.68160   0.00000  Uiso   1.00
O698   O     0.99448   0.16912   0.59747   0.00000  Uiso   1.00
C699   C     0.98502   0.11432   0.60415   0.00000  Uiso   1.00
H700   H     0.94444   0.09989   0.63410   0.00000  Uiso   1.00
H701   H     0.69262   0.10614   0.61650   0.00000  Uiso   1.00
H702   H     0.97823   0.09059   0.56865   0.00000  Uiso   1.00
H703   H     0.77418   0.32095   0.72894   0.00000  Uiso   1.00
O704   O     0.67292   0.20626   0.80371   0.00000  Uiso   1.00
C705   C     0.66863   0.25914   0.80391   0.00000  Uiso   1.00
H706   H     0.95582   0.26451   0.82373   0.00000  Uiso   1.00
H707   H     0.67859   0.27424   0.76505   0.00000  Uiso   1.00
H708   H     0.70344   0.28342   0.82511   0.00000  Uiso   1.00
H709   H     0.97262   0.24109   0.93526   0.00000  Uiso   1.00
O710   O     0.69207   0.21499   0.50248   0.00000  Uiso   1.00
C711   C     0.71376   0.26556   0.52334   0.00000  Uiso   1.00
H712   H     0.71536   0.26428   0.56422   0.00000  Uiso   1.00
H713   H     0.68499   0.29353   0.51786   0.00000  Uiso   1.00
H714   H     0.76192   0.28086   0.50330   0.00000  Uiso   1.00
H715   H     0.69093   0.10890   0.89329   0.00000  Uiso   1.00
O716   O     0.90307   0.01784   0.78200   0.00000  Uiso   1.00
C717   C     0.88419   0.01988   0.83521   0.00000  Uiso   1.00
H718   H     0.92436   0.04114   0.85236   0.00000  Uiso   1.00
H719   H     0.86914   0.31312   0.85061   0.00000  Uiso   1.00
H720   H     0.84627   0.04193   0.84686   0.00000  Uiso   1.00
C721   C     0.18102   0.59986   0.75342   0.00000  Uiso   1.00
C722   C     0.14403   0.48476   0.98375   0.00000  Uiso   1.00
C723   C     0.15715   0.50665   0.93554   0.00000  Uiso   1.00
C724   C     0.18852   0.49922   0.51584   0.00000  Uiso   1.00
C725   C     0.24971   0.52623   0.99624   0.00000  Uiso   1.00
C726   C     0.26120   0.54957   0.94952   0.00000  Uiso   1.00
C727   C     0.21366   0.54330   0.92186   0.00000  Uiso   1.00
C728   C     0.17292   0.49045   0.56768   0.00000  Uiso   1.00
C729   C     0.28161   0.51083   0.57382   0.00000  Uiso   1.00
C730   C     0.11443   0.49001   0.90180   0.00000  Uiso   1.00
C731   C     0.18698   0.65556   0.76083   0.00000  Uiso   1.00
C732   C     0.13374   0.49791   0.84696   0.00000  Uiso   1.00
C733   C     0.14565   0.34429   0.74560   0.00000  Uiso   1.00
C734   C     0.15190   0.40008   0.74838   0.00000  Uiso   1.00
C735   C     0.19951   0.50057   0.65311   0.00000  Uiso   1.00
C736   C     0.29721   0.53046   0.52469   0.00000  Uiso   1.00
C737   C     0.21861   0.50008   0.59765   0.00000  Uiso   1.00
C738   C     0.05738   0.45561   0.91838   0.00000  Uiso   1.00
C739   C     0.04524   0.43345   0.96540   0.00000  Uiso   1.00
C740   C     0.08893   0.44645   0.99706   0.00000  Uiso   1.00
Cu741  Cu    0.10710   0.49439   0.74436   0.00000  Uiso   1.00
Cu742  Cu    0.22623   0.50561   0.75564   0.00000  Uiso   1.00
H743   H     0.33100   0.46304   0.70801   0.00000  Uiso   1.00
H744   H     0.12486   0.47879   0.58544   0.00000  Uiso   1.00
H745   H     0.08065   0.42435   0.53073   0.00000  Uiso   1.00
H746   H     0.00297   0.40418   0.97633   0.00000  Uiso   1.00
H747   H     0.22184   0.56665   0.88927   0.00000  Uiso   1.00
N748   N     0.31574   0.51407   0.76416   0.00000  Uiso   1.00
N749   N     0.01759   0.48593   0.73584   0.00000  Uiso   1.00
O750   O     0.12797   0.57141   0.74633   0.00000  Uiso   1.00
O751   O     0.22858   0.58089   0.75587   0.00000  Uiso   1.00
O752   O     0.09181   0.49293   0.81840   0.00000  Uiso   1.00
O753   O     0.19242   0.50241   0.82793   0.00000  Uiso   1.00
O754   O     0.10476   0.41911   0.74414   0.00000  Uiso   1.00
O755   O     0.20536   0.42859   0.75367   0.00000  Uiso   1.00
O756   O     0.14092   0.49759   0.67207   0.00000  Uiso   1.00
O757   O     0.24152   0.50707   0.68160   0.00000  Uiso   1.00
O758   O     0.32781   0.50246   0.59747   0.00000  Uiso   1.00
C759   C     0.31835   0.44765   0.60415   0.00000  Uiso   1.00
H760   H     0.27777   0.43322   0.63410   0.00000  Uiso   1.00
H761   H     0.02596   0.43947   0.61650   0.00000  Uiso   1.00
H762   H     0.31157   0.42392   0.56865   0.00000  Uiso   1.00
H763   H     0.10751   0.65428   0.72894   0.00000  Uiso   1.00
O764   O     0.00625   0.53960   0.80371   0.00000  Uiso   1.00
C765   C     0.00196   0.59247   0.80391   0.00000  Uiso   1.00
H766   H     0.28915   0.59784   0.82373   0.00000  Uiso   1.00
H767   H     0.01193   0.60758   0.76505   0.00000  Uiso   1.00
H768   H     0.03677   0.61675   0.82511   0.00000  Uiso   1.00
H769   H     0.30596   0.57442   0.93526   0.00000  Uiso   1.00
O770   O     0.02541   0.54832   0.50248   0.00000  Uiso   1.00
C771   C     0.04709   0.59889   0.52334   0.00000  Uiso   1.00
H772   H     0.04870   0.59761   0.56422   0.00000  Uiso   1.00
H773   H     0.01832   0.62686   0.51786   0.00000  Uiso   1.00
H774   H     0.09526   0.61419   0.50330   0.00000  Uiso   1.00
H775   H     0.02426   0.44223   0.89329   0.00000  Uiso   1.00
O776   O     0.23641   0.35118   0.78200   0.00000  Uiso   1.00
C777   C     0.21752   0.35321   0.83521   0.00000  Uiso   1.00
H778   H     0.25769   0.37447   0.85236   0.00000  Uiso   1.00
H779   H     0.20247   0.64645   0.85061   0.00000  Uiso   1.00
H780   H     0.17960   0.37526   0.84686   0.00000  Uiso   1.00
C781   C     0.51435   0.59986   0.75342   0.00000  Uiso   1.00
C782   C     0.47736   0.48476   0.98375   0.00000  Uiso   1.00
C783   C     0.49048   0.50665   0.93554   0.00000  Uiso   1.00
C784   C     0.52186   0.49922   0.51584   0.00000  Uiso   1.00
C785   C     0.58304   0.52623   0.99624   0.00000  Uiso   1.00
C786   C     0.59453   0.54957   0.94952   0.00000  Uiso   1.00
C787   C     0.54699   0.54330   0.92186   0.00000  Uiso   1.00
C788   C     0.50625   0.49045   0.56768   0.00000  Uiso   1.00
C789   C     0.61494   0.51083   0.57382   0.00000  Uiso   1.00
C790   C     0.44776   0.49001   0.90180   0.00000  Uiso   1.00
C791   C     0.52032   0.65556   0.76083   0.00000  Uiso   1.00
C792   C     0.46707   0.49791   0.84696   0.00000  Uiso   1.00
C793   C     0.47899   0.34429   0.74560   0.00000  Uiso   1.00
C794   C     0.48523   0.40008   0.74838   0.00000  Uiso   1.00
C795   C     0.53284   0.50057   0.65311   0.00000  Uiso   1.00
C796   C     0.63054   0.53046   0.52469   0.00000  Uiso   1.00
C797   C     0.55194   0.50008   0.59765   0.00000  Uiso   1.00
C798   C     0.39071   0.45561   0.91838   0.00000  Uiso   1.00
C799   C     0.37858   0.43345   0.96540   0.00000  Uiso   1.00
C800   C     0.42227   0.44645   0.99706   0.00000  Uiso   1.00
Cu801  Cu    0.44043   0.49439   0.74436   0.00000  Uiso   1.00
Cu802  Cu    0.55957   0.50561   0.75564   0.00000  Uiso   1.00
H803   H     0.66433   0.46304   0.70801   0.00000  Uiso   1.00
H804   H     0.45819   0.47879   0.58544   0.00000  Uiso   1.00
H805   H     0.41398   0.42435   0.53073   0.00000  Uiso   1.00
H806   H     0.33630   0.40418   0.97633   0.00000  Uiso   1.00
H807   H     0.55518   0.56665   0.88927   0.00000  Uiso   1.00
N808   N     0.64908   0.51407   0.76416   0.00000  Uiso   1.00
N809   N     0.35092   0.48593   0.73584   0.00000  Uiso   1.00
O810   O     0.46131   0.57141   0.74633   0.00000  Uiso   1.00
O811   O     0.56191   0.58089   0.75587   0.00000  Uiso   1.00
O812   O     0.42515   0.49293   0.81840   0.00000  Uiso   1.00
O813   O     0.52575   0.50241   0.82793   0.00000  Uiso   1.00
O814   O     0.43809   0.41911   0.74414   0.00000  Uiso   1.00
O815   O     0.53869   0.42859   0.75367   0.00000  Uiso   1.00
O816   O     0.47425   0.49759   0.67207   0.00000  Uiso   1.00
O817   O     0.57485   0.50707   0.68160   0.00000  Uiso   1.00
O818   O     0.66115   0.50246   0.59747   0.00000  Uiso   1.00
C819   C     0.65168   0.44765   0.60415   0.00000  Uiso   1.00
H820   H     0.61111   0.43322   0.63410   0.00000  Uiso   1.00
H821   H     0.35929   0.43947   0.61650   0.00000  Uiso   1.00
H822   H     0.64490   0.42392   0.56865   0.00000  Uiso   1.00
H823   H     0.44085   0.65428   0.72894   0.00000  Uiso   1.00
O824   O     0.33959   0.53960   0.80371   0.00000  Uiso   1.00
C825   C     0.33529   0.59247   0.80391   0.00000  Uiso   1.00
H826   H     0.62249   0.59784   0.82373   0.00000  Uiso   1.00
H827   H     0.34526   0.60758   0.76505   0.00000  Uiso   1.00
H828   H     0.37011   0.61675   0.82511   0.00000  Uiso   1.00
H829   H     0.63929   0.57442   0.93526   0.00000  Uiso   1.00
O830   O     0.35874   0.54832   0.50248   0.00000  Uiso   1.00
C831   C     0.38043   0.59889   0.52334   0.00000  Uiso   1.00
H832   H     0.38203   0.59761   0.56422   0.00000  Uiso   1.00
H833   H     0.35165   0.62686   0.51786   0.00000  Uiso   1.00
H834   H     0.42859   0.61419   0.50330   0.00000  Uiso   1.00
H835   H     0.35759   0.44223   0.89329   0.00000  Uiso   1.00
O836   O     0.56974   0.35118   0.78200   0.00000  Uiso   1.00
C837   C     0.55086   0.35321   0.83521   0.00000  Uiso   1.00
H838   H     0.59102   0.37447   0.85236   0.00000  Uiso   1.00
H839   H     0.53581   0.64645   0.85061   0.00000  Uiso   1.00
H840   H     0.51294   0.37526   0.84686   0.00000  Uiso   1.00
C841   C     0.84768   0.59986   0.75342   0.00000  Uiso   1.00
C842   C     0.81069   0.48476   0.98375   0.00000  Uiso   1.00
C843   C     0.82381   0.50665   0.93554   0.00000  Uiso   1.00
C844   C     0.85519   0.49922   0.51584   0.00000  Uiso   1.00
C845   C     0.91637   0.52623   0.99624   0.00000  Uiso   1.00
C846   C     0.92786   0.54957   0.94952   0.00000  Uiso   1.00
C847   C     0.88032   0.54330   0.92186   0.00000  Uiso   1.00
C848   C     0.83958   0.49045   0.56768   0.00000  Uiso   1.00
C849   C     0.94827   0.51083   0.57382   0.00000  Uiso   1.00
C850   C     0.78109   0.49001   0.90180   0.00000  Uiso   1.00
C851   C     0.85365   0.65556   0.76083   0.00000  Uiso   1.00
C852   C     0.80040   0.49791   0.84696   0.00000  Uiso   1.00
C853   C     0.81232   0.34429   0.74560   0.00000  Uiso   1.00
C854   C     0.81856   0.40008   0.74838   0.00000  Uiso   1.00
C855   C     0.86618   0.50057   0.65311   0.00000  Uiso   1.00
C856   C     0.96387   0.53046   0.52469   0.00000  Uiso   1.00
C857   C     0.88528   0.50008   0.59765   0.00000  Uiso   1.00
C858   C     0.72405   0.45561   0.91838   0.00000  Uiso   1.00
C859   C     0.71191   0.43345   0.96540   0.00000  Uiso   1.00
C860   C     0.75560   0.44645   0.99706   0.00000  Uiso   1.00
Cu861  Cu    0.77377   0.49439   0.74436   0.00000  Uiso   1.00
Cu862  Cu    0.89290   0.50561   0.75564   0.00000  Uiso   1.00
H863   H     0.99766   0.46304   0.70801   0.00000  Uiso   1.00
H864   H     0.79153   0.47879   0.58544   0.00000  Uiso   1.00
H865   H     0.74731   0.42435   0.53073   0.00000  Uiso   1.00
H866   H     0.66964   0.40418   0.97633   0.00000  Uiso   1.00
H867   H     0.88851   0.56665   0.88927   0.00000  Uiso   1.00
N868   N     0.98241   0.51407   0.76416   0.00000  Uiso   1.00
N869   N     0.68426   0.48593   0.73584   0.00000  Uiso   1.00
O870   O     0.79464   0.57141   0.74633   0.00000  Uiso   1.00
O871   O     0.89524   0.58089   0.75587   0.00000  Uiso   1.00
O872   O     0.75848   0.49293   0.81840   0.00000  Uiso   1.00
O873   O     0.85908   0.50241   0.82793   0.00000  Uiso   1.00
O874   O     0.77142   0.41911   0.74414   0.00000  Uiso   1.00
O875   O     0.87203   0.42859   0.75367   0.00000  Uiso   1.00
O876   O     0.80758   0.49759   0.67207   0.00000  Uiso   1.00
O877   O     0.90819   0.50707   0.68160   0.00000  Uiso   1.00
O878   O     0.99448   0.50246   0.59747   0.00000  Uiso   1.00
C879   C     0.98502   0.44765   0.60415   0.00000  Uiso   1.00
H880   H     0.94444   0.43322   0.63410   0.00000  Uiso   1.00
H881   H     0.69262   0.43947   0.61650   0.00000  Uiso   1.00
H882   H     0.97823   0.42392   0.56865   0.00000  Uiso   1.00
H883   H     0.77418   0.65428   0.72894   0.00000  Uiso   1.00
O884   O     0.67292   0.53960   0.80371   0.00000  Uiso   1.00
C885   C     0.66863   0.59247   0.80391   0.00000  Uiso   1.00
H886   H     0.95582   0.59784   0.82373   0.00000  Uiso   1.00
H887   H     0.67859   0.60758   0.76505   0.00000  Uiso   1.00
H888   H     0.70344   0.61675   0.82511   0.00000  Uiso   1.00
H889   H     0.97262   0.57442   0.93526   0.00000  Uiso   1.00
O890   O     0.69207   0.54832   0.50248   0.00000  Uiso   1.00
C891   C     0.71376   0.59889   0.52334   0.00000  Uiso   1.00
H892   H     0.71536   0.59761   0.56422   0.00000  Uiso   1.00
H893   H     0.68499   0.62686   0.51786   0.00000  Uiso   1.00
H894   H     0.76192   0.61419   0.50330   0.00000  Uiso   1.00
H895   H     0.69093   0.44223   0.89329   0.00000  Uiso   1.00
O896   O     0.90307   0.35118   0.78200   0.00000  Uiso   1.00
C897   C     0.88419   0.35321   0.83521   0.00000  Uiso   1.00
H898   H     0.92436   0.37447   0.85236   0.00000  Uiso   1.00
H899   H     0.86914   0.64645   0.85061   0.00000  Uiso   1.00
H900   H     0.84627   0.37526   0.84686   0.00000  Uiso   1.00
C901   C     0.18102   0.93319   0.75342   0.00000  Uiso   1.00
C902   C     0.14403   0.81809   0.98375   0.00000  Uiso   1.00
C903   C     0.15715   0.83998   0.93554   0.00000  Uiso   1.00
C904   C     0.18852   0.83256   0.51584   0.00000  Uiso   1.00
C905   C     0.24971   0.85956   0.99624   0.00000  Uiso   1.00
C906   C     0.26120   0.88290   0.94952   0.00000  Uiso   1.00
C907   C     0.21366   0.87663   0.92186   0.00000  Uiso   1.00
C908   C     0.17292   0.82379   0.56768   0.00000  Uiso   1.00
C909   C     0.28161   0.84417   0.57382   0.00000  Uiso   1.00
C910   C     0.11443   0.82334   0.90180   0.00000  Uiso   1.00
C911   C     0.18698   0.98889   0.76083   0.00000  Uiso   1.00
C912   C     0.13374   0.83124   0.84696   0.00000  Uiso   1.00
C913   C     0.14565   0.67763   0.74560   0.00000  Uiso   1.00
C914   C     0.15190   0.73341   0.74838   0.00000  Uiso   1.00
C915   C     0.19951   0.83390   0.65311   0.00000  Uiso   1.00
C916   C     0.29721   0.86379   0.52469   0.00000  Uiso   1.00
C917   C     0.21861   0.83342   0.59765   0.00000  Uiso   1.00
C918   C     0.05738   0.78895   0.91838   0.00000  Uiso   1.00
C919   C     0.04524   0.76679   0.96540   0.00000  Uiso   1.00
C920   C     0.08893   0.77978   0.99706   0.00000  Uiso   1.00
Cu921  Cu    0.10710   0.82772   0.74436   0.00000  Uiso   1.00
Cu922  Cu    0.22623   0.83895   0.75564   0.00000  Uiso   1.00
H923   H     0.33100   0.79637   0.70801   0.00000  Uiso   1.00
H924   H     0.12486   0.81212   0.58544   0.00000  Uiso   1.00
H925   H     0.08065   0.75768   0.53073   0.00000  Uiso   1.00
H926   H     0.00297   0.73751   0.97633   0.00000  Uiso   1.00
H927   H     0.22184   0.89998   0.88927   0.00000  Uiso   1.00
N928   N     0.31574   0.84741   0.76416   0.00000  Uiso   1.00
N929   N     0.01759   0.81926   0.73584   0.00000  Uiso   1.00
O930   O     0.12797   0.90474   0.74633   0.00000  Uiso   1.00
O931   O     0.22858   0.91422   0.75587   0.00000  Uiso   1.00
O932   O     0.09181   0.82627   0.81840   0.00000  Uiso   1.00
O933   O     0.19242   0.83575   0.82793   0.00000  Uiso   1.00
O934   O     0.10476   0.75245   0.74414   0.00000  Uiso   1.00
O935   O     0.20536   0.76193   0.75367   0.00000  Uiso   1.00
O936   O     0.14092   0.83092   0.67207   0.00000  Uiso   1.00
O937   O     0.24152   0.84040   0.68160   0.00000  Uiso   1.00
O938   O     0.32781   0.83579   0.59747   0.00000  Uiso   1.00
C939   C     0.31835   0.78099   0.60415   0.00000  Uiso   1.00
H940   H     0.27777   0.76655   0.63410   0.00000  Uiso   1.00
H941   H     0.02596   0.77280   0.61650   0.00000  Uiso   1.00
H942   H     0.31157   0.75725   0.56865   0.00000  Uiso   1.00
H943   H     0.10751   0.98761   0.72894   0.00000  Uiso   1.00
O944   O     0.00625   0.87293   0.80371   0.00000  Uiso   1.00
C945   C     0.00196   0.92581   0.80391   0.00000  Uiso   1.00
H946   H     0.28915   0.93118   0.82373   0.00000  Uiso   1.00
H947   H     0.01193   0.94091   0.76505   0.00000  Uiso   1.00
H948   H     0.03677   0.95008   0.82511   0.00000  Uiso   1.00
H949   H     0.30596   0.90776   0.93526   0.00000  Uiso   1.00
O950   O     0.02541   0.88166   0.50248   0.00000  Uiso   1.00
C951   C     0.04709   0.93222   0.52334   0.00000  Uiso   1.00
H952   H     0.04870   0.93094   0.56422   0.00000  Uiso   1.00
H953   H     0.01832   0.96019   0.51786   0.00000  Uiso   1.00
H954   H     0.09526   0.94752   0.50330   0.00000  Uiso   1.00
H955   H     0.02426   0.77557   0.89329   0.00000  Uiso   1.00
O956   O     0.23641   0.68451   0.78200   0.00000  Uiso   1.00
C957   C     0.21752   0.68654   0.83521   0.00000  Uiso   1.00
H958   H     0.25769   0.70780   0.85236   0.00000  Uiso   1.00
H959   H     0.20247   0.97978   0.85061   0.00000  Uiso   1.00
H960   H     0.17960   0.70859   0.84686   0.00000  Uiso   1.00
C961   C     0.51435   0.93319   0.75342   0.00000  Uiso   1.00
C962   C     0.47736   0.81809   0.98375   0.00000  Uiso   1.00
C963   C     0.49048   0.83998   0.93554   0.00000  Uiso   1.00
C964   C     0.52186   0.83256   0.51584   0.00000  Uiso   1.00
C965   C     0.58304   0.85956   0.99624   0.00000  Uiso   1.00
C966   C     0.59453   0.88290   0.94952   0.00000  Uiso   1.00
C967   C     0.54699   0.87663   0.92186   0.00000  Uiso   1.00
C968   C     0.50625   0.82379   0.56768   0.00000  Uiso   1.00
C969   C     0.61494   0.84417   0.57382   0.00000  Uiso   1.00
C970   C     0.44776   0.82334   0.90180   0.00000  Uiso   1.00
C971   C     0.52032   0.98889   0.76083   0.00000  Uiso   1.00
C972   C     0.46707   0.83124   0.84696   0.00000  Uiso   1.00
C973   C     0.47899   0.67763   0.74560   0.00000  Uiso   1.00
C974   C     0.48523   0.73341   0.74838   0.00000  Uiso   1.00
C975   C     0.53284   0.83390   0.65311   0.00000  Uiso   1.00
C976   C     0.63054   0.86379   0.52469   0.00000  Uiso   1.00
C977   C     0.55194   0.83342   0.59765   0.00000  Uiso   1.00
C978   C     0.39071   0.78895   0.91838   0.00000  Uiso   1.00
C979   C     0.37858   0.76679   0.96540   0.00000  Uiso   1.00
C980   C     0.42227   0.77978   0.99706   0.00000  Uiso   1.00
Cu981  Cu    0.44043   0.82772   0.74436   0.00000  Uiso   1.00
Cu982  Cu    0.55957   0.83895   0.75564   0.00000  Uiso   1.00
H983   H     0.66433   0.79637   0.70801   0.00000  Uiso   1.00
H984   H     0.45819   0.81212   0.58544   0.00000  Uiso   1.00
H985   H     0.41398   0.75768   0.53073   0.00000  Uiso   1.00
H986   H     0.33630   0.73751   0.97633   0.00000  Uiso   1.00
H987   H     0.55518   0.89998   0.88927   0.00000  Uiso   1.00
N988   N     0.64908   0.84741   0.76416   0.00000  Uiso   1.00
N989   N     0.35092   0.81926   0.73584   0.00000  Uiso   1.00
O990   O     0.46131   0.90474   0.74633   0.00000  Uiso   1.00
O991   O     0.56191   0.91422   0.75587   0.00000  Uiso   1.00
O992   O     0.42515   0.82627   0.81840   0.00000  Uiso   1.00
O993   O     0.52575   0.83575   0.82793   0.00000  Uiso   1.00
O994   O     0.43809   0.75245   0.74414   0.00000  Uiso   1.00
O995   O     0.53869   0.76193   0.75367   0.00000  Uiso   1.00
O996   O     0.47425   0.83092   0.67207   0.00000  Uiso   1.00
O997   O     0.57485   0.84040   0.68160   0.00000  Uiso   1.00
O998   O     0.66115   0.83579   0.59747   0.00000  Uiso   1.00
C999   C     0.65168   0.78099   0.60415   0.00000  Uiso   1.00
H1000  H     0.61111   0.76655   0.63410   0.00000  Uiso   1.00
H1001  H     0.35929   0.77280   0.61650   0.00000  Uiso   1.00
H1002  H     0.64490   0.75725   0.56865   0.00000  Uiso   1.00
H1003  H     0.44085   0.98761   0.72894   0.00000  Uiso   1.00
O1004  O     0.33959   0.87293   0.80371   0.00000  Uiso   1.00
C1005  C     0.33529   0.92581   0.80391   0.00000  Uiso   1.00
H1006  H     0.62249   0.93118   0.82373   0.00000  Uiso   1.00
H1007  H     0.34526   0.94091   0.76505   0.00000  Uiso   1.00
H1008  H     0.37011   0.95008   0.82511   0.00000  Uiso   1.00
H1009  H     0.63929   0.90776   0.93526   0.00000  Uiso   1.00
O1010  O     0.35874   0.88166   0.50248   0.00000  Uiso   1.00
C1011  C     0.38043   0.93222   0.52334   0.00000  Uiso   1.00
H1012  H     0.38203   0.93094   0.56422   0.00000  Uiso   1.00
H1013  H     0.35165   0.96019   0.51786   0.00000  Uiso   1.00
H1014  H     0.42859   0.94752   0.50330   0.00000  Uiso   1.00
H1015  H     0.35759   0.77557   0.89329   0.00000  Uiso   1.00
O1016  O     0.56974   0.68451   0.78200   0.00000  Uiso   1.00
C1017  C     0.55086   0.68654   0.83521   0.00000  Uiso   1.00
H1018  H     0.59102   0.70780   0.85236   0.00000  Uiso   1.00
H1019  H     0.53581   0.97978   0.85061   0.00000  Uiso   1.00
H1020  H     0.51294   0.70859   0.84686   0.00000  Uiso   1.00
C1021  C     0.84768   0.93319   0.75342   0.00000  Uiso   1.00
C1022  C     0.81069   0.81809   0.98375   0.00000  Uiso   1.00
C1023  C     0.82381   0.83998   0.93554   0.00000  Uiso   1.00
C1024  C     0.85519   0.83256   0.51584   0.00000  Uiso   1.00
C1025  C     0.91637   0.85956   0.99624   0.00000  Uiso   1.00
C1026  C     0.92786   0.88290   0.94952   0.00000  Uiso   1.00
C1027  C     0.88032   0.87663   0.92186   0.00000  Uiso   1.00
C1028  C     0.83958   0.82379   0.56768   0.00000  Uiso   1.00
C1029  C     0.94827   0.84417   0.57382   0.00000  Uiso   1.00
C1030  C     0.78109   0.82334   0.90180   0.00000  Uiso   1.00
C1031  C     0.85365   0.98889   0.76083   0.00000  Uiso   1.00
C1032  C     0.80040   0.83124   0.84696   0.00000  Uiso   1.00
C1033  C     0.81232   0.67763   0.74560   0.00000  Uiso   1.00
C1034  C     0.81856   0.73341   0.74838   0.00000  Uiso   1.00
C1035  C     0.86618   0.83390   0.65311   0.00000  Uiso   1.00
C1036  C     0.96387   0.86379   0.52469   0.00000  Uiso   1.00
C1037  C     0.88528   0.83342   0.59765   0.00000  Uiso   1.00
C1038  C     0.72405   0.78895   0.91838   0.00000  Uiso   1.00
C1039  C     0.71191   0.76679   0.96540   0.00000  Uiso   1.00
C1040  C     0.75560   0.77978   0.99706   0.00000  Uiso   1.00
Cu1041 Cu    0.77377   0.82772   0.74436   0.00000  Uiso   1.00
Cu1042 Cu    0.89290   0.83895   0.75564   0.00000  Uiso   1.00
H1043  H     0.99766   0.79637   0.70801   0.00000  Uiso   1.00
H1044  H     0.79153   0.81212   0.58544   0.00000  Uiso   1.00
H1045  H     0.74731   0.75768   0.53073   0.00000  Uiso   1.00
H1046  H     0.66964   0.73751   0.97633   0.00000  Uiso   1.00
H1047  H     0.88851   0.89998   0.88927   0.00000  Uiso   1.00
N1048  N     0.98241   0.84741   0.76416   0.00000  Uiso   1.00
N1049  N     0.68426   0.81926   0.73584   0.00000  Uiso   1.00
O1050  O     0.79464   0.90474   0.74633   0.00000  Uiso   1.00
O1051  O     0.89524   0.91422   0.75587   0.00000  Uiso   1.00
O1052  O     0.75848   0.82627   0.81840   0.00000  Uiso   1.00
O1053  O     0.85908   0.83575   0.82793   0.00000  Uiso   1.00
O1054  O     0.77142   0.75245   0.74414   0.00000  Uiso   1.00
O1055  O     0.87203   0.76193   0.75367   0.00000  Uiso   1.00
O1056  O     0.80758   0.83092   0.67207   0.00000  Uiso   1.00
O1057  O     0.90819   0.84040   0.68160   0.00000  Uiso   1.00
O1058  O     0.99448   0.83579   0.59747   0.00000  Uiso   1.00
C1059  C     0.98502   0.78099   0.60415   0.00000  Uiso   1.00
H1060  H     0.94444   0.76655   0.63410   0.00000  Uiso   1.00
H1061  H     0.69262   0.77280   0.61650   0.00000  Uiso   1.00
H1062  H     0.97823   0.75725   0.56865   0.00000  Uiso   1.00
H1063  H     0.77418   0.98761   0.72894   0.00000  Uiso   1.00
O1064  O     0.67292   0.87293   0.80371   0.00000  Uiso   1.00
C1065  C     0.66863   0.92581   0.80391   0.00000  Uiso   1.00
H1066  H     0.95582   0.93118   0.82373   0.00000  Uiso   1.00
H1067  H     0.67859   0.94091   0.76505   0.00000  Uiso   1.00
H1068  H     0.70344   0.95008   0.82511   0.00000  Uiso   1.00
H1069  H     0.97262   0.90776   0.93526   0.00000  Uiso   1.00
O1070  O     0.69207   0.88166   0.50248   0.00000  Uiso   1.00
C1071  C     0.71376   0.93222   0.52334   0.00000  Uiso   1.00
H1072  H     0.71536   0.93094   0.56422   0.00000  Uiso   1.00
H1073  H     0.68499   0.96019   0.51786   0.00000  Uiso   1.00
H1074  H     0.76192   0.94752   0.50330   0.00000  Uiso   1.00
H1075  H     0.69093   0.77557   0.89329   0.00000  Uiso   1.00
O1076  O     0.90307   0.68451   0.78200   0.00000  Uiso   1.00
C1077  C     0.88419   0.68654   0.83521   0.00000  Uiso   1.00
H1078  H     0.92436   0.70780   0.85236   0.00000  Uiso   1.00
H1079  H     0.86914   0.97978   0.85061   0.00000  Uiso   1.00
H1080  H     0.84627   0.70859   0.84686   0.00000  Uiso   1.00
loop_
_geom_bond_atom_site_label_1
_geom_bond_atom_site_label_2
_geom_bond_distance
_geom_bond_site_symmetry_2
_ccdc_geom_bond_type
C1     C11     1.430   .     S
C1     O31     1.289   .     A
C1     O30     1.294   .     A
C2     C3      1.413   .     A
C2     C20     1.409   .     A
C2     C544    1.416   .     S
C3     C10     1.423   .     A
C3     C7      1.410   .     A
C4     C8      1.395   .     A
C4     C542    1.416   1_554 S
C4     C545    1.415   1_554 S
C5     C6      1.396   .     A
C5     C544    1.415   .     S
C5     C556    1.412   .     S
C6     C7      1.392   .     A
C6     H49     1.083   .     S
C7     H27     1.073   .     S
C8     H24     1.076   .     S
C8     C17     1.395   .     A
C9     C17     1.408   .     A
C9     C16     1.409   .     A
C9     O38     1.385   .     S
C10    C12     1.472   .     S
C10    C18     1.403   .     A
C11    C193    1.339   .     S
C11    O236    1.388   .     S
C12    O32     1.308   .     A
C12    O33     1.298   .     A
C13    C14     1.428   .     S
C13    C371    1.339   1_545 S
C13    H403    1.085   1_545 S
C14    O34     1.294   .     A
C14    O35     1.289   .     A
C15    O36     1.301   .     A
C15    C17     1.469   .     S
C15    O37     1.304   .     A
C16    C545    1.412   1_554 S
C16    O110    1.383   .     S
C18    H55     1.083   .     S
C18    C19     1.388   .     A
C19    C20     1.392   .     A
C19    H26     1.082   .     S
C20    H565    1.078   .     S
Cu21   O30     1.957   .     S
Cu21   O32     1.957   .     S
Cu21   O36     1.945   .     S
Cu21   O34     1.953   .     S
Cu21   Cu22    2.700   .     S
Cu21   N29     2.029   .     S
Cu22   N28     2.029   .     S
Cu22   O35     1.957   .     S
Cu22   O31     1.953   .     S
Cu22   O33     1.945   .     S
Cu22   O37     1.957   .     S
H23    N89     1.027   .     S
H25    C560    1.078   1_554 S
N28    N89     1.294   .     S
N28    O104    1.345   .     S
N29    N148    1.294   1_455 S
N29    H143    1.027   1_455 S
O38    C39     1.419   .     S
C39    H42     1.111   .     S
C39    H40     1.108   .     S
C39    H101    1.106   .     S
H41    C159    1.106   1_455 S
H43    C193    1.085   .     S
O44    C45     1.404   .     S
O44    N148    1.345   1_455 S
C45    H47     1.112   .     S
C45    H48     1.109   .     S
C45    H166    1.101   1_455 S
H46    C105    1.101   .     S
O50    C51     1.410   .     S
O50    C136    1.383   1_455 S
C51    H54     1.109   .     S
C51    H52     1.112   .     S
C51    H53     1.114   .     S
O56    C57     1.411   .     S
O56    C371    1.388   1_545 S
C57    H58     1.109   .     S
C57    H60     1.113   .     S
C57    H419    1.113   1_545 S
H59    C237    1.113   .     S
C61    C71     1.430   .     S
C61    O91     1.289   .     A
C61    O90     1.294   .     A
C62    C63     1.413   .     A
C62    C80     1.409   .     A
C62    C604    1.416   .     S
C63    C70     1.423   .     A
C63    C67     1.410   .     A
C64    C68     1.395   .     A
C64    C602    1.416   1_554 S
C64    C605    1.415   1_554 S
C65    C66     1.396   .     A
C65    C604    1.415   .     S
C65    C616    1.412   .     S
C66    C67     1.392   .     A
C66    H109    1.083   .     S
C67    H87     1.073   .     S
C68    H84     1.076   .     S
C68    C77     1.395   .     A
C69    C77     1.408   .     A
C69    C76     1.409   .     A
C69    O98     1.385   .     S
C70    C72     1.472   .     S
C70    C78     1.403   .     A
C71    C253    1.339   .     S
C71    O296    1.388   .     S
C72    O92     1.308   .     A
C72    O93     1.298   .     A
C73    C74     1.428   .     S
C73    C431    1.339   1_545 S
C73    H463    1.085   1_545 S
C74    O94     1.294   .     A
C74    O95     1.289   .     A
C75    O96     1.301   .     A
C75    C77     1.469   .     S
C75    O97     1.304   .     A
C76    C605    1.412   1_554 S
C76    O170    1.383   .     S
C78    H115    1.083   .     S
C78    C79     1.388   .     A
C79    C80     1.392   .     A
C79    H86     1.082   .     S
C80    H625    1.078   .     S
Cu81   O90     1.957   .     S
Cu81   O92     1.957   .     S
Cu81   O96     1.945   .     S
Cu81   O94     1.953   .     S
Cu81   Cu82    2.700   .     S
Cu81   N89     2.029   .     S
Cu82   N88     2.029   .     S
Cu82   O95     1.957   .     S
Cu82   O91     1.953   .     S
Cu82   O93     1.945   .     S
Cu82   O97     1.957   .     S
H83    N149    1.027   .     S
H85    C620    1.078   1_554 S
N88    N149    1.294   .     S
N88    O164    1.345   .     S
O98    C99     1.419   .     S
C99    H102    1.111   .     S
C99    H100    1.108   .     S
C99    H161    1.106   .     S
H103   C253    1.085   .     S
O104   C105    1.404   .     S
C105   H107    1.112   .     S
C105   H108    1.109   .     S
H106   C165    1.101   .     S
O110   C111    1.410   .     S
C111   H114    1.109   .     S
C111   H112    1.112   .     S
C111   H113    1.114   .     S
O116   C117    1.411   .     S
O116   C431    1.388   1_545 S
C117   H118    1.109   .     S
C117   H120    1.113   .     S
C117   H479    1.113   1_545 S
H119   C297    1.113   .     S
C121   C131    1.430   .     S
C121   O151    1.289   .     A
C121   O150    1.294   .     A
C122   C123    1.413   .     A
C122   C140    1.409   .     A
C122   C664    1.416   .     S
C123   C130    1.423   .     A
C123   C127    1.410   .     A
C124   C128    1.395   .     A
C124   C662    1.416   1_554 S
C124   C665    1.415   1_554 S
C125   C126    1.396   .     A
C125   C664    1.415   .     S
C125   C676    1.412   .     S
C126   C127    1.392   .     A
C126   H169    1.083   .     S
C127   H147    1.073   .     S
C128   H144    1.076   .     S
C128   C137    1.395   .     A
C129   C137    1.408   .     A
C129   C136    1.409   .     A
C129   O158    1.385   .     S
C130   C132    1.472   .     S
C130   C138    1.403   .     A
C131   C313    1.339   .     S
C131   O356    1.388   .     S
C132   O152    1.308   .     A
C132   O153    1.298   .     A
C133   C134    1.428   .     S
C133   C491    1.339   1_545 S
C133   H523    1.085   1_545 S
C134   O154    1.294   .     A
C134   O155    1.289   .     A
C135   O156    1.301   .     A
C135   C137    1.469   .     S
C135   O157    1.304   .     A
C136   C665    1.412   1_554 S
C136   O50     1.383   1_655 S
C138   H175    1.083   .     S
C138   C139    1.388   .     A
C139   C140    1.392   .     A
C139   H146    1.082   .     S
C140   H685    1.078   .     S
Cu141  O150    1.957   .     S
Cu141  O152    1.957   .     S
Cu141  O156    1.945   .     S
Cu141  O154    1.953   .     S
Cu141  Cu142   2.700   .     S
Cu141  N149    2.029   .     S
Cu142  N148    2.029   .     S
Cu142  O155    1.957   .     S
Cu142  O151    1.953   .     S
Cu142  O153    1.945   .     S
Cu142  O157    1.957   .     S
H143   N29     1.027   1_655 S
H145   C680    1.078   1_554 S
N148   N29     1.294   1_655 S
N148   O44     1.345   1_655 S
O158   C159    1.419   .     S
C159   H162    1.111   .     S
C159   H160    1.108   .     S
C159   H41     1.106   1_655 S
H163   C313    1.085   .     S
O164   C165    1.404   .     S
C165   H167    1.112   .     S
C165   H168    1.109   .     S
H166   C45     1.101   1_655 S
O170   C171    1.410   .     S
C171   H174    1.109   .     S
C171   H172    1.112   .     S
C171   H173    1.114   .     S
O176   C177    1.411   .     S
O176   C491    1.388   1_545 S
C177   H178    1.109   .     S
C177   H180    1.113   .     S
C177   H539    1.113   1_545 S
H179   C357    1.113   .     S
C181   C191    1.430   .     S
C181   O211    1.289   .     A
C181   O210    1.294   .     A
C182   C183    1.413   .     A
C182   C200    1.409   .     A
C182   C724    1.416   .     S
C183   C190    1.423   .     A
C183   C187    1.410   .     A
C184   C188    1.395   .     A
C184   C722    1.416   1_554 S
C184   C725    1.415   1_554 S
C185   C186    1.396   .     A
C185   C724    1.415   .     S
C185   C736    1.412   .     S
C186   C187    1.392   .     A
C186   H229    1.083   .     S
C187   H207    1.073   .     S
C188   H204    1.076   .     S
C188   C197    1.395   .     A
C189   C197    1.408   .     A
C189   C196    1.409   .     A
C189   O218    1.385   .     S
C190   C192    1.472   .     S
C190   C198    1.403   .     A
C191   C373    1.339   .     S
C191   O416    1.388   .     S
C192   O212    1.308   .     A
C192   O213    1.298   .     A
C193   C194    1.428   .     S
C194   O214    1.294   .     A
C194   O215    1.289   .     A
C195   O216    1.301   .     A
C195   C197    1.469   .     S
C195   O217    1.304   .     A
C196   C725    1.412   1_554 S
C196   O290    1.383   .     S
C198   H235    1.083   .     S
C198   C199    1.388   .     A
C199   C200    1.392   .     A
C199   H206    1.082   .     S
C200   H745    1.078   .     S
Cu201  O210    1.957   .     S
Cu201  O212    1.957   .     S
Cu201  O216    1.945   .     S
Cu201  O214    1.953   .     S
Cu201  Cu202   2.700   .     S
Cu201  N209    2.029   .     S
Cu202  N208    2.029   .     S
Cu202  O215    1.957   .     S
Cu202  O211    1.953   .     S
Cu202  O213    1.945   .     S
Cu202  O217    1.957   .     S
H203   N269    1.027   .     S
H205   C740    1.078   1_554 S
N208   N269    1.294   .     S
N208   O284    1.345   .     S
N209   N328    1.294   1_455 S
N209   H323    1.027   1_455 S
O218   C219    1.419   .     S
C219   H222    1.111   .     S
C219   H220    1.108   .     S
C219   H281    1.106   .     S
H221   C339    1.106   1_455 S
H223   C373    1.085   .     S
O224   C225    1.404   .     S
O224   N328    1.345   1_455 S
C225   H227    1.112   .     S
C225   H228    1.109   .     S
C225   H346    1.101   1_455 S
H226   C285    1.101   .     S
O230   C231    1.410   .     S
O230   C316    1.383   1_455 S
C231   H234    1.109   .     S
C231   H232    1.112   .     S
C231   H233    1.114   .     S
O236   C237    1.411   .     S
C237   H238    1.109   .     S
C237   H240    1.113   .     S
H239   C417    1.113   .     S
C241   C251    1.430   .     S
C241   O271    1.289   .     A
C241   O270    1.294   .     A
C242   C243    1.413   .     A
C242   C260    1.409   .     A
C242   C784    1.416   .     S
C243   C250    1.423   .     A
C243   C247    1.410   .     A
C244   C248    1.395   .     A
C244   C782    1.416   1_554 S
C244   C785    1.415   1_554 S
C245   C246    1.396   .     A
C245   C784    1.415   .     S
C245   C796    1.412   .     S
C246   C247    1.392   .     A
C246   H289    1.083   .     S
C247   H267    1.073   .     S
C248   H264    1.076   .     S
C248   C257    1.395   .     A
C249   C257    1.408   .     A
C249   C256    1.409   .     A
C249   O278    1.385   .     S
C250   C252    1.472   .     S
C250   C258    1.403   .     A
C251   C433    1.339   .     S
C251   O476    1.388   .     S
C252   O272    1.308   .     A
C252   O273    1.298   .     A
C253   C254    1.428   .     S
C254   O274    1.294   .     A
C254   O275    1.289   .     A
C255   O276    1.301   .     A
C255   C257    1.469   .     S
C255   O277    1.304   .     A
C256   C785    1.412   1_554 S
C256   O350    1.383   .     S
C258   H295    1.083   .     S
C258   C259    1.388   .     A
C259   C260    1.392   .     A
C259   H266    1.082   .     S
C260   H805    1.078   .     S
Cu261  O270    1.957   .     S
Cu261  O272    1.957   .     S
Cu261  O276    1.945   .     S
Cu261  O274    1.953   .     S
Cu261  Cu262   2.700   .     S
Cu261  N269    2.029   .     S
Cu262  N268    2.029   .     S
Cu262  O275    1.957   .     S
Cu262  O271    1.953   .     S
Cu262  O273    1.945   .     S
Cu262  O277    1.957   .     S
H263   N329    1.027   .     S
H265   C800    1.078   1_554 S
N268   N329    1.294   .     S
N268   O344    1.345   .     S
O278   C279    1.419   .     S
C279   H282    1.111   .     S
C279   H280    1.108   .     S
C279   H341    1.106   .     S
H283   C433    1.085   .     S
O284   C285    1.404   .     S
C285   H287    1.112   .     S
C285   H288    1.109   .     S
H286   C345    1.101   .     S
O290   C291    1.410   .     S
C291   H294    1.109   .     S
C291   H292    1.112   .     S
C291   H293    1.114   .     S
O296   C297    1.411   .     S
C297   H298    1.109   .     S
C297   H300    1.113   .     S
H299   C477    1.113   .     S
C301   C311    1.430   .     S
C301   O331    1.289   .     A
C301   O330    1.294   .     A
C302   C303    1.413   .     A
C302   C320    1.409   .     A
C302   C844    1.416   .     S
C303   C310    1.423   .     A
C303   C307    1.410   .     A
C304   C308    1.395   .     A
C304   C842    1.416   1_554 S
C304   C845    1.415   1_554 S
C305   C306    1.396   .     A
C305   C844    1.415   .     S
C305   C856    1.412   .     S
C306   C307    1.392   .     A
C306   H349    1.083   .     S
C307   H327    1.073   .     S
C308   H324    1.076   .     S
C308   C317    1.395   .     A
C309   C317    1.408   .     A
C309   C316    1.409   .     A
C309   O338    1.385   .     S
C310   C312    1.472   .     S
C310   C318    1.403   .     A
C311   C493    1.339   .     S
C311   O536    1.388   .     S
C312   O332    1.308   .     A
C312   O333    1.298   .     A
C313   C314    1.428   .     S
C314   O334    1.294   .     A
C314   O335    1.289   .     A
C315   O336    1.301   .     A
C315   C317    1.469   .     S
C315   O337    1.304   .     A
C316   C845    1.412   1_554 S
C316   O230    1.383   1_655 S
C318   H355    1.083   .     S
C318   C319    1.388   .     A
C319   C320    1.392   .     A
C319   H326    1.082   .     S
C320   H865    1.078   .     S
Cu321  O330    1.957   .     S
Cu321  O332    1.957   .     S
Cu321  O336    1.945   .     S
Cu321  O334    1.953   .     S
Cu321  Cu322   2.700   .     S
Cu321  N329    2.029   .     S
Cu322  N328    2.029   .     S
Cu322  O335    1.957   .     S
Cu322  O331    1.953   .     S
Cu322  O333    1.945   .     S
Cu322  O337    1.957   .     S
H323   N209    1.027   1_655 S
H325   C860    1.078   1_554 S
N328   N209    1.294   1_655 S
N328   O224    1.345   1_655 S
O338   C339    1.419   .     S
C339   H342    1.111   .     S
C339   H340    1.108   .     S
C339   H221    1.106   1_655 S
H343   C493    1.085   .     S
O344   C345    1.404   .     S
C345   H347    1.112   .     S
C345   H348    1.109   .     S
H346   C225    1.101   1_655 S
O350   C351    1.410   .     S
C351   H354    1.109   .     S
C351   H352    1.112   .     S
C351   H353    1.114   .     S
O356   C357    1.411   .     S
C357   H358    1.109   .     S
C357   H360    1.113   .     S
H359   C537    1.113   .     S
C361   C371    1.430   .     S
C361   O391    1.289   .     A
C361   O390    1.294   .     A
C362   C363    1.413   .     A
C362   C380    1.409   .     A
C362   C904    1.416   .     S
C363   C370    1.423   .     A
C363   C367    1.410   .     A
C364   C368    1.395   .     A
C364   C902    1.416   1_554 S
C364   C905    1.415   1_554 S
C365   C366    1.396   .     A
C365   C904    1.415   .     S
C365   C916    1.412   .     S
C366   C367    1.392   .     A
C366   H409    1.083   .     S
C367   H387    1.073   .     S
C368   H384    1.076   .     S
C368   C377    1.395   .     A
C369   C377    1.408   .     A
C369   C376    1.409   .     A
C369   O398    1.385   .     S
C370   C372    1.472   .     S
C370   C378    1.403   .     A
C371   C13     1.339   1_565 S
C371   O56     1.388   1_565 S
C372   O392    1.308   .     A
C372   O393    1.298   .     A
C373   C374    1.428   .     S
C374   O394    1.294   .     A
C374   O395    1.289   .     A
C375   O396    1.301   .     A
C375   C377    1.469   .     S
C375   O397    1.304   .     A
C376   C905    1.412   1_554 S
C376   O470    1.383   .     S
C378   H415    1.083   .     S
C378   C379    1.388   .     A
C379   C380    1.392   .     A
C379   H386    1.082   .     S
C380   H925    1.078   .     S
Cu381  O390    1.957   .     S
Cu381  O392    1.957   .     S
Cu381  O396    1.945   .     S
Cu381  O394    1.953   .     S
Cu381  Cu382   2.700   .     S
Cu381  N389    2.029   .     S
Cu382  N388    2.029   .     S
Cu382  O395    1.957   .     S
Cu382  O391    1.953   .     S
Cu382  O393    1.945   .     S
Cu382  O397    1.957   .     S
H383   N449    1.027   .     S
H385   C920    1.078   1_554 S
N388   N449    1.294   .     S
N388   O464    1.345   .     S
N389   N508    1.294   1_455 S
N389   H503    1.027   1_455 S
O398   C399    1.419   .     S
C399   H402    1.111   .     S
C399   H400    1.108   .     S
C399   H461    1.106   .     S
H401   C519    1.106   1_455 S
H403   C13     1.085   1_565 S
O404   C405    1.404   .     S
O404   N508    1.345   1_455 S
C405   H407    1.112   .     S
C405   H408    1.109   .     S
C405   H526    1.101   1_455 S
H406   C465    1.101   .     S
O410   C411    1.410   .     S
O410   C496    1.383   1_455 S
C411   H414    1.109   .     S
C411   H412    1.112   .     S
C411   H413    1.114   .     S
O416   C417    1.411   .     S
C417   H418    1.109   .     S
C417   H420    1.113   .     S
H419   C57     1.113   1_565 S
C421   C431    1.430   .     S
C421   O451    1.289   .     A
C421   O450    1.294   .     A
C422   C423    1.413   .     A
C422   C440    1.409   .     A
C422   C964    1.416   .     S
C423   C430    1.423   .     A
C423   C427    1.410   .     A
C424   C428    1.395   .     A
C424   C962    1.416   1_554 S
C424   C965    1.415   1_554 S
C425   C426    1.396   .     A
C425   C964    1.415   .     S
C425   C976    1.412   .     S
C426   C427    1.392   .     A
C426   H469    1.083   .     S
C427   H447    1.073   .     S
C428   H444    1.076   .     S
C428   C437    1.395   .     A
C429   C437    1.408   .     A
C429   C436    1.409   .     A
C429   O458    1.385   .     S
C430   C432    1.472   .     S
C430   C438    1.403   .     A
C431   C73     1.339   1_565 S
C431   O116    1.388   1_565 S
C432   O452    1.308   .     A
C432   O453    1.298   .     A
C433   C434    1.428   .     S
C434   O454    1.294   .     A
C434   O455    1.289   .     A
C435   O456    1.301   .     A
C435   C437    1.469   .     S
C435   O457    1.304   .     A
C436   C965    1.412   1_554 S
C436   O530    1.383   .     S
C438   H475    1.083   .     S
C438   C439    1.388   .     A
C439   C440    1.392   .     A
C439   H446    1.082   .     S
C440   H985    1.078   .     S
Cu441  O450    1.957   .     S
Cu441  O452    1.957   .     S
Cu441  O456    1.945   .     S
Cu441  O454    1.953   .     S
Cu441  Cu442   2.700   .     S
Cu441  N449    2.029   .     S
Cu442  N448    2.029   .     S
Cu442  O455    1.957   .     S
Cu442  O451    1.953   .     S
Cu442  O453    1.945   .     S
Cu442  O457    1.957   .     S
H443   N509    1.027   .     S
H445   C980    1.078   1_554 S
N448   N509    1.294   .     S
N448   O524    1.345   .     S
O458   C459    1.419   .     S
C459   H462    1.111   .     S
C459   H460    1.108   .     S
C459   H521    1.106   .     S
H463   C73     1.085   1_565 S
O464   C465    1.404   .     S
C465   H467    1.112   .     S
C465   H468    1.109   .     S
H466   C525    1.101   .     S
O470   C471    1.410   .     S
C471   H474    1.109   .     S
C471   H472    1.112   .     S
C471   H473    1.114   .     S
O476   C477    1.411   .     S
C477   H478    1.109   .     S
C477   H480    1.113   .     S
H479   C117    1.113   1_565 S
C481   C491    1.430   .     S
C481   O511    1.289   .     A
C481   O510    1.294   .     A
C482   C483    1.413   .     A
C482   C500    1.409   .     A
C482   C1024   1.416   .     S
C483   C490    1.423   .     A
C483   C487    1.410   .     A
C484   C488    1.395   .     A
C484   C1022   1.416   1_554 S
C484   C1025   1.415   1_554 S
C485   C486    1.396   .     A
C485   C1024   1.415   .     S
C485   C1036   1.412   .     S
C486   C487    1.392   .     A
C486   H529    1.083   .     S
C487   H507    1.073   .     S
C488   H504    1.076   .     S
C488   C497    1.395   .     A
C489   C497    1.408   .     A
C489   C496    1.409   .     A
C489   O518    1.385   .     S
C490   C492    1.472   .     S
C490   C498    1.403   .     A
C491   C133    1.339   1_565 S
C491   O176    1.388   1_565 S
C492   O512    1.308   .     A
C492   O513    1.298   .     A
C493   C494    1.428   .     S
C494   O514    1.294   .     A
C494   O515    1.289   .     A
C495   O516    1.301   .     A
C495   C497    1.469   .     S
C495   O517    1.304   .     A
C496   C1025   1.412   1_554 S
C496   O410    1.383   1_655 S
C498   H535    1.083   .     S
C498   C499    1.388   .     A
C499   C500    1.392   .     A
C499   H506    1.082   .     S
C500   H1045   1.078   .     S
Cu501  O510    1.957   .     S
Cu501  O512    1.957   .     S
Cu501  O516    1.945   .     S
Cu501  O514    1.953   .     S
Cu501  Cu502   2.700   .     S
Cu501  N509    2.029   .     S
Cu502  N508    2.029   .     S
Cu502  O515    1.957   .     S
Cu502  O511    1.953   .     S
Cu502  O513    1.945   .     S
Cu502  O517    1.957   .     S
H503   N389    1.027   1_655 S
H505   C1040   1.078   1_554 S
N508   N389    1.294   1_655 S
N508   O404    1.345   1_655 S
O518   C519    1.419   .     S
C519   H522    1.111   .     S
C519   H520    1.108   .     S
C519   H401    1.106   1_655 S
H523   C133    1.085   1_565 S
O524   C525    1.404   .     S
C525   H527    1.112   .     S
C525   H528    1.109   .     S
H526   C405    1.101   1_655 S
O530   C531    1.410   .     S
C531   H534    1.109   .     S
C531   H532    1.112   .     S
C531   H533    1.114   .     S
O536   C537    1.411   .     S
C537   H538    1.109   .     S
C537   H540    1.113   .     S
H539   C177    1.113   1_565 S
C541   C551    1.430   .     S
C541   O571    1.289   .     A
C541   O570    1.294   .     A
C542   C543    1.413   .     A
C542   C560    1.409   .     A
C542   C4      1.416   1_556 S
C543   C550    1.423   .     A
C543   C547    1.410   .     A
C544   C548    1.395   .     A
C545   C546    1.396   .     A
C545   C4      1.415   1_556 S
C545   C16     1.412   1_556 S
C546   C547    1.392   .     A
C546   H589    1.083   .     S
C547   H567    1.073   .     S
C548   H564    1.076   .     S
C548   C557    1.395   .     A
C549   C557    1.408   .     A
C549   C556    1.409   .     A
C549   O578    1.385   .     S
C550   C552    1.472   .     S
C550   C558    1.403   .     A
C551   C733    1.339   .     S
C551   O776    1.388   .     S
C552   O572    1.308   .     A
C552   O573    1.298   .     A
C553   C554    1.428   .     S
C553   C911    1.339   1_545 S
C553   H943    1.085   1_545 S
C554   O574    1.294   .     A
C554   O575    1.289   .     A
C555   O576    1.301   .     A
C555   C557    1.469   .     S
C555   O577    1.304   .     A
C556   O650    1.383   .     S
C558   H595    1.083   .     S
C558   C559    1.388   .     A
C559   C560    1.392   .     A
C559   H566    1.082   .     S
C560   H25     1.078   1_556 S
Cu561  O570    1.957   .     S
Cu561  O572    1.957   .     S
Cu561  O576    1.945   .     S
Cu561  O574    1.953   .     S
Cu561  Cu562   2.700   .     S
Cu561  N569    2.029   .     S
Cu562  N568    2.029   .     S
Cu562  O575    1.957   .     S
Cu562  O571    1.953   .     S
Cu562  O573    1.945   .     S
Cu562  O577    1.957   .     S
H563   N629    1.027   .     S
N568   N629    1.294   .     S
N568   O644    1.345   .     S
N569   N688    1.294   1_455 S
N569   H683    1.027   1_455 S
O578   C579    1.419   .     S
C579   H582    1.111   .     S
C579   H580    1.108   .     S
C579   H641    1.106   .     S
H581   C699    1.106   1_455 S
H583   C733    1.085   .     S
O584   C585    1.404   .     S
O584   N688    1.345   1_455 S
C585   H587    1.112   .     S
C585   H588    1.109   .     S
C585   H706    1.101   1_455 S
H586   C645    1.101   .     S
O590   C591    1.410   .     S
O590   C676    1.383   1_455 S
C591   H594    1.109   .     S
C591   H592    1.112   .     S
C591   H593    1.114   .     S
O596   C597    1.411   .     S
O596   C911    1.388   1_545 S
C597   H598    1.109   .     S
C597   H600    1.113   .     S
C597   H959    1.113   1_545 S
H599   C777    1.113   .     S
C601   C611    1.430   .     S
C601   O631    1.289   .     A
C601   O630    1.294   .     A
C602   C603    1.413   .     A
C602   C620    1.409   .     A
C602   C64     1.416   1_556 S
C603   C610    1.423   .     A
C603   C607    1.410   .     A
C604   C608    1.395   .     A
C605   C606    1.396   .     A
C605   C64     1.415   1_556 S
C605   C76     1.412   1_556 S
C606   C607    1.392   .     A
C606   H649    1.083   .     S
C607   H627    1.073   .     S
C608   H624    1.076   .     S
C608   C617    1.395   .     A
C609   C617    1.408   .     A
C609   C616    1.409   .     A
C609   O638    1.385   .     S
C610   C612    1.472   .     S
C610   C618    1.403   .     A
C611   C793    1.339   .     S
C611   O836    1.388   .     S
C612   O632    1.308   .     A
C612   O633    1.298   .     A
C613   C614    1.428   .     S
C613   C971    1.339   1_545 S
C613   H1003   1.085   1_545 S
C614   O634    1.294   .     A
C614   O635    1.289   .     A
C615   O636    1.301   .     A
C615   C617    1.469   .     S
C615   O637    1.304   .     A
C616   O710    1.383   .     S
C618   H655    1.083   .     S
C618   C619    1.388   .     A
C619   C620    1.392   .     A
C619   H626    1.082   .     S
C620   H85     1.078   1_556 S
Cu621  O630    1.957   .     S
Cu621  O632    1.957   .     S
Cu621  O636    1.945   .     S
Cu621  O634    1.953   .     S
Cu621  Cu622   2.700   .     S
Cu621  N629    2.029   .     S
Cu622  N628    2.029   .     S
Cu622  O635    1.957   .     S
Cu622  O631    1.953   .     S
Cu622  O633    1.945   .     S
Cu622  O637    1.957   .     S
H623   N689    1.027   .     S
N628   N689    1.294   .     S
N628   O704    1.345   .     S
O638   C639    1.419   .     S
C639   H642    1.111   .     S
C639   H640    1.108   .     S
C639   H701    1.106   .     S
H643   C793    1.085   .     S
O644   C645    1.404   .     S
C645   H647    1.112   .     S
C645   H648    1.109   .     S
H646   C705    1.101   .     S
O650   C651    1.410   .     S
C651   H654    1.109   .     S
C651   H652    1.112   .     S
C651   H653    1.114   .     S
O656   C657    1.411   .     S
O656   C971    1.388   1_545 S
C657   H658    1.109   .     S
C657   H660    1.113   .     S
C657   H1019   1.113   1_545 S
H659   C837    1.113   .     S
C661   C671    1.430   .     S
C661   O691    1.289   .     A
C661   O690    1.294   .     A
C662   C663    1.413   .     A
C662   C680    1.409   .     A
C662   C124    1.416   1_556 S
C663   C670    1.423   .     A
C663   C667    1.410   .     A
C664   C668    1.395   .     A
C665   C666    1.396   .     A
C665   C124    1.415   1_556 S
C665   C136    1.412   1_556 S
C666   C667    1.392   .     A
C666   H709    1.083   .     S
C667   H687    1.073   .     S
C668   H684    1.076   .     S
C668   C677    1.395   .     A
C669   C677    1.408   .     A
C669   C676    1.409   .     A
C669   O698    1.385   .     S
C670   C672    1.472   .     S
C670   C678    1.403   .     A
C671   C853    1.339   .     S
C671   O896    1.388   .     S
C672   O692    1.308   .     A
C672   O693    1.298   .     A
C673   C674    1.428   .     S
C673   C1031   1.339   1_545 S
C673   H1063   1.085   1_545 S
C674   O694    1.294   .     A
C674   O695    1.289   .     A
C675   O696    1.301   .     A
C675   C677    1.469   .     S
C675   O697    1.304   .     A
C676   O590    1.383   1_655 S
C678   H715    1.083   .     S
C678   C679    1.388   .     A
C679   C680    1.392   .     A
C679   H686    1.082   .     S
C680   H145    1.078   1_556 S
Cu681  O690    1.957   .     S
Cu681  O692    1.957   .     S
Cu681  O696    1.945   .     S
Cu681  O694    1.953   .     S
Cu681  Cu682   2.700   .     S
Cu681  N689    2.029   .     S
Cu682  N688    2.029   .     S
Cu682  O695    1.957   .     S
Cu682  O691    1.953   .     S
Cu682  O693    1.945   .     S
Cu682  O697    1.957   .     S
H683   N569    1.027   1_655 S
N688   N569    1.294   1_655 S
N688   O584    1.345   1_655 S
O698   C699    1.419   .     S
C699   H702    1.111   .     S
C699   H700    1.108   .     S
C699   H581    1.106   1_655 S
H703   C853    1.085   .     S
O704   C705    1.404   .     S
C705   H707    1.112   .     S
C705   H708    1.109   .     S
H706   C585    1.101   1_655 S
O710   C711    1.410   .     S
C711   H714    1.109   .     S
C711   H712    1.112   .     S
C711   H713    1.114   .     S
O716   C717    1.411   .     S
O716   C1031   1.388   1_545 S
C717   H718    1.109   .     S
C717   H720    1.113   .     S
C717   H1079   1.113   1_545 S
H719   C897    1.113   .     S
C721   C731    1.430   .     S
C721   O751    1.289   .     A
C721   O750    1.294   .     A
C722   C723    1.413   .     A
C722   C740    1.409   .     A
C722   C184    1.416   1_556 S
C723   C730    1.423   .     A
C723   C727    1.410   .     A
C724   C728    1.395   .     A
C725   C726    1.396   .     A
C725   C184    1.415   1_556 S
C725   C196    1.412   1_556 S
C726   C727    1.392   .     A
C726   H769    1.083   .     S
C727   H747    1.073   .     S
C728   H744    1.076   .     S
C728   C737    1.395   .     A
C729   C737    1.408   .     A
C729   C736    1.409   .     A
C729   O758    1.385   .     S
C730   C732    1.472   .     S
C730   C738    1.403   .     A
C731   C913    1.339   .     S
C731   O956    1.388   .     S
C732   O752    1.308   .     A
C732   O753    1.298   .     A
C733   C734    1.428   .     S
C734   O754    1.294   .     A
C734   O755    1.289   .     A
C735   O756    1.301   .     A
C735   C737    1.469   .     S
C735   O757    1.304   .     A
C736   O830    1.383   .     S
C738   H775    1.083   .     S
C738   C739    1.388   .     A
C739   C740    1.392   .     A
C739   H746    1.082   .     S
C740   H205    1.078   1_556 S
Cu741  O750    1.957   .     S
Cu741  O752    1.957   .     S
Cu741  O756    1.945   .     S
Cu741  O754    1.953   .     S
Cu741  Cu742   2.700   .     S
Cu741  N749    2.029   .     S
Cu742  N748    2.029   .     S
Cu742  O755    1.957   .     S
Cu742  O751    1.953   .     S
Cu742  O753    1.945   .     S
Cu742  O757    1.957   .     S
H743   N809    1.027   .     S
N748   N809    1.294   .     S
N748   O824    1.345   .     S
N749   N868    1.294   1_455 S
N749   H863    1.027   1_455 S
O758   C759    1.419   .     S
C759   H762    1.111   .     S
C759   H760    1.108   .     S
C759   H821    1.106   .     S
H761   C879    1.106   1_455 S
H763   C913    1.085   .     S
O764   C765    1.404   .     S
O764   N868    1.345   1_455 S
C765   H767    1.112   .     S
C765   H768    1.109   .     S
C765   H886    1.101   1_455 S
H766   C825    1.101   .     S
O770   C771    1.410   .     S
O770   C856    1.383   1_455 S
C771   H774    1.109   .     S
C771   H772    1.112   .     S
C771   H773    1.114   .     S
O776   C777    1.411   .     S
C777   H778    1.109   .     S
C777   H780    1.113   .     S
H779   C957    1.113   .     S
C781   C791    1.430   .     S
C781   O811    1.289   .     A
C781   O810    1.294   .     A
C782   C783    1.413   .     A
C782   C800    1.409   .     A
C782   C244    1.416   1_556 S
C783   C790    1.423   .     A
C783   C787    1.410   .     A
C784   C788    1.395   .     A
C785   C786    1.396   .     A
C785   C244    1.415   1_556 S
C785   C256    1.412   1_556 S
C786   C787    1.392   .     A
C786   H829    1.083   .     S
C787   H807    1.073   .     S
C788   H804    1.076   .     S
C788   C797    1.395   .     A
C789   C797    1.408   .     A
C789   C796    1.409   .     A
C789   O818    1.385   .     S
C790   C792    1.472   .     S
C790   C798    1.403   .     A
C791   C973    1.339   .     S
C791   O1016   1.388   .     S
C792   O812    1.308   .     A
C792   O813    1.298   .     A
C793   C794    1.428   .     S
C794   O814    1.294   .     A
C794   O815    1.289   .     A
C795   O816    1.301   .     A
C795   C797    1.469   .     S
C795   O817    1.304   .     A
C796   O890    1.383   .     S
C798   H835    1.083   .     S
C798   C799    1.388   .     A
C799   C800    1.392   .     A
C799   H806    1.082   .     S
C800   H265    1.078   1_556 S
Cu801  O810    1.957   .     S
Cu801  O812    1.957   .     S
Cu801  O816    1.945   .     S
Cu801  O814    1.953   .     S
Cu801  Cu802   2.700   .     S
Cu801  N809    2.029   .     S
Cu802  N808    2.029   .     S
Cu802  O815    1.957   .     S
Cu802  O811    1.953   .     S
Cu802  O813    1.945   .     S
Cu802  O817    1.957   .     S
H803   N869    1.027   .     S
N808   N869    1.294   .     S
N808   O884    1.345   .     S
O818   C819    1.419   .     S
C819   H822    1.111   .     S
C819   H820    1.108   .     S
C819   H881    1.106   .     S
H823   C973    1.085   .     S
O824   C825    1.404   .     S
C825   H827    1.112   .     S
C825   H828    1.109   .     S
H826   C885    1.101   .     S
O830   C831    1.410   .     S
C831   H834    1.109   .     S
C831   H832    1.112   .     S
C831   H833    1.114   .     S
O836   C837    1.411   .     S
C837   H838    1.109   .     S
C837   H840    1.113   .     S
H839   C1017   1.113   .     S
C841   C851    1.430   .     S
C841   O871    1.289   .     A
C841   O870    1.294   .     A
C842   C843    1.413   .     A
C842   C860    1.409   .     A
C842   C304    1.416   1_556 S
C843   C850    1.423   .     A
C843   C847    1.410   .     A
C844   C848    1.395   .     A
C845   C846    1.396   .     A
C845   C304    1.415   1_556 S
C845   C316    1.412   1_556 S
C846   C847    1.392   .     A
C846   H889    1.083   .     S
C847   H867    1.073   .     S
C848   H864    1.076   .     S
C848   C857    1.395   .     A
C849   C857    1.408   .     A
C849   C856    1.409   .     A
C849   O878    1.385   .     S
C850   C852    1.472   .     S
C850   C858    1.403   .     A
C851   C1033   1.339   .     S
C851   O1076   1.388   .     S
C852   O872    1.308   .     A
C852   O873    1.298   .     A
C853   C854    1.428   .     S
C854   O874    1.294   .     A
C854   O875    1.289   .     A
C855   O876    1.301   .     A
C855   C857    1.469   .     S
C855   O877    1.304   .     A
C856   O770    1.383   1_655 S
C858   H895    1.083   .     S
C858   C859    1.388   .     A
C859   C860    1.392   .     A
C859   H866    1.082   .     S
C860   H325    1.078   1_556 S
Cu861  O870    1.957   .     S
Cu861  O872    1.957   .     S
Cu861  O876    1.945   .     S
Cu861  O874    1.953   .     S
Cu861  Cu862   2.700   .     S
Cu861  N869    2.029   .     S
Cu862  N868    2.029   .     S
Cu862  O875    1.957   .     S
Cu862  O871    1.953   .     S
Cu862  O873    1.945   .     S
Cu862  O877    1.957   .     S
H863   N749    1.027   1_655 S
N868   N749    1.294   1_655 S
N868   O764    1.345   1_655 S
O878   C879    1.419   .     S
C879   H882    1.111   .     S
C879   H880    1.108   .     S
C879   H761    1.106   1_655 S
H883   C1033   1.085   .     S
O884   C885    1.404   .     S
C885   H887    1.112   .     S
C885   H888    1.109   .     S
H886   C765    1.101   1_655 S
O890   C891    1.410   .     S
C891   H894    1.109   .     S
C891   H892    1.112   .     S
C891   H893    1.114   .     S
O896   C897    1.411   .     S
C897   H898    1.109   .     S
C897   H900    1.113   .     S
H899   C1077   1.113   .     S
C901   C911    1.430   .     S
C901   O931    1.289   .     A
C901   O930    1.294   .     A
C902   C903    1.413   .     A
C902   C920    1.409   .     A
C902   C364    1.416   1_556 S
C903   C910    1.423   .     A
C903   C907    1.410   .     A
C904   C908    1.395   .     A
C905   C906    1.396   .     A
C905   C364    1.415   1_556 S
C905   C376    1.412   1_556 S
C906   C907    1.392   .     A
C906   H949    1.083   .     S
C907   H927    1.073   .     S
C908   H924    1.076   .     S
C908   C917    1.395   .     A
C909   C917    1.408   .     A
C909   C916    1.409   .     A
C909   O938    1.385   .     S
C910   C912    1.472   .     S
C910   C918    1.403   .     A
C911   C553    1.339   1_565 S
C911   O596    1.388   1_565 S
C912   O932    1.308   .     A
C912   O933    1.298   .     A
C913   C914    1.428   .     S
C914   O934    1.294   .     A
C914   O935    1.289   .     A
C915   O936    1.301   .     A
C915   C917    1.469   .     S
C915   O937    1.304   .     A
C916   O1010   1.383   .     S
C918   H955    1.083   .     S
C918   C919    1.388   .     A
C919   C920    1.392   .     A
C919   H926    1.082   .     S
C920   H385    1.078   1_556 S
Cu921  O930    1.957   .     S
Cu921  O932    1.957   .     S
Cu921  O936    1.945   .     S
Cu921  O934    1.953   .     S
Cu921  Cu922   2.700   .     S
Cu921  N929    2.029   .     S
Cu922  N928    2.029   .     S
Cu922  O935    1.957   .     S
Cu922  O931    1.953   .     S
Cu922  O933    1.945   .     S
Cu922  O937    1.957   .     S
H923   N989    1.027   .     S
N928   N989    1.294   .     S
N928   O1004   1.345   .     S
N929   N1048   1.294   1_455 S
N929   H1043   1.027   1_455 S
O938   C939    1.419   .     S
C939   H942    1.111   .     S
C939   H940    1.108   .     S
C939   H1001   1.106   .     S
H941   C1059   1.106   1_455 S
H943   C553    1.085   1_565 S
O944   C945    1.404   .     S
O944   N1048   1.345   1_455 S
C945   H947    1.112   .     S
C945   H948    1.109   .     S
C945   H1066   1.101   1_455 S
H946   C1005   1.101   .     S
O950   C951    1.410   .     S
O950   C1036   1.383   1_455 S
C951   H954    1.109   .     S
C951   H952    1.112   .     S
C951   H953    1.114   .     S
O956   C957    1.411   .     S
C957   H958    1.109   .     S
C957   H960    1.113   .     S
H959   C597    1.113   1_565 S
C961   C971    1.430   .     S
C961   O991    1.289   .     A
C961   O990    1.294   .     A
C962   C963    1.413   .     A
C962   C980    1.409   .     A
C962   C424    1.416   1_556 S
C963   C970    1.423   .     A
C963   C967    1.410   .     A
C964   C968    1.395   .     A
C965   C966    1.396   .     A
C965   C424    1.415   1_556 S
C965   C436    1.412   1_556 S
C966   C967    1.392   .     A
C966   H1009   1.083   .     S
C967   H987    1.073   .     S
C968   H984    1.076   .     S
C968   C977    1.395   .     A
C969   C977    1.408   .     A
C969   C976    1.409   .     A
C969   O998    1.385   .     S
C970   C972    1.472   .     S
C970   C978    1.403   .     A
C971   C613    1.339   1_565 S
C971   O656    1.388   1_565 S
C972   O992    1.308   .     A
C972   O993    1.298   .     A
C973   C974    1.428   .     S
C974   O994    1.294   .     A
C974   O995    1.289   .     A
C975   O996    1.301   .     A
C975   C977    1.469   .     S
C975   O997    1.304   .     A
C976   O1070   1.383   .     S
C978   H1015   1.083   .     S
C978   C979    1.388   .     A
C979   C980    1.392   .     A
C979   H986    1.082   .     S
C980   H445    1.078   1_556 S
Cu981  O990    1.957   .     S
Cu981  O992    1.957   .     S
Cu981  O996    1.945   .     S
Cu981  O994    1.953   .     S
Cu981  Cu982   2.700   .     S
Cu981  N989    2.029   .     S
Cu982  N988    2.029   .     S
Cu982  O995    1.957   .     S
Cu982  O991    1.953   .     S
Cu982  O993    1.945   .     S
Cu982  O997    1.957   .     S
H983   N1049   1.027   .     S
N988   N1049   1.294   .     S
N988   O1064   1.345   .     S
O998   C999    1.419   .     S
C999   H1002   1.111   .     S
C999   H1000   1.108   .     S
C999   H1061   1.106   .     S
H1003  C613    1.085   1_565 S
O1004  C1005   1.404   .     S
C1005  H1007   1.112   .     S
C1005  H1008   1.109   .     S
H1006  C1065   1.101   .     S
O1010  C1011   1.410   .     S
C1011  H1014   1.109   .     S
C1011  H1012   1.112   .     S
C1011  H1013   1.114   .     S
O1016  C1017   1.411   .     S
C1017  H1018   1.109   .     S
C1017  H1020   1.113   .     S
H1019  C657    1.113   1_565 S
C1021  C1031   1.430   .     S
C1021  O1051   1.289   .     A
C1021  O1050   1.294   .     A
C1022  C1023   1.413   .     A
C1022  C1040   1.409   .     A
C1022  C484    1.416   1_556 S
C1023  C1030   1.423   .     A
C1023  C1027   1.410   .     A
C1024  C1028   1.395   .     A
C1025  C1026   1.396   .     A
C1025  C484    1.415   1_556 S
C1025  C496    1.412   1_556 S
C1026  C1027   1.392   .     A
C1026  H1069   1.083   .     S
C1027  H1047   1.073   .     S
C1028  H1044   1.076   .     S
C1028  C1037   1.395   .     A
C1029  C1037   1.408   .     A
C1029  C1036   1.409   .     A
C1029  O1058   1.385   .     S
C1030  C1032   1.472   .     S
C1030  C1038   1.403   .     A
C1031  C673    1.339   1_565 S
C1031  O716    1.388   1_565 S
C1032  O1052   1.308   .     A
C1032  O1053   1.298   .     A
C1033  C1034   1.428   .     S
C1034  O1054   1.294   .     A
C1034  O1055   1.289   .     A
C1035  O1056   1.301   .     A
C1035  C1037   1.469   .     S
C1035  O1057   1.304   .     A
C1036  O950    1.383   1_655 S
C1038  H1075   1.083   .     S
C1038  C1039   1.388   .     A
C1039  C1040   1.392   .     A
C1039  H1046   1.082   .     S
C1040  H505    1.078   1_556 S
Cu1041 O1050   1.957   .     S
Cu1041 O1052   1.957   .     S
Cu1041 O1056   1.945   .     S
Cu1041 O1054   1.953   .     S
Cu1041 Cu1042  2.700   .     S
Cu1041 N1049   2.029   .     S
Cu1042 N1048   2.029   .     S
Cu1042 O1055   1.957   .     S
Cu1042 O1051   1.953   .     S
Cu1042 O1053   1.945   .     S
Cu1042 O1057   1.957   .     S
H1043  N929    1.027   1_655 S
N1048  N929    1.294   1_655 S
N1048  O944    1.345   1_655 S
O1058  C1059   1.419   .     S
C1059  H1062   1.111   .     S
C1059  H1060   1.108   .     S
C1059  H941    1.106   1_655 S
H1063  C673    1.085   1_565 S
O1064  C1065   1.404   .     S
C1065  H1067   1.112   .     S
C1065  H1068   1.109   .     S
H1066  C945    1.101   1_655 S
O1070  C1071   1.410   .     S
C1071  H1074   1.109   .     S
C1071  H1072   1.112   .     S
C1071  H1073   1.114   .     S
O1076  C1077   1.411   .     S
C1077  H1078   1.109   .     S
C1077  H1080   1.113   .     S
H1079  C717    1.113   1_565 S
