data_str_m2_o10_o17_pcu_sym.72
_audit_creation_date              2020-01-03
_audit_creation_method            'Materials Studio'
_symmetry_space_group_name_H-M    'P1'
_symmetry_Int_Tables_number       1
_symmetry_cell_setting            triclinic
loop_
_symmetry_equiv_pos_as_xyz
  x,y,z
_cell_length_a                    30.0429
_cell_length_b                    26.1772
_cell_length_c                    22.2919
_cell_angle_alpha                 102.2039
_cell_angle_beta                  94.2045
_cell_angle_gamma                 92.5862
loop_
_atom_site_label
_atom_site_type_symbol
_atom_site_fract_x
_atom_site_fract_y
_atom_site_fract_z
_atom_site_U_iso_or_equiv
_atom_site_adp_type
_atom_site_occupancy
C1     C     0.24707   0.06690   0.15187   0.00000  Uiso   1.00
C2     C     0.09051   0.13003   0.12907   0.00000  Uiso   1.00
C3     C     0.38340   0.16317   0.16403   0.00000  Uiso   1.00
C4     C     0.11660   0.17014   0.16930   0.00000  Uiso   1.00
C5     C     0.40327   0.12235   0.12471   0.00000  Uiso   1.00
C6     C     0.09674   0.21095   0.20862   0.00000  Uiso   1.00
C7     C     0.45042   0.12447   0.12465   0.00000  Uiso   1.00
C8     C     0.04959   0.20881   0.20871   0.00000  Uiso   1.00
C9     C     0.47650   0.16562   0.16589   0.00000  Uiso   1.00
C10    C     0.02351   0.16766   0.16749   0.00000  Uiso   1.00
C11    C     0.45571   0.20466   0.20583   0.00000  Uiso   1.00
C12    C     0.25293   0.26643   0.18146   0.00000  Uiso   1.00
C13    C     0.04429   0.12861   0.12755   0.00000  Uiso   1.00
C14    C     0.47234   0.08632   0.08493   0.00000  Uiso   1.00
C15    C     0.02766   0.24695   0.24846   0.00000  Uiso   1.00
C16    C     0.37520   0.07567   0.08575   0.00000  Uiso   1.00
C17    C     0.12480   0.25766   0.24753   0.00000  Uiso   1.00
C18    C     0.20115   0.31848   0.09932   0.00000  Uiso   1.00
C19    C     0.29885   0.01485   0.23401   0.00000  Uiso   1.00
C20    C     0.01869   0.08840   0.08656   0.00000  Uiso   1.00
C21    C     0.48131   0.24486   0.24684   0.00000  Uiso   1.00
C22    C     0.23883   0.01188   0.14644   0.00000  Uiso   1.00
C23    C     0.26117   0.32145   0.18689   0.00000  Uiso   1.00
C24    C     0.16465   0.16825   0.16768   0.00000  Uiso   1.00
C25    C     0.33535   0.16507   0.16565   0.00000  Uiso   1.00
C26    C     0.40950   0.20325   0.20429   0.00000  Uiso   1.00
Cu27   Cu    0.25501   0.17246   0.22813   0.00000  Uiso   1.00
Cu28   Cu    0.24500   0.16087   0.10521   0.00000  Uiso   1.00
H29    H     0.39348   0.23384   0.23448   0.00000  Uiso   1.00
H30    H     0.33966   0.07460   0.09556   0.00000  Uiso   1.00
H31    H     0.37675   0.07569   0.03614   0.00000  Uiso   1.00
H32    H     0.11193   0.29450   0.23801   0.00000  Uiso   1.00
H33    H     0.12335   0.25759   0.29714   0.00000  Uiso   1.00
H34    H     0.16031   0.25879   0.23757   0.00000  Uiso   1.00
H35    H     0.18132   0.01412   0.08090   0.00000  Uiso   1.00
H36    H     0.21493   0.29289   0.05959   0.00000  Uiso   1.00
H37    H     0.17750   0.29534   0.12080   0.00000  Uiso   1.00
H38    H     0.31869   0.31922   0.25242   0.00000  Uiso   1.00
H39    H     0.32250   0.03800   0.21253   0.00000  Uiso   1.00
H40    H     0.10653   0.09945   0.09890   0.00000  Uiso   1.00
H41    H     0.28508   0.04044   0.27374   0.00000  Uiso   1.00
H42    H     0.45413   0.05462   0.05201   0.00000  Uiso   1.00
H43    H     0.04587   0.27864   0.28139   0.00000  Uiso   1.00
H44    H     0.03458   0.05838   0.05554   0.00000  Uiso   1.00
H45    H     0.46543   0.27487   0.27786   0.00000  Uiso   1.00
H46    H     0.21534   0.12591   0.31619   0.00000  Uiso   1.00
H47    H     0.28466   0.20743   0.01714   0.00000  Uiso   1.00
H48    H     0.38800   0.03882   0.09536   0.00000  Uiso   1.00
N49    N     0.23745   0.15214   0.01284   0.00000  Uiso   1.00
N50    N     0.26256   0.18119   0.32049   0.00000  Uiso   1.00
O51    O     0.25326   0.09538   0.20659   0.00000  Uiso   1.00
O52    O     0.24675   0.23796   0.12674   0.00000  Uiso   1.00
O53    O     0.24480   0.08559   0.10279   0.00000  Uiso   1.00
O54    O     0.25520   0.24774   0.23055   0.00000  Uiso   1.00
O55    O     0.18936   0.17155   0.21857   0.00000  Uiso   1.00
O56    O     0.31065   0.16179   0.11476   0.00000  Uiso   1.00
O57    O     0.18090   0.16176   0.11477   0.00000  Uiso   1.00
O58    O     0.31910   0.17157   0.21857   0.00000  Uiso   1.00
C59    C     0.74707   0.06690   0.15187   0.00000  Uiso   1.00
C60    C     0.59051   0.13003   0.12907   0.00000  Uiso   1.00
C61    C     0.88340   0.16317   0.16403   0.00000  Uiso   1.00
C62    C     0.61660   0.17014   0.16930   0.00000  Uiso   1.00
C63    C     0.90327   0.12235   0.12471   0.00000  Uiso   1.00
C64    C     0.59674   0.21095   0.20862   0.00000  Uiso   1.00
C65    C     0.95042   0.12447   0.12465   0.00000  Uiso   1.00
C66    C     0.54959   0.20881   0.20871   0.00000  Uiso   1.00
C67    C     0.97650   0.16562   0.16589   0.00000  Uiso   1.00
C68    C     0.52351   0.16766   0.16749   0.00000  Uiso   1.00
C69    C     0.95571   0.20466   0.20583   0.00000  Uiso   1.00
C70    C     0.75293   0.26643   0.18146   0.00000  Uiso   1.00
C71    C     0.54429   0.12861   0.12755   0.00000  Uiso   1.00
C72    C     0.97234   0.08632   0.08493   0.00000  Uiso   1.00
C73    C     0.52766   0.24695   0.24846   0.00000  Uiso   1.00
C74    C     0.87520   0.07567   0.08575   0.00000  Uiso   1.00
C75    C     0.62480   0.25766   0.24753   0.00000  Uiso   1.00
C76    C     0.70115   0.31848   0.09932   0.00000  Uiso   1.00
C77    C     0.79885   0.01485   0.23401   0.00000  Uiso   1.00
C78    C     0.51869   0.08840   0.08656   0.00000  Uiso   1.00
C79    C     0.98131   0.24486   0.24684   0.00000  Uiso   1.00
C80    C     0.73883   0.01188   0.14644   0.00000  Uiso   1.00
C81    C     0.76117   0.32145   0.18689   0.00000  Uiso   1.00
C82    C     0.66465   0.16825   0.16768   0.00000  Uiso   1.00
C83    C     0.83535   0.16507   0.16565   0.00000  Uiso   1.00
C84    C     0.90950   0.20325   0.20429   0.00000  Uiso   1.00
Cu85   Cu    0.75501   0.17246   0.22813   0.00000  Uiso   1.00
Cu86   Cu    0.74500   0.16087   0.10521   0.00000  Uiso   1.00
H87    H     0.89348   0.23384   0.23448   0.00000  Uiso   1.00
H88    H     0.83966   0.07460   0.09556   0.00000  Uiso   1.00
H89    H     0.87675   0.07569   0.03614   0.00000  Uiso   1.00
H90    H     0.61193   0.29450   0.23801   0.00000  Uiso   1.00
H91    H     0.62335   0.25759   0.29714   0.00000  Uiso   1.00
H92    H     0.66031   0.25879   0.23757   0.00000  Uiso   1.00
H93    H     0.68132   0.01412   0.08090   0.00000  Uiso   1.00
H94    H     0.71493   0.29289   0.05959   0.00000  Uiso   1.00
H95    H     0.67750   0.29534   0.12080   0.00000  Uiso   1.00
H96    H     0.81869   0.31922   0.25242   0.00000  Uiso   1.00
H97    H     0.82250   0.03800   0.21253   0.00000  Uiso   1.00
H98    H     0.60653   0.09945   0.09890   0.00000  Uiso   1.00
H99    H     0.78508   0.04044   0.27374   0.00000  Uiso   1.00
H100   H     0.95413   0.05462   0.05201   0.00000  Uiso   1.00
H101   H     0.54587   0.27864   0.28139   0.00000  Uiso   1.00
H102   H     0.53458   0.05838   0.05554   0.00000  Uiso   1.00
H103   H     0.96543   0.27487   0.27786   0.00000  Uiso   1.00
H104   H     0.71534   0.12591   0.31619   0.00000  Uiso   1.00
H105   H     0.78466   0.20743   0.01714   0.00000  Uiso   1.00
H106   H     0.88800   0.03882   0.09536   0.00000  Uiso   1.00
N107   N     0.73745   0.15214   0.01284   0.00000  Uiso   1.00
N108   N     0.76256   0.18119   0.32049   0.00000  Uiso   1.00
O109   O     0.75326   0.09538   0.20659   0.00000  Uiso   1.00
O110   O     0.74675   0.23796   0.12674   0.00000  Uiso   1.00
O111   O     0.74480   0.08559   0.10279   0.00000  Uiso   1.00
O112   O     0.75520   0.24774   0.23055   0.00000  Uiso   1.00
O113   O     0.68936   0.17155   0.21857   0.00000  Uiso   1.00
O114   O     0.81065   0.16179   0.11476   0.00000  Uiso   1.00
O115   O     0.68090   0.16176   0.11477   0.00000  Uiso   1.00
O116   O     0.81910   0.17157   0.21857   0.00000  Uiso   1.00
C117   C     0.24707   0.40024   0.15187   0.00000  Uiso   1.00
C118   C     0.09051   0.46337   0.12907   0.00000  Uiso   1.00
C119   C     0.38340   0.49651   0.16403   0.00000  Uiso   1.00
C120   C     0.11660   0.50347   0.16930   0.00000  Uiso   1.00
C121   C     0.40327   0.45569   0.12471   0.00000  Uiso   1.00
C122   C     0.09674   0.54429   0.20862   0.00000  Uiso   1.00
C123   C     0.45042   0.45780   0.12465   0.00000  Uiso   1.00
C124   C     0.04959   0.54215   0.20871   0.00000  Uiso   1.00
C125   C     0.47650   0.49895   0.16589   0.00000  Uiso   1.00
C126   C     0.02351   0.50099   0.16749   0.00000  Uiso   1.00
C127   C     0.45571   0.53800   0.20583   0.00000  Uiso   1.00
C128   C     0.25293   0.59976   0.18146   0.00000  Uiso   1.00
C129   C     0.04429   0.46194   0.12755   0.00000  Uiso   1.00
C130   C     0.47234   0.41966   0.08493   0.00000  Uiso   1.00
C131   C     0.02766   0.58028   0.24846   0.00000  Uiso   1.00
C132   C     0.37520   0.40900   0.08575   0.00000  Uiso   1.00
C133   C     0.12480   0.59099   0.24753   0.00000  Uiso   1.00
C134   C     0.20115   0.65182   0.09932   0.00000  Uiso   1.00
C135   C     0.29885   0.34818   0.23401   0.00000  Uiso   1.00
C136   C     0.01869   0.42173   0.08656   0.00000  Uiso   1.00
C137   C     0.48131   0.57820   0.24684   0.00000  Uiso   1.00
C138   C     0.23883   0.34522   0.14644   0.00000  Uiso   1.00
C139   C     0.26117   0.65478   0.18689   0.00000  Uiso   1.00
C140   C     0.16465   0.50158   0.16768   0.00000  Uiso   1.00
C141   C     0.33535   0.49841   0.16565   0.00000  Uiso   1.00
C142   C     0.40950   0.53659   0.20429   0.00000  Uiso   1.00
Cu143  Cu    0.25501   0.50579   0.22813   0.00000  Uiso   1.00
Cu144  Cu    0.24500   0.49421   0.10521   0.00000  Uiso   1.00
H145   H     0.39348   0.56717   0.23448   0.00000  Uiso   1.00
H146   H     0.33966   0.40793   0.09556   0.00000  Uiso   1.00
H147   H     0.37675   0.40903   0.03614   0.00000  Uiso   1.00
H148   H     0.11193   0.62784   0.23801   0.00000  Uiso   1.00
H149   H     0.12335   0.59093   0.29714   0.00000  Uiso   1.00
H150   H     0.16031   0.59213   0.23757   0.00000  Uiso   1.00
H151   H     0.18132   0.34745   0.08090   0.00000  Uiso   1.00
H152   H     0.21493   0.62622   0.05959   0.00000  Uiso   1.00
H153   H     0.17750   0.62867   0.12080   0.00000  Uiso   1.00
H154   H     0.31869   0.65255   0.25242   0.00000  Uiso   1.00
H155   H     0.32250   0.37133   0.21253   0.00000  Uiso   1.00
H156   H     0.10653   0.43278   0.09890   0.00000  Uiso   1.00
H157   H     0.28508   0.37377   0.27374   0.00000  Uiso   1.00
H158   H     0.45413   0.38795   0.05201   0.00000  Uiso   1.00
H159   H     0.04587   0.61198   0.28139   0.00000  Uiso   1.00
H160   H     0.03458   0.39172   0.05554   0.00000  Uiso   1.00
H161   H     0.46543   0.60821   0.27786   0.00000  Uiso   1.00
H162   H     0.21534   0.45924   0.31619   0.00000  Uiso   1.00
H163   H     0.28466   0.54076   0.01714   0.00000  Uiso   1.00
H164   H     0.38800   0.37215   0.09536   0.00000  Uiso   1.00
N165   N     0.23745   0.48547   0.01284   0.00000  Uiso   1.00
N166   N     0.26256   0.51453   0.32049   0.00000  Uiso   1.00
O167   O     0.25326   0.42871   0.20659   0.00000  Uiso   1.00
O168   O     0.24675   0.57129   0.12674   0.00000  Uiso   1.00
O169   O     0.24480   0.41892   0.10279   0.00000  Uiso   1.00
O170   O     0.25520   0.58108   0.23055   0.00000  Uiso   1.00
O171   O     0.18936   0.50488   0.21857   0.00000  Uiso   1.00
O172   O     0.31065   0.49512   0.11476   0.00000  Uiso   1.00
O173   O     0.18090   0.49510   0.11477   0.00000  Uiso   1.00
O174   O     0.31910   0.50490   0.21857   0.00000  Uiso   1.00
C175   C     0.74707   0.40024   0.15187   0.00000  Uiso   1.00
C176   C     0.59051   0.46337   0.12907   0.00000  Uiso   1.00
C177   C     0.88340   0.49651   0.16403   0.00000  Uiso   1.00
C178   C     0.61660   0.50347   0.16930   0.00000  Uiso   1.00
C179   C     0.90327   0.45569   0.12471   0.00000  Uiso   1.00
C180   C     0.59674   0.54429   0.20862   0.00000  Uiso   1.00
C181   C     0.95042   0.45780   0.12465   0.00000  Uiso   1.00
C182   C     0.54959   0.54215   0.20871   0.00000  Uiso   1.00
C183   C     0.97650   0.49895   0.16589   0.00000  Uiso   1.00
C184   C     0.52351   0.50099   0.16749   0.00000  Uiso   1.00
C185   C     0.95571   0.53800   0.20583   0.00000  Uiso   1.00
C186   C     0.75293   0.59976   0.18146   0.00000  Uiso   1.00
C187   C     0.54429   0.46194   0.12755   0.00000  Uiso   1.00
C188   C     0.97234   0.41966   0.08493   0.00000  Uiso   1.00
C189   C     0.52766   0.58028   0.24846   0.00000  Uiso   1.00
C190   C     0.87520   0.40900   0.08575   0.00000  Uiso   1.00
C191   C     0.62480   0.59099   0.24753   0.00000  Uiso   1.00
C192   C     0.70115   0.65182   0.09932   0.00000  Uiso   1.00
C193   C     0.79885   0.34818   0.23401   0.00000  Uiso   1.00
C194   C     0.51869   0.42173   0.08656   0.00000  Uiso   1.00
C195   C     0.98131   0.57820   0.24684   0.00000  Uiso   1.00
C196   C     0.73883   0.34522   0.14644   0.00000  Uiso   1.00
C197   C     0.76117   0.65478   0.18689   0.00000  Uiso   1.00
C198   C     0.66465   0.50158   0.16768   0.00000  Uiso   1.00
C199   C     0.83535   0.49841   0.16565   0.00000  Uiso   1.00
C200   C     0.90950   0.53659   0.20429   0.00000  Uiso   1.00
Cu201  Cu    0.75501   0.50579   0.22813   0.00000  Uiso   1.00
Cu202  Cu    0.74500   0.49421   0.10521   0.00000  Uiso   1.00
H203   H     0.89348   0.56717   0.23448   0.00000  Uiso   1.00
H204   H     0.83966   0.40793   0.09556   0.00000  Uiso   1.00
H205   H     0.87675   0.40903   0.03614   0.00000  Uiso   1.00
H206   H     0.61193   0.62784   0.23801   0.00000  Uiso   1.00
H207   H     0.62335   0.59093   0.29714   0.00000  Uiso   1.00
H208   H     0.66031   0.59213   0.23757   0.00000  Uiso   1.00
H209   H     0.68132   0.34745   0.08090   0.00000  Uiso   1.00
H210   H     0.71493   0.62622   0.05959   0.00000  Uiso   1.00
H211   H     0.67750   0.62867   0.12080   0.00000  Uiso   1.00
H212   H     0.81869   0.65255   0.25242   0.00000  Uiso   1.00
H213   H     0.82250   0.37133   0.21253   0.00000  Uiso   1.00
H214   H     0.60653   0.43278   0.09890   0.00000  Uiso   1.00
H215   H     0.78508   0.37377   0.27374   0.00000  Uiso   1.00
H216   H     0.95413   0.38795   0.05201   0.00000  Uiso   1.00
H217   H     0.54587   0.61198   0.28139   0.00000  Uiso   1.00
H218   H     0.53458   0.39172   0.05554   0.00000  Uiso   1.00
H219   H     0.96543   0.60821   0.27786   0.00000  Uiso   1.00
H220   H     0.71534   0.45924   0.31619   0.00000  Uiso   1.00
H221   H     0.78466   0.54076   0.01714   0.00000  Uiso   1.00
H222   H     0.88800   0.37215   0.09536   0.00000  Uiso   1.00
N223   N     0.73745   0.48547   0.01284   0.00000  Uiso   1.00
N224   N     0.76256   0.51453   0.32049   0.00000  Uiso   1.00
O225   O     0.75326   0.42871   0.20659   0.00000  Uiso   1.00
O226   O     0.74675   0.57129   0.12674   0.00000  Uiso   1.00
O227   O     0.74480   0.41892   0.10279   0.00000  Uiso   1.00
O228   O     0.75520   0.58108   0.23055   0.00000  Uiso   1.00
O229   O     0.68936   0.50488   0.21857   0.00000  Uiso   1.00
O230   O     0.81065   0.49512   0.11476   0.00000  Uiso   1.00
O231   O     0.68090   0.49510   0.11477   0.00000  Uiso   1.00
O232   O     0.81910   0.50490   0.21857   0.00000  Uiso   1.00
C233   C     0.24707   0.73357   0.15187   0.00000  Uiso   1.00
C234   C     0.09051   0.79670   0.12907   0.00000  Uiso   1.00
C235   C     0.38340   0.82984   0.16403   0.00000  Uiso   1.00
C236   C     0.11660   0.83680   0.16930   0.00000  Uiso   1.00
C237   C     0.40327   0.78902   0.12471   0.00000  Uiso   1.00
C238   C     0.09674   0.87762   0.20862   0.00000  Uiso   1.00
C239   C     0.45042   0.79114   0.12465   0.00000  Uiso   1.00
C240   C     0.04959   0.87548   0.20871   0.00000  Uiso   1.00
C241   C     0.47650   0.83228   0.16589   0.00000  Uiso   1.00
C242   C     0.02351   0.83433   0.16749   0.00000  Uiso   1.00
C243   C     0.45571   0.87133   0.20583   0.00000  Uiso   1.00
C244   C     0.25293   0.93310   0.18146   0.00000  Uiso   1.00
C245   C     0.04429   0.79528   0.12755   0.00000  Uiso   1.00
C246   C     0.47234   0.75299   0.08493   0.00000  Uiso   1.00
C247   C     0.02766   0.91361   0.24846   0.00000  Uiso   1.00
C248   C     0.37520   0.74234   0.08575   0.00000  Uiso   1.00
C249   C     0.12480   0.92433   0.24753   0.00000  Uiso   1.00
C250   C     0.20115   0.98515   0.09932   0.00000  Uiso   1.00
C251   C     0.29885   0.68152   0.23401   0.00000  Uiso   1.00
C252   C     0.01869   0.75507   0.08656   0.00000  Uiso   1.00
C253   C     0.48131   0.91153   0.24684   0.00000  Uiso   1.00
C254   C     0.23883   0.67855   0.14644   0.00000  Uiso   1.00
C255   C     0.26117   0.98812   0.18689   0.00000  Uiso   1.00
C256   C     0.16465   0.83492   0.16768   0.00000  Uiso   1.00
C257   C     0.33535   0.83174   0.16565   0.00000  Uiso   1.00
C258   C     0.40950   0.86992   0.20429   0.00000  Uiso   1.00
Cu259  Cu    0.25501   0.83913   0.22813   0.00000  Uiso   1.00
Cu260  Cu    0.24500   0.82754   0.10521   0.00000  Uiso   1.00
H261   H     0.39348   0.90050   0.23448   0.00000  Uiso   1.00
H262   H     0.33966   0.74126   0.09556   0.00000  Uiso   1.00
H263   H     0.37675   0.74236   0.03614   0.00000  Uiso   1.00
H264   H     0.11193   0.96117   0.23801   0.00000  Uiso   1.00
H265   H     0.12335   0.92426   0.29714   0.00000  Uiso   1.00
H266   H     0.16031   0.92546   0.23757   0.00000  Uiso   1.00
H267   H     0.18132   0.68078   0.08090   0.00000  Uiso   1.00
H268   H     0.21493   0.95956   0.05959   0.00000  Uiso   1.00
H269   H     0.17750   0.96200   0.12080   0.00000  Uiso   1.00
H270   H     0.31869   0.98588   0.25242   0.00000  Uiso   1.00
H271   H     0.32250   0.70466   0.21253   0.00000  Uiso   1.00
H272   H     0.10653   0.76611   0.09890   0.00000  Uiso   1.00
H273   H     0.28508   0.70711   0.27374   0.00000  Uiso   1.00
H274   H     0.45413   0.72128   0.05201   0.00000  Uiso   1.00
H275   H     0.04587   0.94531   0.28139   0.00000  Uiso   1.00
H276   H     0.03458   0.72505   0.05554   0.00000  Uiso   1.00
H277   H     0.46543   0.94154   0.27786   0.00000  Uiso   1.00
H278   H     0.21534   0.79257   0.31619   0.00000  Uiso   1.00
H279   H     0.28466   0.87409   0.01714   0.00000  Uiso   1.00
H280   H     0.38800   0.70548   0.09536   0.00000  Uiso   1.00
N281   N     0.23745   0.81881   0.01284   0.00000  Uiso   1.00
N282   N     0.26256   0.84786   0.32049   0.00000  Uiso   1.00
O283   O     0.25326   0.76204   0.20659   0.00000  Uiso   1.00
O284   O     0.24675   0.90462   0.12674   0.00000  Uiso   1.00
O285   O     0.24480   0.75226   0.10279   0.00000  Uiso   1.00
O286   O     0.25520   0.91441   0.23055   0.00000  Uiso   1.00
O287   O     0.18936   0.83821   0.21857   0.00000  Uiso   1.00
O288   O     0.31065   0.82845   0.11476   0.00000  Uiso   1.00
O289   O     0.18090   0.82843   0.11477   0.00000  Uiso   1.00
O290   O     0.31910   0.83824   0.21857   0.00000  Uiso   1.00
C291   C     0.74707   0.73357   0.15187   0.00000  Uiso   1.00
C292   C     0.59051   0.79670   0.12907   0.00000  Uiso   1.00
C293   C     0.88340   0.82984   0.16403   0.00000  Uiso   1.00
C294   C     0.61660   0.83680   0.16930   0.00000  Uiso   1.00
C295   C     0.90327   0.78902   0.12471   0.00000  Uiso   1.00
C296   C     0.59674   0.87762   0.20862   0.00000  Uiso   1.00
C297   C     0.95042   0.79114   0.12465   0.00000  Uiso   1.00
C298   C     0.54959   0.87548   0.20871   0.00000  Uiso   1.00
C299   C     0.97650   0.83228   0.16589   0.00000  Uiso   1.00
C300   C     0.52351   0.83433   0.16749   0.00000  Uiso   1.00
C301   C     0.95571   0.87133   0.20583   0.00000  Uiso   1.00
C302   C     0.75293   0.93310   0.18146   0.00000  Uiso   1.00
C303   C     0.54429   0.79528   0.12755   0.00000  Uiso   1.00
C304   C     0.97234   0.75299   0.08493   0.00000  Uiso   1.00
C305   C     0.52766   0.91361   0.24846   0.00000  Uiso   1.00
C306   C     0.87520   0.74234   0.08575   0.00000  Uiso   1.00
C307   C     0.62480   0.92433   0.24753   0.00000  Uiso   1.00
C308   C     0.70115   0.98515   0.09932   0.00000  Uiso   1.00
C309   C     0.79885   0.68152   0.23401   0.00000  Uiso   1.00
C310   C     0.51869   0.75507   0.08656   0.00000  Uiso   1.00
C311   C     0.98131   0.91153   0.24684   0.00000  Uiso   1.00
C312   C     0.73883   0.67855   0.14644   0.00000  Uiso   1.00
C313   C     0.76117   0.98812   0.18689   0.00000  Uiso   1.00
C314   C     0.66465   0.83492   0.16768   0.00000  Uiso   1.00
C315   C     0.83535   0.83174   0.16565   0.00000  Uiso   1.00
C316   C     0.90950   0.86992   0.20429   0.00000  Uiso   1.00
Cu317  Cu    0.75501   0.83913   0.22813   0.00000  Uiso   1.00
Cu318  Cu    0.74500   0.82754   0.10521   0.00000  Uiso   1.00
H319   H     0.89348   0.90050   0.23448   0.00000  Uiso   1.00
H320   H     0.83966   0.74126   0.09556   0.00000  Uiso   1.00
H321   H     0.87675   0.74236   0.03614   0.00000  Uiso   1.00
H322   H     0.61193   0.96117   0.23801   0.00000  Uiso   1.00
H323   H     0.62335   0.92426   0.29714   0.00000  Uiso   1.00
H324   H     0.66031   0.92546   0.23757   0.00000  Uiso   1.00
H325   H     0.68132   0.68078   0.08090   0.00000  Uiso   1.00
H326   H     0.71493   0.95956   0.05959   0.00000  Uiso   1.00
H327   H     0.67750   0.96200   0.12080   0.00000  Uiso   1.00
H328   H     0.81869   0.98588   0.25242   0.00000  Uiso   1.00
H329   H     0.82250   0.70466   0.21253   0.00000  Uiso   1.00
H330   H     0.60653   0.76611   0.09890   0.00000  Uiso   1.00
H331   H     0.78508   0.70711   0.27374   0.00000  Uiso   1.00
H332   H     0.95413   0.72128   0.05201   0.00000  Uiso   1.00
H333   H     0.54587   0.94531   0.28139   0.00000  Uiso   1.00
H334   H     0.53458   0.72505   0.05554   0.00000  Uiso   1.00
H335   H     0.96543   0.94154   0.27786   0.00000  Uiso   1.00
H336   H     0.71534   0.79257   0.31619   0.00000  Uiso   1.00
H337   H     0.78466   0.87409   0.01714   0.00000  Uiso   1.00
H338   H     0.88800   0.70548   0.09536   0.00000  Uiso   1.00
N339   N     0.73745   0.81881   0.01284   0.00000  Uiso   1.00
N340   N     0.76256   0.84786   0.32049   0.00000  Uiso   1.00
O341   O     0.75326   0.76204   0.20659   0.00000  Uiso   1.00
O342   O     0.74675   0.90462   0.12674   0.00000  Uiso   1.00
O343   O     0.74480   0.75226   0.10279   0.00000  Uiso   1.00
O344   O     0.75520   0.91441   0.23055   0.00000  Uiso   1.00
O345   O     0.68936   0.83821   0.21857   0.00000  Uiso   1.00
O346   O     0.81065   0.82845   0.11476   0.00000  Uiso   1.00
O347   O     0.68090   0.82843   0.11477   0.00000  Uiso   1.00
O348   O     0.81910   0.83824   0.21857   0.00000  Uiso   1.00
C349   C     0.24707   0.06690   0.48520   0.00000  Uiso   1.00
C350   C     0.09051   0.13003   0.46240   0.00000  Uiso   1.00
C351   C     0.38340   0.16317   0.49736   0.00000  Uiso   1.00
C352   C     0.11660   0.17014   0.50264   0.00000  Uiso   1.00
C353   C     0.40327   0.12235   0.45804   0.00000  Uiso   1.00
C354   C     0.09674   0.21095   0.54195   0.00000  Uiso   1.00
C355   C     0.45042   0.12447   0.45799   0.00000  Uiso   1.00
C356   C     0.04959   0.20881   0.54205   0.00000  Uiso   1.00
C357   C     0.47650   0.16562   0.49922   0.00000  Uiso   1.00
C358   C     0.02351   0.16766   0.50082   0.00000  Uiso   1.00
C359   C     0.45571   0.20466   0.53916   0.00000  Uiso   1.00
C360   C     0.25293   0.26643   0.51480   0.00000  Uiso   1.00
C361   C     0.04429   0.12861   0.46088   0.00000  Uiso   1.00
C362   C     0.47234   0.08632   0.41826   0.00000  Uiso   1.00
C363   C     0.02766   0.24695   0.58179   0.00000  Uiso   1.00
C364   C     0.37520   0.07567   0.41909   0.00000  Uiso   1.00
C365   C     0.12480   0.25766   0.58086   0.00000  Uiso   1.00
C366   C     0.20115   0.31848   0.43265   0.00000  Uiso   1.00
C367   C     0.29885   0.01485   0.56734   0.00000  Uiso   1.00
C368   C     0.01869   0.08840   0.41989   0.00000  Uiso   1.00
C369   C     0.48131   0.24486   0.58017   0.00000  Uiso   1.00
C370   C     0.23883   0.01188   0.47977   0.00000  Uiso   1.00
C371   C     0.26117   0.32145   0.52023   0.00000  Uiso   1.00
C372   C     0.16465   0.16825   0.50101   0.00000  Uiso   1.00
C373   C     0.33535   0.16507   0.49899   0.00000  Uiso   1.00
C374   C     0.40950   0.20325   0.53763   0.00000  Uiso   1.00
Cu375  Cu    0.25501   0.17246   0.56146   0.00000  Uiso   1.00
Cu376  Cu    0.24500   0.16087   0.43854   0.00000  Uiso   1.00
H377   H     0.39348   0.23384   0.56781   0.00000  Uiso   1.00
H378   H     0.33966   0.07460   0.42889   0.00000  Uiso   1.00
H379   H     0.37675   0.07569   0.36948   0.00000  Uiso   1.00
H380   H     0.11193   0.29450   0.57135   0.00000  Uiso   1.00
H381   H     0.12335   0.25759   0.63047   0.00000  Uiso   1.00
H382   H     0.16031   0.25879   0.57090   0.00000  Uiso   1.00
H383   H     0.18132   0.01412   0.41424   0.00000  Uiso   1.00
H384   H     0.21493   0.29289   0.39292   0.00000  Uiso   1.00
H385   H     0.17750   0.29534   0.45414   0.00000  Uiso   1.00
H386   H     0.31869   0.31922   0.58576   0.00000  Uiso   1.00
H387   H     0.32250   0.03800   0.54586   0.00000  Uiso   1.00
H388   H     0.10653   0.09945   0.43223   0.00000  Uiso   1.00
H389   H     0.28508   0.04044   0.60708   0.00000  Uiso   1.00
H390   H     0.45413   0.05462   0.38535   0.00000  Uiso   1.00
H391   H     0.04587   0.27864   0.61472   0.00000  Uiso   1.00
H392   H     0.03458   0.05838   0.38887   0.00000  Uiso   1.00
H393   H     0.46543   0.27487   0.61120   0.00000  Uiso   1.00
H394   H     0.21534   0.12591   0.64953   0.00000  Uiso   1.00
H395   H     0.28466   0.20743   0.35047   0.00000  Uiso   1.00
H396   H     0.38800   0.03882   0.42870   0.00000  Uiso   1.00
N397   N     0.23745   0.15214   0.34617   0.00000  Uiso   1.00
N398   N     0.26256   0.18119   0.65383   0.00000  Uiso   1.00
O399   O     0.25326   0.09538   0.53992   0.00000  Uiso   1.00
O400   O     0.24675   0.23796   0.46008   0.00000  Uiso   1.00
O401   O     0.24480   0.08559   0.43612   0.00000  Uiso   1.00
O402   O     0.25520   0.24774   0.56388   0.00000  Uiso   1.00
O403   O     0.18936   0.17155   0.55191   0.00000  Uiso   1.00
O404   O     0.31065   0.16179   0.44809   0.00000  Uiso   1.00
O405   O     0.18090   0.16176   0.44810   0.00000  Uiso   1.00
O406   O     0.31910   0.17157   0.55190   0.00000  Uiso   1.00
C407   C     0.74707   0.06690   0.48520   0.00000  Uiso   1.00
C408   C     0.59051   0.13003   0.46240   0.00000  Uiso   1.00
C409   C     0.88340   0.16317   0.49736   0.00000  Uiso   1.00
C410   C     0.61660   0.17014   0.50264   0.00000  Uiso   1.00
C411   C     0.90327   0.12235   0.45804   0.00000  Uiso   1.00
C412   C     0.59674   0.21095   0.54195   0.00000  Uiso   1.00
C413   C     0.95042   0.12447   0.45799   0.00000  Uiso   1.00
C414   C     0.54959   0.20881   0.54205   0.00000  Uiso   1.00
C415   C     0.97650   0.16562   0.49922   0.00000  Uiso   1.00
C416   C     0.52351   0.16766   0.50082   0.00000  Uiso   1.00
C417   C     0.95571   0.20466   0.53916   0.00000  Uiso   1.00
C418   C     0.75293   0.26643   0.51480   0.00000  Uiso   1.00
C419   C     0.54429   0.12861   0.46088   0.00000  Uiso   1.00
C420   C     0.97234   0.08632   0.41826   0.00000  Uiso   1.00
C421   C     0.52766   0.24695   0.58179   0.00000  Uiso   1.00
C422   C     0.87520   0.07567   0.41909   0.00000  Uiso   1.00
C423   C     0.62480   0.25766   0.58086   0.00000  Uiso   1.00
C424   C     0.70115   0.31848   0.43265   0.00000  Uiso   1.00
C425   C     0.79885   0.01485   0.56734   0.00000  Uiso   1.00
C426   C     0.51869   0.08840   0.41989   0.00000  Uiso   1.00
C427   C     0.98131   0.24486   0.58017   0.00000  Uiso   1.00
C428   C     0.73883   0.01188   0.47977   0.00000  Uiso   1.00
C429   C     0.76117   0.32145   0.52023   0.00000  Uiso   1.00
C430   C     0.66465   0.16825   0.50101   0.00000  Uiso   1.00
C431   C     0.83535   0.16507   0.49899   0.00000  Uiso   1.00
C432   C     0.90950   0.20325   0.53763   0.00000  Uiso   1.00
Cu433  Cu    0.75501   0.17246   0.56146   0.00000  Uiso   1.00
Cu434  Cu    0.74500   0.16087   0.43854   0.00000  Uiso   1.00
H435   H     0.89348   0.23384   0.56781   0.00000  Uiso   1.00
H436   H     0.83966   0.07460   0.42889   0.00000  Uiso   1.00
H437   H     0.87675   0.07569   0.36948   0.00000  Uiso   1.00
H438   H     0.61193   0.29450   0.57135   0.00000  Uiso   1.00
H439   H     0.62335   0.25759   0.63047   0.00000  Uiso   1.00
H440   H     0.66031   0.25879   0.57090   0.00000  Uiso   1.00
H441   H     0.68132   0.01412   0.41424   0.00000  Uiso   1.00
H442   H     0.71493   0.29289   0.39292   0.00000  Uiso   1.00
H443   H     0.67750   0.29534   0.45414   0.00000  Uiso   1.00
H444   H     0.81869   0.31922   0.58576   0.00000  Uiso   1.00
H445   H     0.82250   0.03800   0.54586   0.00000  Uiso   1.00
H446   H     0.60653   0.09945   0.43223   0.00000  Uiso   1.00
H447   H     0.78508   0.04044   0.60708   0.00000  Uiso   1.00
H448   H     0.95413   0.05462   0.38535   0.00000  Uiso   1.00
H449   H     0.54587   0.27864   0.61472   0.00000  Uiso   1.00
H450   H     0.53458   0.05838   0.38887   0.00000  Uiso   1.00
H451   H     0.96543   0.27487   0.61120   0.00000  Uiso   1.00
H452   H     0.71534   0.12591   0.64953   0.00000  Uiso   1.00
H453   H     0.78466   0.20743   0.35047   0.00000  Uiso   1.00
H454   H     0.88800   0.03882   0.42870   0.00000  Uiso   1.00
N455   N     0.73745   0.15214   0.34617   0.00000  Uiso   1.00
N456   N     0.76256   0.18119   0.65383   0.00000  Uiso   1.00
O457   O     0.75326   0.09538   0.53992   0.00000  Uiso   1.00
O458   O     0.74675   0.23796   0.46008   0.00000  Uiso   1.00
O459   O     0.74480   0.08559   0.43612   0.00000  Uiso   1.00
O460   O     0.75520   0.24774   0.56388   0.00000  Uiso   1.00
O461   O     0.68936   0.17155   0.55191   0.00000  Uiso   1.00
O462   O     0.81065   0.16179   0.44809   0.00000  Uiso   1.00
O463   O     0.68090   0.16176   0.44810   0.00000  Uiso   1.00
O464   O     0.81910   0.17157   0.55190   0.00000  Uiso   1.00
C465   C     0.24707   0.40024   0.48520   0.00000  Uiso   1.00
C466   C     0.09051   0.46337   0.46240   0.00000  Uiso   1.00
C467   C     0.38340   0.49651   0.49736   0.00000  Uiso   1.00
C468   C     0.11660   0.50347   0.50264   0.00000  Uiso   1.00
C469   C     0.40327   0.45569   0.45804   0.00000  Uiso   1.00
C470   C     0.09674   0.54429   0.54195   0.00000  Uiso   1.00
C471   C     0.45042   0.45780   0.45799   0.00000  Uiso   1.00
C472   C     0.04959   0.54215   0.54205   0.00000  Uiso   1.00
C473   C     0.47650   0.49895   0.49922   0.00000  Uiso   1.00
C474   C     0.02351   0.50099   0.50082   0.00000  Uiso   1.00
C475   C     0.45571   0.53800   0.53916   0.00000  Uiso   1.00
C476   C     0.25293   0.59976   0.51480   0.00000  Uiso   1.00
C477   C     0.04429   0.46194   0.46088   0.00000  Uiso   1.00
C478   C     0.47234   0.41966   0.41826   0.00000  Uiso   1.00
C479   C     0.02766   0.58028   0.58179   0.00000  Uiso   1.00
C480   C     0.37520   0.40900   0.41909   0.00000  Uiso   1.00
C481   C     0.12480   0.59099   0.58086   0.00000  Uiso   1.00
C482   C     0.20115   0.65182   0.43265   0.00000  Uiso   1.00
C483   C     0.29885   0.34818   0.56734   0.00000  Uiso   1.00
C484   C     0.01869   0.42173   0.41989   0.00000  Uiso   1.00
C485   C     0.48131   0.57820   0.58017   0.00000  Uiso   1.00
C486   C     0.23883   0.34522   0.47977   0.00000  Uiso   1.00
C487   C     0.26117   0.65478   0.52023   0.00000  Uiso   1.00
C488   C     0.16465   0.50158   0.50101   0.00000  Uiso   1.00
C489   C     0.33535   0.49841   0.49899   0.00000  Uiso   1.00
C490   C     0.40950   0.53659   0.53763   0.00000  Uiso   1.00
Cu491  Cu    0.25501   0.50579   0.56146   0.00000  Uiso   1.00
Cu492  Cu    0.24500   0.49421   0.43854   0.00000  Uiso   1.00
H493   H     0.39348   0.56717   0.56781   0.00000  Uiso   1.00
H494   H     0.33966   0.40793   0.42889   0.00000  Uiso   1.00
H495   H     0.37675   0.40903   0.36948   0.00000  Uiso   1.00
H496   H     0.11193   0.62784   0.57135   0.00000  Uiso   1.00
H497   H     0.12335   0.59093   0.63047   0.00000  Uiso   1.00
H498   H     0.16031   0.59213   0.57090   0.00000  Uiso   1.00
H499   H     0.18132   0.34745   0.41424   0.00000  Uiso   1.00
H500   H     0.21493   0.62622   0.39292   0.00000  Uiso   1.00
H501   H     0.17750   0.62867   0.45414   0.00000  Uiso   1.00
H502   H     0.31869   0.65255   0.58576   0.00000  Uiso   1.00
H503   H     0.32250   0.37133   0.54586   0.00000  Uiso   1.00
H504   H     0.10653   0.43278   0.43223   0.00000  Uiso   1.00
H505   H     0.28508   0.37377   0.60708   0.00000  Uiso   1.00
H506   H     0.45413   0.38795   0.38535   0.00000  Uiso   1.00
H507   H     0.04587   0.61198   0.61472   0.00000  Uiso   1.00
H508   H     0.03458   0.39172   0.38887   0.00000  Uiso   1.00
H509   H     0.46543   0.60821   0.61120   0.00000  Uiso   1.00
H510   H     0.21534   0.45924   0.64953   0.00000  Uiso   1.00
H511   H     0.28466   0.54076   0.35047   0.00000  Uiso   1.00
H512   H     0.38800   0.37215   0.42870   0.00000  Uiso   1.00
N513   N     0.23745   0.48547   0.34617   0.00000  Uiso   1.00
N514   N     0.26256   0.51453   0.65383   0.00000  Uiso   1.00
O515   O     0.25326   0.42871   0.53992   0.00000  Uiso   1.00
O516   O     0.24675   0.57129   0.46008   0.00000  Uiso   1.00
O517   O     0.24480   0.41892   0.43612   0.00000  Uiso   1.00
O518   O     0.25520   0.58108   0.56388   0.00000  Uiso   1.00
O519   O     0.18936   0.50488   0.55191   0.00000  Uiso   1.00
O520   O     0.31065   0.49512   0.44809   0.00000  Uiso   1.00
O521   O     0.18090   0.49510   0.44810   0.00000  Uiso   1.00
O522   O     0.31910   0.50490   0.55190   0.00000  Uiso   1.00
C523   C     0.74707   0.40024   0.48520   0.00000  Uiso   1.00
C524   C     0.59051   0.46337   0.46240   0.00000  Uiso   1.00
C525   C     0.88340   0.49651   0.49736   0.00000  Uiso   1.00
C526   C     0.61660   0.50347   0.50264   0.00000  Uiso   1.00
C527   C     0.90327   0.45569   0.45804   0.00000  Uiso   1.00
C528   C     0.59674   0.54429   0.54195   0.00000  Uiso   1.00
C529   C     0.95042   0.45780   0.45799   0.00000  Uiso   1.00
C530   C     0.54959   0.54215   0.54205   0.00000  Uiso   1.00
C531   C     0.97650   0.49895   0.49922   0.00000  Uiso   1.00
C532   C     0.52351   0.50099   0.50082   0.00000  Uiso   1.00
C533   C     0.95571   0.53800   0.53916   0.00000  Uiso   1.00
C534   C     0.75293   0.59976   0.51480   0.00000  Uiso   1.00
C535   C     0.54429   0.46194   0.46088   0.00000  Uiso   1.00
C536   C     0.97234   0.41966   0.41826   0.00000  Uiso   1.00
C537   C     0.52766   0.58028   0.58179   0.00000  Uiso   1.00
C538   C     0.87520   0.40900   0.41909   0.00000  Uiso   1.00
C539   C     0.62480   0.59099   0.58086   0.00000  Uiso   1.00
C540   C     0.70115   0.65182   0.43265   0.00000  Uiso   1.00
C541   C     0.79885   0.34818   0.56734   0.00000  Uiso   1.00
C542   C     0.51869   0.42173   0.41989   0.00000  Uiso   1.00
C543   C     0.98131   0.57820   0.58017   0.00000  Uiso   1.00
C544   C     0.73883   0.34522   0.47977   0.00000  Uiso   1.00
C545   C     0.76117   0.65478   0.52023   0.00000  Uiso   1.00
C546   C     0.66465   0.50158   0.50101   0.00000  Uiso   1.00
C547   C     0.83535   0.49841   0.49899   0.00000  Uiso   1.00
C548   C     0.90950   0.53659   0.53763   0.00000  Uiso   1.00
Cu549  Cu    0.75501   0.50579   0.56146   0.00000  Uiso   1.00
Cu550  Cu    0.74500   0.49421   0.43854   0.00000  Uiso   1.00
H551   H     0.89348   0.56717   0.56781   0.00000  Uiso   1.00
H552   H     0.83966   0.40793   0.42889   0.00000  Uiso   1.00
H553   H     0.87675   0.40903   0.36948   0.00000  Uiso   1.00
H554   H     0.61193   0.62784   0.57135   0.00000  Uiso   1.00
H555   H     0.62335   0.59093   0.63047   0.00000  Uiso   1.00
H556   H     0.66031   0.59213   0.57090   0.00000  Uiso   1.00
H557   H     0.68132   0.34745   0.41424   0.00000  Uiso   1.00
H558   H     0.71493   0.62622   0.39292   0.00000  Uiso   1.00
H559   H     0.67750   0.62867   0.45414   0.00000  Uiso   1.00
H560   H     0.81869   0.65255   0.58576   0.00000  Uiso   1.00
H561   H     0.82250   0.37133   0.54586   0.00000  Uiso   1.00
H562   H     0.60653   0.43278   0.43223   0.00000  Uiso   1.00
H563   H     0.78508   0.37377   0.60708   0.00000  Uiso   1.00
H564   H     0.95413   0.38795   0.38535   0.00000  Uiso   1.00
H565   H     0.54587   0.61198   0.61472   0.00000  Uiso   1.00
H566   H     0.53458   0.39172   0.38887   0.00000  Uiso   1.00
H567   H     0.96543   0.60821   0.61120   0.00000  Uiso   1.00
H568   H     0.71534   0.45924   0.64953   0.00000  Uiso   1.00
H569   H     0.78466   0.54076   0.35047   0.00000  Uiso   1.00
H570   H     0.88800   0.37215   0.42870   0.00000  Uiso   1.00
N571   N     0.73745   0.48547   0.34617   0.00000  Uiso   1.00
N572   N     0.76256   0.51453   0.65383   0.00000  Uiso   1.00
O573   O     0.75326   0.42871   0.53992   0.00000  Uiso   1.00
O574   O     0.74675   0.57129   0.46008   0.00000  Uiso   1.00
O575   O     0.74480   0.41892   0.43612   0.00000  Uiso   1.00
O576   O     0.75520   0.58108   0.56388   0.00000  Uiso   1.00
O577   O     0.68936   0.50488   0.55191   0.00000  Uiso   1.00
O578   O     0.81065   0.49512   0.44809   0.00000  Uiso   1.00
O579   O     0.68090   0.49510   0.44810   0.00000  Uiso   1.00
O580   O     0.81910   0.50490   0.55190   0.00000  Uiso   1.00
C581   C     0.24707   0.73357   0.48520   0.00000  Uiso   1.00
C582   C     0.09051   0.79670   0.46240   0.00000  Uiso   1.00
C583   C     0.38340   0.82984   0.49736   0.00000  Uiso   1.00
C584   C     0.11660   0.83680   0.50264   0.00000  Uiso   1.00
C585   C     0.40327   0.78902   0.45804   0.00000  Uiso   1.00
C586   C     0.09674   0.87762   0.54195   0.00000  Uiso   1.00
C587   C     0.45042   0.79114   0.45799   0.00000  Uiso   1.00
C588   C     0.04959   0.87548   0.54205   0.00000  Uiso   1.00
C589   C     0.47650   0.83228   0.49922   0.00000  Uiso   1.00
C590   C     0.02351   0.83433   0.50082   0.00000  Uiso   1.00
C591   C     0.45571   0.87133   0.53916   0.00000  Uiso   1.00
C592   C     0.25293   0.93310   0.51480   0.00000  Uiso   1.00
C593   C     0.04429   0.79528   0.46088   0.00000  Uiso   1.00
C594   C     0.47234   0.75299   0.41826   0.00000  Uiso   1.00
C595   C     0.02766   0.91361   0.58179   0.00000  Uiso   1.00
C596   C     0.37520   0.74234   0.41909   0.00000  Uiso   1.00
C597   C     0.12480   0.92433   0.58086   0.00000  Uiso   1.00
C598   C     0.20115   0.98515   0.43265   0.00000  Uiso   1.00
C599   C     0.29885   0.68152   0.56734   0.00000  Uiso   1.00
C600   C     0.01869   0.75507   0.41989   0.00000  Uiso   1.00
C601   C     0.48131   0.91153   0.58017   0.00000  Uiso   1.00
C602   C     0.23883   0.67855   0.47977   0.00000  Uiso   1.00
C603   C     0.26117   0.98812   0.52023   0.00000  Uiso   1.00
C604   C     0.16465   0.83492   0.50101   0.00000  Uiso   1.00
C605   C     0.33535   0.83174   0.49899   0.00000  Uiso   1.00
C606   C     0.40950   0.86992   0.53763   0.00000  Uiso   1.00
Cu607  Cu    0.25501   0.83913   0.56146   0.00000  Uiso   1.00
Cu608  Cu    0.24500   0.82754   0.43854   0.00000  Uiso   1.00
H609   H     0.39348   0.90050   0.56781   0.00000  Uiso   1.00
H610   H     0.33966   0.74126   0.42889   0.00000  Uiso   1.00
H611   H     0.37675   0.74236   0.36948   0.00000  Uiso   1.00
H612   H     0.11193   0.96117   0.57135   0.00000  Uiso   1.00
H613   H     0.12335   0.92426   0.63047   0.00000  Uiso   1.00
H614   H     0.16031   0.92546   0.57090   0.00000  Uiso   1.00
H615   H     0.18132   0.68078   0.41424   0.00000  Uiso   1.00
H616   H     0.21493   0.95956   0.39292   0.00000  Uiso   1.00
H617   H     0.17750   0.96200   0.45414   0.00000  Uiso   1.00
H618   H     0.31869   0.98588   0.58576   0.00000  Uiso   1.00
H619   H     0.32250   0.70466   0.54586   0.00000  Uiso   1.00
H620   H     0.10653   0.76611   0.43223   0.00000  Uiso   1.00
H621   H     0.28508   0.70711   0.60708   0.00000  Uiso   1.00
H622   H     0.45413   0.72128   0.38535   0.00000  Uiso   1.00
H623   H     0.04587   0.94531   0.61472   0.00000  Uiso   1.00
H624   H     0.03458   0.72505   0.38887   0.00000  Uiso   1.00
H625   H     0.46543   0.94154   0.61120   0.00000  Uiso   1.00
H626   H     0.21534   0.79257   0.64953   0.00000  Uiso   1.00
H627   H     0.28466   0.87409   0.35047   0.00000  Uiso   1.00
H628   H     0.38800   0.70548   0.42870   0.00000  Uiso   1.00
N629   N     0.23745   0.81881   0.34617   0.00000  Uiso   1.00
N630   N     0.26256   0.84786   0.65383   0.00000  Uiso   1.00
O631   O     0.25326   0.76204   0.53992   0.00000  Uiso   1.00
O632   O     0.24675   0.90462   0.46008   0.00000  Uiso   1.00
O633   O     0.24480   0.75226   0.43612   0.00000  Uiso   1.00
O634   O     0.25520   0.91441   0.56388   0.00000  Uiso   1.00
O635   O     0.18936   0.83821   0.55191   0.00000  Uiso   1.00
O636   O     0.31065   0.82845   0.44809   0.00000  Uiso   1.00
O637   O     0.18090   0.82843   0.44810   0.00000  Uiso   1.00
O638   O     0.31910   0.83824   0.55190   0.00000  Uiso   1.00
C639   C     0.74707   0.73357   0.48520   0.00000  Uiso   1.00
C640   C     0.59051   0.79670   0.46240   0.00000  Uiso   1.00
C641   C     0.88340   0.82984   0.49736   0.00000  Uiso   1.00
C642   C     0.61660   0.83680   0.50264   0.00000  Uiso   1.00
C643   C     0.90327   0.78902   0.45804   0.00000  Uiso   1.00
C644   C     0.59674   0.87762   0.54195   0.00000  Uiso   1.00
C645   C     0.95042   0.79114   0.45799   0.00000  Uiso   1.00
C646   C     0.54959   0.87548   0.54205   0.00000  Uiso   1.00
C647   C     0.97650   0.83228   0.49922   0.00000  Uiso   1.00
C648   C     0.52351   0.83433   0.50082   0.00000  Uiso   1.00
C649   C     0.95571   0.87133   0.53916   0.00000  Uiso   1.00
C650   C     0.75293   0.93310   0.51480   0.00000  Uiso   1.00
C651   C     0.54429   0.79528   0.46088   0.00000  Uiso   1.00
C652   C     0.97234   0.75299   0.41826   0.00000  Uiso   1.00
C653   C     0.52766   0.91361   0.58179   0.00000  Uiso   1.00
C654   C     0.87520   0.74234   0.41909   0.00000  Uiso   1.00
C655   C     0.62480   0.92433   0.58086   0.00000  Uiso   1.00
C656   C     0.70115   0.98515   0.43265   0.00000  Uiso   1.00
C657   C     0.79885   0.68152   0.56734   0.00000  Uiso   1.00
C658   C     0.51869   0.75507   0.41989   0.00000  Uiso   1.00
C659   C     0.98131   0.91153   0.58017   0.00000  Uiso   1.00
C660   C     0.73883   0.67855   0.47977   0.00000  Uiso   1.00
C661   C     0.76117   0.98812   0.52023   0.00000  Uiso   1.00
C662   C     0.66465   0.83492   0.50101   0.00000  Uiso   1.00
C663   C     0.83535   0.83174   0.49899   0.00000  Uiso   1.00
C664   C     0.90950   0.86992   0.53763   0.00000  Uiso   1.00
Cu665  Cu    0.75501   0.83913   0.56146   0.00000  Uiso   1.00
Cu666  Cu    0.74500   0.82754   0.43854   0.00000  Uiso   1.00
H667   H     0.89348   0.90050   0.56781   0.00000  Uiso   1.00
H668   H     0.83966   0.74126   0.42889   0.00000  Uiso   1.00
H669   H     0.87675   0.74236   0.36948   0.00000  Uiso   1.00
H670   H     0.61193   0.96117   0.57135   0.00000  Uiso   1.00
H671   H     0.62335   0.92426   0.63047   0.00000  Uiso   1.00
H672   H     0.66031   0.92546   0.57090   0.00000  Uiso   1.00
H673   H     0.68132   0.68078   0.41424   0.00000  Uiso   1.00
H674   H     0.71493   0.95956   0.39292   0.00000  Uiso   1.00
H675   H     0.67750   0.96200   0.45414   0.00000  Uiso   1.00
H676   H     0.81869   0.98588   0.58576   0.00000  Uiso   1.00
H677   H     0.82250   0.70466   0.54586   0.00000  Uiso   1.00
H678   H     0.60653   0.76611   0.43223   0.00000  Uiso   1.00
H679   H     0.78508   0.70711   0.60708   0.00000  Uiso   1.00
H680   H     0.95413   0.72128   0.38535   0.00000  Uiso   1.00
H681   H     0.54587   0.94531   0.61472   0.00000  Uiso   1.00
H682   H     0.53458   0.72505   0.38887   0.00000  Uiso   1.00
H683   H     0.96543   0.94154   0.61120   0.00000  Uiso   1.00
H684   H     0.71534   0.79257   0.64953   0.00000  Uiso   1.00
H685   H     0.78466   0.87409   0.35047   0.00000  Uiso   1.00
H686   H     0.88800   0.70548   0.42870   0.00000  Uiso   1.00
N687   N     0.73745   0.81881   0.34617   0.00000  Uiso   1.00
N688   N     0.76256   0.84786   0.65383   0.00000  Uiso   1.00
O689   O     0.75326   0.76204   0.53992   0.00000  Uiso   1.00
O690   O     0.74675   0.90462   0.46008   0.00000  Uiso   1.00
O691   O     0.74480   0.75226   0.43612   0.00000  Uiso   1.00
O692   O     0.75520   0.91441   0.56388   0.00000  Uiso   1.00
O693   O     0.68936   0.83821   0.55191   0.00000  Uiso   1.00
O694   O     0.81065   0.82845   0.44809   0.00000  Uiso   1.00
O695   O     0.68090   0.82843   0.44810   0.00000  Uiso   1.00
O696   O     0.81910   0.83824   0.55190   0.00000  Uiso   1.00
C697   C     0.24707   0.06690   0.81854   0.00000  Uiso   1.00
C698   C     0.09051   0.13003   0.79574   0.00000  Uiso   1.00
C699   C     0.38340   0.16317   0.83070   0.00000  Uiso   1.00
C700   C     0.11660   0.17014   0.83597   0.00000  Uiso   1.00
C701   C     0.40327   0.12235   0.79138   0.00000  Uiso   1.00
C702   C     0.09674   0.21095   0.87529   0.00000  Uiso   1.00
C703   C     0.45042   0.12447   0.79132   0.00000  Uiso   1.00
C704   C     0.04959   0.20881   0.87538   0.00000  Uiso   1.00
C705   C     0.47650   0.16562   0.83255   0.00000  Uiso   1.00
C706   C     0.02351   0.16766   0.83416   0.00000  Uiso   1.00
C707   C     0.45571   0.20466   0.87249   0.00000  Uiso   1.00
C708   C     0.25293   0.26643   0.84813   0.00000  Uiso   1.00
C709   C     0.04429   0.12861   0.79422   0.00000  Uiso   1.00
C710   C     0.47234   0.08632   0.75160   0.00000  Uiso   1.00
C711   C     0.02766   0.24695   0.91513   0.00000  Uiso   1.00
C712   C     0.37520   0.07567   0.75242   0.00000  Uiso   1.00
C713   C     0.12480   0.25766   0.91419   0.00000  Uiso   1.00
C714   C     0.20115   0.31848   0.76599   0.00000  Uiso   1.00
C715   C     0.29885   0.01485   0.90068   0.00000  Uiso   1.00
C716   C     0.01869   0.08840   0.75322   0.00000  Uiso   1.00
C717   C     0.48131   0.24486   0.91351   0.00000  Uiso   1.00
C718   C     0.23883   0.01188   0.81310   0.00000  Uiso   1.00
C719   C     0.26117   0.32145   0.85356   0.00000  Uiso   1.00
C720   C     0.16465   0.16825   0.83434   0.00000  Uiso   1.00
C721   C     0.33535   0.16507   0.83232   0.00000  Uiso   1.00
C722   C     0.40950   0.20325   0.87096   0.00000  Uiso   1.00
Cu723  Cu    0.25501   0.17246   0.89479   0.00000  Uiso   1.00
Cu724  Cu    0.24500   0.16087   0.77187   0.00000  Uiso   1.00
H725   H     0.39348   0.23384   0.90114   0.00000  Uiso   1.00
H726   H     0.33966   0.07460   0.76222   0.00000  Uiso   1.00
H727   H     0.37675   0.07569   0.70281   0.00000  Uiso   1.00
H728   H     0.11193   0.29450   0.90468   0.00000  Uiso   1.00
H729   H     0.12335   0.25759   0.96381   0.00000  Uiso   1.00
H730   H     0.16031   0.25879   0.90424   0.00000  Uiso   1.00
H731   H     0.18132   0.01412   0.74757   0.00000  Uiso   1.00
H732   H     0.21493   0.29289   0.72626   0.00000  Uiso   1.00
H733   H     0.17750   0.29534   0.78747   0.00000  Uiso   1.00
H734   H     0.31869   0.31922   0.91909   0.00000  Uiso   1.00
H735   H     0.32250   0.03800   0.87920   0.00000  Uiso   1.00
H736   H     0.10653   0.09945   0.76557   0.00000  Uiso   1.00
H737   H     0.28508   0.04044   0.94041   0.00000  Uiso   1.00
H738   H     0.45413   0.05462   0.71868   0.00000  Uiso   1.00
H739   H     0.04587   0.27864   0.94805   0.00000  Uiso   1.00
H740   H     0.03458   0.05838   0.72220   0.00000  Uiso   1.00
H741   H     0.46543   0.27487   0.94453   0.00000  Uiso   1.00
H742   H     0.21534   0.12591   0.98286   0.00000  Uiso   1.00
H743   H     0.28466   0.20743   0.68381   0.00000  Uiso   1.00
H744   H     0.38800   0.03882   0.76203   0.00000  Uiso   1.00
N745   N     0.23745   0.15214   0.67951   0.00000  Uiso   1.00
N746   N     0.26256   0.18119   0.98716   0.00000  Uiso   1.00
O747   O     0.25326   0.09538   0.87326   0.00000  Uiso   1.00
O748   O     0.24675   0.23796   0.79341   0.00000  Uiso   1.00
O749   O     0.24480   0.08559   0.76945   0.00000  Uiso   1.00
O750   O     0.25520   0.24774   0.89721   0.00000  Uiso   1.00
O751   O     0.18936   0.17155   0.88524   0.00000  Uiso   1.00
O752   O     0.31065   0.16179   0.78143   0.00000  Uiso   1.00
O753   O     0.18090   0.16176   0.78143   0.00000  Uiso   1.00
O754   O     0.31910   0.17157   0.88523   0.00000  Uiso   1.00
C755   C     0.74707   0.06690   0.81854   0.00000  Uiso   1.00
C756   C     0.59051   0.13003   0.79574   0.00000  Uiso   1.00
C757   C     0.88340   0.16317   0.83070   0.00000  Uiso   1.00
C758   C     0.61660   0.17014   0.83597   0.00000  Uiso   1.00
C759   C     0.90327   0.12235   0.79138   0.00000  Uiso   1.00
C760   C     0.59674   0.21095   0.87529   0.00000  Uiso   1.00
C761   C     0.95042   0.12447   0.79132   0.00000  Uiso   1.00
C762   C     0.54959   0.20881   0.87538   0.00000  Uiso   1.00
C763   C     0.97650   0.16562   0.83255   0.00000  Uiso   1.00
C764   C     0.52351   0.16766   0.83416   0.00000  Uiso   1.00
C765   C     0.95571   0.20466   0.87249   0.00000  Uiso   1.00
C766   C     0.75293   0.26643   0.84813   0.00000  Uiso   1.00
C767   C     0.54429   0.12861   0.79422   0.00000  Uiso   1.00
C768   C     0.97234   0.08632   0.75160   0.00000  Uiso   1.00
C769   C     0.52766   0.24695   0.91513   0.00000  Uiso   1.00
C770   C     0.87520   0.07567   0.75242   0.00000  Uiso   1.00
C771   C     0.62480   0.25766   0.91419   0.00000  Uiso   1.00
C772   C     0.70115   0.31848   0.76599   0.00000  Uiso   1.00
C773   C     0.79885   0.01485   0.90068   0.00000  Uiso   1.00
C774   C     0.51869   0.08840   0.75322   0.00000  Uiso   1.00
C775   C     0.98131   0.24486   0.91351   0.00000  Uiso   1.00
C776   C     0.73883   0.01188   0.81310   0.00000  Uiso   1.00
C777   C     0.76117   0.32145   0.85356   0.00000  Uiso   1.00
C778   C     0.66465   0.16825   0.83434   0.00000  Uiso   1.00
C779   C     0.83535   0.16507   0.83232   0.00000  Uiso   1.00
C780   C     0.90950   0.20325   0.87096   0.00000  Uiso   1.00
Cu781  Cu    0.75501   0.17246   0.89479   0.00000  Uiso   1.00
Cu782  Cu    0.74500   0.16087   0.77187   0.00000  Uiso   1.00
H783   H     0.89348   0.23384   0.90114   0.00000  Uiso   1.00
H784   H     0.83966   0.07460   0.76222   0.00000  Uiso   1.00
H785   H     0.87675   0.07569   0.70281   0.00000  Uiso   1.00
H786   H     0.61193   0.29450   0.90468   0.00000  Uiso   1.00
H787   H     0.62335   0.25759   0.96381   0.00000  Uiso   1.00
H788   H     0.66031   0.25879   0.90424   0.00000  Uiso   1.00
H789   H     0.68132   0.01412   0.74757   0.00000  Uiso   1.00
H790   H     0.71493   0.29289   0.72626   0.00000  Uiso   1.00
H791   H     0.67750   0.29534   0.78747   0.00000  Uiso   1.00
H792   H     0.81869   0.31922   0.91909   0.00000  Uiso   1.00
H793   H     0.82250   0.03800   0.87920   0.00000  Uiso   1.00
H794   H     0.60653   0.09945   0.76557   0.00000  Uiso   1.00
H795   H     0.78508   0.04044   0.94041   0.00000  Uiso   1.00
H796   H     0.95413   0.05462   0.71868   0.00000  Uiso   1.00
H797   H     0.54587   0.27864   0.94805   0.00000  Uiso   1.00
H798   H     0.53458   0.05838   0.72220   0.00000  Uiso   1.00
H799   H     0.96543   0.27487   0.94453   0.00000  Uiso   1.00
H800   H     0.71534   0.12591   0.98286   0.00000  Uiso   1.00
H801   H     0.78466   0.20743   0.68381   0.00000  Uiso   1.00
H802   H     0.88800   0.03882   0.76203   0.00000  Uiso   1.00
N803   N     0.73745   0.15214   0.67951   0.00000  Uiso   1.00
N804   N     0.76256   0.18119   0.98716   0.00000  Uiso   1.00
O805   O     0.75326   0.09538   0.87326   0.00000  Uiso   1.00
O806   O     0.74675   0.23796   0.79341   0.00000  Uiso   1.00
O807   O     0.74480   0.08559   0.76945   0.00000  Uiso   1.00
O808   O     0.75520   0.24774   0.89721   0.00000  Uiso   1.00
O809   O     0.68936   0.17155   0.88524   0.00000  Uiso   1.00
O810   O     0.81065   0.16179   0.78143   0.00000  Uiso   1.00
O811   O     0.68090   0.16176   0.78143   0.00000  Uiso   1.00
O812   O     0.81910   0.17157   0.88523   0.00000  Uiso   1.00
C813   C     0.24707   0.40024   0.81854   0.00000  Uiso   1.00
C814   C     0.09051   0.46337   0.79574   0.00000  Uiso   1.00
C815   C     0.38340   0.49651   0.83070   0.00000  Uiso   1.00
C816   C     0.11660   0.50347   0.83597   0.00000  Uiso   1.00
C817   C     0.40327   0.45569   0.79138   0.00000  Uiso   1.00
C818   C     0.09674   0.54429   0.87529   0.00000  Uiso   1.00
C819   C     0.45042   0.45780   0.79132   0.00000  Uiso   1.00
C820   C     0.04959   0.54215   0.87538   0.00000  Uiso   1.00
C821   C     0.47650   0.49895   0.83255   0.00000  Uiso   1.00
C822   C     0.02351   0.50099   0.83416   0.00000  Uiso   1.00
C823   C     0.45571   0.53800   0.87249   0.00000  Uiso   1.00
C824   C     0.25293   0.59976   0.84813   0.00000  Uiso   1.00
C825   C     0.04429   0.46194   0.79422   0.00000  Uiso   1.00
C826   C     0.47234   0.41966   0.75160   0.00000  Uiso   1.00
C827   C     0.02766   0.58028   0.91513   0.00000  Uiso   1.00
C828   C     0.37520   0.40900   0.75242   0.00000  Uiso   1.00
C829   C     0.12480   0.59099   0.91419   0.00000  Uiso   1.00
C830   C     0.20115   0.65182   0.76599   0.00000  Uiso   1.00
C831   C     0.29885   0.34818   0.90068   0.00000  Uiso   1.00
C832   C     0.01869   0.42173   0.75322   0.00000  Uiso   1.00
C833   C     0.48131   0.57820   0.91351   0.00000  Uiso   1.00
C834   C     0.23883   0.34522   0.81310   0.00000  Uiso   1.00
C835   C     0.26117   0.65478   0.85356   0.00000  Uiso   1.00
C836   C     0.16465   0.50158   0.83434   0.00000  Uiso   1.00
C837   C     0.33535   0.49841   0.83232   0.00000  Uiso   1.00
C838   C     0.40950   0.53659   0.87096   0.00000  Uiso   1.00
Cu839  Cu    0.25501   0.50579   0.89479   0.00000  Uiso   1.00
Cu840  Cu    0.24500   0.49421   0.77187   0.00000  Uiso   1.00
H841   H     0.39348   0.56717   0.90114   0.00000  Uiso   1.00
H842   H     0.33966   0.40793   0.76222   0.00000  Uiso   1.00
H843   H     0.37675   0.40903   0.70281   0.00000  Uiso   1.00
H844   H     0.11193   0.62784   0.90468   0.00000  Uiso   1.00
H845   H     0.12335   0.59093   0.96381   0.00000  Uiso   1.00
H846   H     0.16031   0.59213   0.90424   0.00000  Uiso   1.00
H847   H     0.18132   0.34745   0.74757   0.00000  Uiso   1.00
H848   H     0.21493   0.62622   0.72626   0.00000  Uiso   1.00
H849   H     0.17750   0.62867   0.78747   0.00000  Uiso   1.00
H850   H     0.31869   0.65255   0.91909   0.00000  Uiso   1.00
H851   H     0.32250   0.37133   0.87920   0.00000  Uiso   1.00
H852   H     0.10653   0.43278   0.76557   0.00000  Uiso   1.00
H853   H     0.28508   0.37377   0.94041   0.00000  Uiso   1.00
H854   H     0.45413   0.38795   0.71868   0.00000  Uiso   1.00
H855   H     0.04587   0.61198   0.94805   0.00000  Uiso   1.00
H856   H     0.03458   0.39172   0.72220   0.00000  Uiso   1.00
H857   H     0.46543   0.60821   0.94453   0.00000  Uiso   1.00
H858   H     0.21534   0.45924   0.98286   0.00000  Uiso   1.00
H859   H     0.28466   0.54076   0.68381   0.00000  Uiso   1.00
H860   H     0.38800   0.37215   0.76203   0.00000  Uiso   1.00
N861   N     0.23745   0.48547   0.67951   0.00000  Uiso   1.00
N862   N     0.26256   0.51453   0.98716   0.00000  Uiso   1.00
O863   O     0.25326   0.42871   0.87326   0.00000  Uiso   1.00
O864   O     0.24675   0.57129   0.79341   0.00000  Uiso   1.00
O865   O     0.24480   0.41892   0.76945   0.00000  Uiso   1.00
O866   O     0.25520   0.58108   0.89721   0.00000  Uiso   1.00
O867   O     0.18936   0.50488   0.88524   0.00000  Uiso   1.00
O868   O     0.31065   0.49512   0.78143   0.00000  Uiso   1.00
O869   O     0.18090   0.49510   0.78143   0.00000  Uiso   1.00
O870   O     0.31910   0.50490   0.88523   0.00000  Uiso   1.00
C871   C     0.74707   0.40024   0.81854   0.00000  Uiso   1.00
C872   C     0.59051   0.46337   0.79574   0.00000  Uiso   1.00
C873   C     0.88340   0.49651   0.83070   0.00000  Uiso   1.00
C874   C     0.61660   0.50347   0.83597   0.00000  Uiso   1.00
C875   C     0.90327   0.45569   0.79138   0.00000  Uiso   1.00
C876   C     0.59674   0.54429   0.87529   0.00000  Uiso   1.00
C877   C     0.95042   0.45780   0.79132   0.00000  Uiso   1.00
C878   C     0.54959   0.54215   0.87538   0.00000  Uiso   1.00
C879   C     0.97650   0.49895   0.83255   0.00000  Uiso   1.00
C880   C     0.52351   0.50099   0.83416   0.00000  Uiso   1.00
C881   C     0.95571   0.53800   0.87249   0.00000  Uiso   1.00
C882   C     0.75293   0.59976   0.84813   0.00000  Uiso   1.00
C883   C     0.54429   0.46194   0.79422   0.00000  Uiso   1.00
C884   C     0.97234   0.41966   0.75160   0.00000  Uiso   1.00
C885   C     0.52766   0.58028   0.91513   0.00000  Uiso   1.00
C886   C     0.87520   0.40900   0.75242   0.00000  Uiso   1.00
C887   C     0.62480   0.59099   0.91419   0.00000  Uiso   1.00
C888   C     0.70115   0.65182   0.76599   0.00000  Uiso   1.00
C889   C     0.79885   0.34818   0.90068   0.00000  Uiso   1.00
C890   C     0.51869   0.42173   0.75322   0.00000  Uiso   1.00
C891   C     0.98131   0.57820   0.91351   0.00000  Uiso   1.00
C892   C     0.73883   0.34522   0.81310   0.00000  Uiso   1.00
C893   C     0.76117   0.65478   0.85356   0.00000  Uiso   1.00
C894   C     0.66465   0.50158   0.83434   0.00000  Uiso   1.00
C895   C     0.83535   0.49841   0.83232   0.00000  Uiso   1.00
C896   C     0.90950   0.53659   0.87096   0.00000  Uiso   1.00
Cu897  Cu    0.75501   0.50579   0.89479   0.00000  Uiso   1.00
Cu898  Cu    0.74500   0.49421   0.77187   0.00000  Uiso   1.00
H899   H     0.89348   0.56717   0.90114   0.00000  Uiso   1.00
H900   H     0.83966   0.40793   0.76222   0.00000  Uiso   1.00
H901   H     0.87675   0.40903   0.70281   0.00000  Uiso   1.00
H902   H     0.61193   0.62784   0.90468   0.00000  Uiso   1.00
H903   H     0.62335   0.59093   0.96381   0.00000  Uiso   1.00
H904   H     0.66031   0.59213   0.90424   0.00000  Uiso   1.00
H905   H     0.68132   0.34745   0.74757   0.00000  Uiso   1.00
H906   H     0.71493   0.62622   0.72626   0.00000  Uiso   1.00
H907   H     0.67750   0.62867   0.78747   0.00000  Uiso   1.00
H908   H     0.81869   0.65255   0.91909   0.00000  Uiso   1.00
H909   H     0.82250   0.37133   0.87920   0.00000  Uiso   1.00
H910   H     0.60653   0.43278   0.76557   0.00000  Uiso   1.00
H911   H     0.78508   0.37377   0.94041   0.00000  Uiso   1.00
H912   H     0.95413   0.38795   0.71868   0.00000  Uiso   1.00
H913   H     0.54587   0.61198   0.94805   0.00000  Uiso   1.00
H914   H     0.53458   0.39172   0.72220   0.00000  Uiso   1.00
H915   H     0.96543   0.60821   0.94453   0.00000  Uiso   1.00
H916   H     0.71534   0.45924   0.98286   0.00000  Uiso   1.00
H917   H     0.78466   0.54076   0.68381   0.00000  Uiso   1.00
H918   H     0.88800   0.37215   0.76203   0.00000  Uiso   1.00
N919   N     0.73745   0.48547   0.67951   0.00000  Uiso   1.00
N920   N     0.76256   0.51453   0.98716   0.00000  Uiso   1.00
O921   O     0.75326   0.42871   0.87326   0.00000  Uiso   1.00
O922   O     0.74675   0.57129   0.79341   0.00000  Uiso   1.00
O923   O     0.74480   0.41892   0.76945   0.00000  Uiso   1.00
O924   O     0.75520   0.58108   0.89721   0.00000  Uiso   1.00
O925   O     0.68936   0.50488   0.88524   0.00000  Uiso   1.00
O926   O     0.81065   0.49512   0.78143   0.00000  Uiso   1.00
O927   O     0.68090   0.49510   0.78143   0.00000  Uiso   1.00
O928   O     0.81910   0.50490   0.88523   0.00000  Uiso   1.00
C929   C     0.24707   0.73357   0.81854   0.00000  Uiso   1.00
C930   C     0.09051   0.79670   0.79574   0.00000  Uiso   1.00
C931   C     0.38340   0.82984   0.83070   0.00000  Uiso   1.00
C932   C     0.11660   0.83680   0.83597   0.00000  Uiso   1.00
C933   C     0.40327   0.78902   0.79138   0.00000  Uiso   1.00
C934   C     0.09674   0.87762   0.87529   0.00000  Uiso   1.00
C935   C     0.45042   0.79114   0.79132   0.00000  Uiso   1.00
C936   C     0.04959   0.87548   0.87538   0.00000  Uiso   1.00
C937   C     0.47650   0.83228   0.83255   0.00000  Uiso   1.00
C938   C     0.02351   0.83433   0.83416   0.00000  Uiso   1.00
C939   C     0.45571   0.87133   0.87249   0.00000  Uiso   1.00
C940   C     0.25293   0.93310   0.84813   0.00000  Uiso   1.00
C941   C     0.04429   0.79528   0.79422   0.00000  Uiso   1.00
C942   C     0.47234   0.75299   0.75160   0.00000  Uiso   1.00
C943   C     0.02766   0.91361   0.91513   0.00000  Uiso   1.00
C944   C     0.37520   0.74234   0.75242   0.00000  Uiso   1.00
C945   C     0.12480   0.92433   0.91419   0.00000  Uiso   1.00
C946   C     0.20115   0.98515   0.76599   0.00000  Uiso   1.00
C947   C     0.29885   0.68152   0.90068   0.00000  Uiso   1.00
C948   C     0.01869   0.75507   0.75322   0.00000  Uiso   1.00
C949   C     0.48131   0.91153   0.91351   0.00000  Uiso   1.00
C950   C     0.23883   0.67855   0.81310   0.00000  Uiso   1.00
C951   C     0.26117   0.98812   0.85356   0.00000  Uiso   1.00
C952   C     0.16465   0.83492   0.83434   0.00000  Uiso   1.00
C953   C     0.33535   0.83174   0.83232   0.00000  Uiso   1.00
C954   C     0.40950   0.86992   0.87096   0.00000  Uiso   1.00
Cu955  Cu    0.25501   0.83913   0.89479   0.00000  Uiso   1.00
Cu956  Cu    0.24500   0.82754   0.77187   0.00000  Uiso   1.00
H957   H     0.39348   0.90050   0.90114   0.00000  Uiso   1.00
H958   H     0.33966   0.74126   0.76222   0.00000  Uiso   1.00
H959   H     0.37675   0.74236   0.70281   0.00000  Uiso   1.00
H960   H     0.11193   0.96117   0.90468   0.00000  Uiso   1.00
H961   H     0.12335   0.92426   0.96381   0.00000  Uiso   1.00
H962   H     0.16031   0.92546   0.90424   0.00000  Uiso   1.00
H963   H     0.18132   0.68078   0.74757   0.00000  Uiso   1.00
H964   H     0.21493   0.95956   0.72626   0.00000  Uiso   1.00
H965   H     0.17750   0.96200   0.78747   0.00000  Uiso   1.00
H966   H     0.31869   0.98588   0.91909   0.00000  Uiso   1.00
H967   H     0.32250   0.70466   0.87920   0.00000  Uiso   1.00
H968   H     0.10653   0.76611   0.76557   0.00000  Uiso   1.00
H969   H     0.28508   0.70711   0.94041   0.00000  Uiso   1.00
H970   H     0.45413   0.72128   0.71868   0.00000  Uiso   1.00
H971   H     0.04587   0.94531   0.94805   0.00000  Uiso   1.00
H972   H     0.03458   0.72505   0.72220   0.00000  Uiso   1.00
H973   H     0.46543   0.94154   0.94453   0.00000  Uiso   1.00
H974   H     0.21534   0.79257   0.98286   0.00000  Uiso   1.00
H975   H     0.28466   0.87409   0.68381   0.00000  Uiso   1.00
H976   H     0.38800   0.70548   0.76203   0.00000  Uiso   1.00
N977   N     0.23745   0.81881   0.67951   0.00000  Uiso   1.00
N978   N     0.26256   0.84786   0.98716   0.00000  Uiso   1.00
O979   O     0.25326   0.76204   0.87326   0.00000  Uiso   1.00
O980   O     0.24675   0.90462   0.79341   0.00000  Uiso   1.00
O981   O     0.24480   0.75226   0.76945   0.00000  Uiso   1.00
O982   O     0.25520   0.91441   0.89721   0.00000  Uiso   1.00
O983   O     0.18936   0.83821   0.88524   0.00000  Uiso   1.00
O984   O     0.31065   0.82845   0.78143   0.00000  Uiso   1.00
O985   O     0.18090   0.82843   0.78143   0.00000  Uiso   1.00
O986   O     0.31910   0.83824   0.88523   0.00000  Uiso   1.00
C987   C     0.74707   0.73357   0.81854   0.00000  Uiso   1.00
C988   C     0.59051   0.79670   0.79574   0.00000  Uiso   1.00
C989   C     0.88340   0.82984   0.83070   0.00000  Uiso   1.00
C990   C     0.61660   0.83680   0.83597   0.00000  Uiso   1.00
C991   C     0.90327   0.78902   0.79138   0.00000  Uiso   1.00
C992   C     0.59674   0.87762   0.87529   0.00000  Uiso   1.00
C993   C     0.95042   0.79114   0.79132   0.00000  Uiso   1.00
C994   C     0.54959   0.87548   0.87538   0.00000  Uiso   1.00
C995   C     0.97650   0.83228   0.83255   0.00000  Uiso   1.00
C996   C     0.52351   0.83433   0.83416   0.00000  Uiso   1.00
C997   C     0.95571   0.87133   0.87249   0.00000  Uiso   1.00
C998   C     0.75293   0.93310   0.84813   0.00000  Uiso   1.00
C999   C     0.54429   0.79528   0.79422   0.00000  Uiso   1.00
C1000  C     0.97234   0.75299   0.75160   0.00000  Uiso   1.00
C1001  C     0.52766   0.91361   0.91513   0.00000  Uiso   1.00
C1002  C     0.87520   0.74234   0.75242   0.00000  Uiso   1.00
C1003  C     0.62480   0.92433   0.91419   0.00000  Uiso   1.00
C1004  C     0.70115   0.98515   0.76599   0.00000  Uiso   1.00
C1005  C     0.79885   0.68152   0.90068   0.00000  Uiso   1.00
C1006  C     0.51869   0.75507   0.75322   0.00000  Uiso   1.00
C1007  C     0.98131   0.91153   0.91351   0.00000  Uiso   1.00
C1008  C     0.73883   0.67855   0.81310   0.00000  Uiso   1.00
C1009  C     0.76117   0.98812   0.85356   0.00000  Uiso   1.00
C1010  C     0.66465   0.83492   0.83434   0.00000  Uiso   1.00
C1011  C     0.83535   0.83174   0.83232   0.00000  Uiso   1.00
C1012  C     0.90950   0.86992   0.87096   0.00000  Uiso   1.00
Cu1013 Cu    0.75501   0.83913   0.89479   0.00000  Uiso   1.00
Cu1014 Cu    0.74500   0.82754   0.77187   0.00000  Uiso   1.00
H1015  H     0.89348   0.90050   0.90114   0.00000  Uiso   1.00
H1016  H     0.83966   0.74126   0.76222   0.00000  Uiso   1.00
H1017  H     0.87675   0.74236   0.70281   0.00000  Uiso   1.00
H1018  H     0.61193   0.96117   0.90468   0.00000  Uiso   1.00
H1019  H     0.62335   0.92426   0.96381   0.00000  Uiso   1.00
H1020  H     0.66031   0.92546   0.90424   0.00000  Uiso   1.00
H1021  H     0.68132   0.68078   0.74757   0.00000  Uiso   1.00
H1022  H     0.71493   0.95956   0.72626   0.00000  Uiso   1.00
H1023  H     0.67750   0.96200   0.78747   0.00000  Uiso   1.00
H1024  H     0.81869   0.98588   0.91909   0.00000  Uiso   1.00
H1025  H     0.82250   0.70466   0.87920   0.00000  Uiso   1.00
H1026  H     0.60653   0.76611   0.76557   0.00000  Uiso   1.00
H1027  H     0.78508   0.70711   0.94041   0.00000  Uiso   1.00
H1028  H     0.95413   0.72128   0.71868   0.00000  Uiso   1.00
H1029  H     0.54587   0.94531   0.94805   0.00000  Uiso   1.00
H1030  H     0.53458   0.72505   0.72220   0.00000  Uiso   1.00
H1031  H     0.96543   0.94154   0.94453   0.00000  Uiso   1.00
H1032  H     0.71534   0.79257   0.98286   0.00000  Uiso   1.00
H1033  H     0.78466   0.87409   0.68381   0.00000  Uiso   1.00
H1034  H     0.88800   0.70548   0.76203   0.00000  Uiso   1.00
N1035  N     0.73745   0.81881   0.67951   0.00000  Uiso   1.00
N1036  N     0.76256   0.84786   0.98716   0.00000  Uiso   1.00
O1037  O     0.75326   0.76204   0.87326   0.00000  Uiso   1.00
O1038  O     0.74675   0.90462   0.79341   0.00000  Uiso   1.00
O1039  O     0.74480   0.75226   0.76945   0.00000  Uiso   1.00
O1040  O     0.75520   0.91441   0.89721   0.00000  Uiso   1.00
O1041  O     0.68936   0.83821   0.88524   0.00000  Uiso   1.00
O1042  O     0.81065   0.82845   0.78143   0.00000  Uiso   1.00
O1043  O     0.68090   0.82843   0.78143   0.00000  Uiso   1.00
O1044  O     0.81910   0.83824   0.88523   0.00000  Uiso   1.00
loop_
_geom_bond_atom_site_label_1
_geom_bond_atom_site_label_2
_geom_bond_distance
_geom_bond_site_symmetry_2
_ccdc_geom_bond_type
C1     C22     1.428   .     S
C1     O53     1.288   .     A
C1     O51     1.284   .     A
C2     H40     1.086   .     S
C2     C4      1.395   .     A
C2     C13     1.385   .     A
C3     C25     1.450   .     S
C3     C5      1.416   .     A
C3     C26     1.395   .     A
C4     C6      1.416   .     A
C4     C24     1.450   .     S
C5     C7      1.415   .     A
C5     C16     1.520   .     S
C6     C17     1.520   .     S
C6     C8      1.415   .     A
C7     C9      1.421   .     A
C7     C14     1.409   .     A
C8     C15     1.409   .     A
C8     C10     1.421   .     A
C9     C11     1.408   .     A
C9     C68     1.408   .     S
C10    C13     1.408   .     A
C10    C67     1.408   1_455 S
C11    C26     1.385   .     A
C11    C21     1.397   .     A
C12    C23     1.428   .     S
C12    O52     1.284   .     A
C12    O54     1.288   .     A
C13    C20     1.397   .     A
C14    H42     1.081   .     S
C14    C78     1.389   .     S
C15    H43     1.081   .     S
C15    C79     1.389   1_455 S
C16    H48     1.110   .     S
C16    H30     1.106   .     S
C16    H31     1.110   .     S
C17    H33     1.110   .     S
C17    H32     1.110   .     S
C17    H34     1.106   .     S
C18    H37     1.111   .     S
C18    H36     1.110   .     S
C18    C138    1.522   .     S
C18    H151    1.111   .     S
C19    H39     1.111   .     S
C19    H41     1.110   .     S
C19    C255    1.522   1_545 S
C19    H270    1.111   1_545 S
C20    H44     1.084   .     S
C20    C72     1.389   1_455 S
C21    H45     1.084   .     S
C21    C73     1.389   .     S
C22    C250    1.522   1_545 S
C22    C255    1.355   1_545 S
C23    C138    1.355   .     S
C23    C135    1.522   .     S
C24    O55     1.294   .     A
C24    O57     1.291   .     A
C25    O56     1.294   .     A
C25    O58     1.291   .     A
C26    H29     1.086   .     S
Cu27   N50     2.018   .     S
Cu27   O54     1.960   .     S
Cu27   O58     1.953   .     S
Cu27   O51     1.970   .     S
Cu27   O55     1.967   .     S
Cu27   Cu28    2.685   .     S
Cu28   O53     1.960   .     S
Cu28   N49     2.018   .     S
Cu28   O56     1.967   .     S
Cu28   O57     1.953   .     S
Cu28   O52     1.970   .     S
H35    C250    1.111   1_545 S
H38    C135    1.111   .     S
H46    N397    1.029   .     S
H47    N746    1.029   1_554 S
N49    H742    1.029   1_554 S
N49    N746    1.293   1_554 S
N50    N397    1.293   .     S
N50    H395    1.029   .     S
C59    C80     1.428   .     S
C59    O111    1.288   .     A
C59    O109    1.284   .     A
C60    H98     1.086   .     S
C60    C62     1.395   .     A
C60    C71     1.385   .     A
C61    C83     1.450   .     S
C61    C63     1.416   .     A
C61    C84     1.395   .     A
C62    C64     1.416   .     A
C62    C82     1.450   .     S
C63    C65     1.415   .     A
C63    C74     1.520   .     S
C64    C75     1.520   .     S
C64    C66     1.415   .     A
C65    C67     1.421   .     A
C65    C72     1.409   .     A
C66    C73     1.409   .     A
C66    C68     1.421   .     A
C67    C69     1.408   .     A
C67    C10     1.408   1_655 S
C68    C71     1.408   .     A
C69    C84     1.385   .     A
C69    C79     1.397   .     A
C70    C81     1.428   .     S
C70    O110    1.284   .     A
C70    O112    1.288   .     A
C71    C78     1.397   .     A
C72    H100    1.081   .     S
C72    C20     1.389   1_655 S
C73    H101    1.081   .     S
C74    H106    1.110   .     S
C74    H88     1.106   .     S
C74    H89     1.110   .     S
C75    H91     1.110   .     S
C75    H90     1.110   .     S
C75    H92     1.106   .     S
C76    H95     1.111   .     S
C76    H94     1.110   .     S
C76    C196    1.522   .     S
C76    H209    1.111   .     S
C77    H97     1.111   .     S
C77    H99     1.110   .     S
C77    C313    1.522   1_545 S
C77    H328    1.111   1_545 S
C78    H102    1.084   .     S
C79    H103    1.084   .     S
C79    C15     1.389   1_655 S
C80    C308    1.522   1_545 S
C80    C313    1.355   1_545 S
C81    C196    1.355   .     S
C81    C193    1.522   .     S
C82    O113    1.294   .     A
C82    O115    1.291   .     A
C83    O114    1.294   .     A
C83    O116    1.291   .     A
C84    H87     1.086   .     S
Cu85   N108    2.018   .     S
Cu85   O112    1.960   .     S
Cu85   O116    1.953   .     S
Cu85   O109    1.970   .     S
Cu85   O113    1.967   .     S
Cu85   Cu86    2.685   .     S
Cu86   O111    1.960   .     S
Cu86   N107    2.018   .     S
Cu86   O114    1.967   .     S
Cu86   O115    1.953   .     S
Cu86   O110    1.970   .     S
H93    C308    1.111   1_545 S
H96    C193    1.111   .     S
H104   N455    1.029   .     S
H105   N804    1.029   1_554 S
N107   H800    1.029   1_554 S
N107   N804    1.293   1_554 S
N108   N455    1.293   .     S
N108   H453    1.029   .     S
C117   C138    1.428   .     S
C117   O169    1.288   .     A
C117   O167    1.284   .     A
C118   H156    1.086   .     S
C118   C120    1.395   .     A
C118   C129    1.385   .     A
C119   C141    1.450   .     S
C119   C121    1.416   .     A
C119   C142    1.395   .     A
C120   C122    1.416   .     A
C120   C140    1.450   .     S
C121   C123    1.415   .     A
C121   C132    1.520   .     S
C122   C133    1.520   .     S
C122   C124    1.415   .     A
C123   C125    1.421   .     A
C123   C130    1.409   .     A
C124   C131    1.409   .     A
C124   C126    1.421   .     A
C125   C127    1.408   .     A
C125   C184    1.408   .     S
C126   C129    1.408   .     A
C126   C183    1.408   1_455 S
C127   C142    1.385   .     A
C127   C137    1.397   .     A
C128   C139    1.428   .     S
C128   O168    1.284   .     A
C128   O170    1.288   .     A
C129   C136    1.397   .     A
C130   H158    1.081   .     S
C130   C194    1.389   .     S
C131   H159    1.081   .     S
C131   C195    1.389   1_455 S
C132   H164    1.110   .     S
C132   H146    1.106   .     S
C132   H147    1.110   .     S
C133   H149    1.110   .     S
C133   H148    1.110   .     S
C133   H150    1.106   .     S
C134   H153    1.111   .     S
C134   H152    1.110   .     S
C134   C254    1.522   .     S
C134   H267    1.111   .     S
C135   H155    1.111   .     S
C135   H157    1.110   .     S
C136   H160    1.084   .     S
C136   C188    1.389   1_455 S
C137   H161    1.084   .     S
C137   C189    1.389   .     S
C139   C254    1.355   .     S
C139   C251    1.522   .     S
C140   O171    1.294   .     A
C140   O173    1.291   .     A
C141   O172    1.294   .     A
C141   O174    1.291   .     A
C142   H145    1.086   .     S
Cu143  N166    2.018   .     S
Cu143  O170    1.960   .     S
Cu143  O174    1.953   .     S
Cu143  O167    1.970   .     S
Cu143  O171    1.967   .     S
Cu143  Cu144   2.685   .     S
Cu144  O169    1.960   .     S
Cu144  N165    2.018   .     S
Cu144  O172    1.967   .     S
Cu144  O173    1.953   .     S
Cu144  O168    1.970   .     S
H154   C251    1.111   .     S
H162   N513    1.029   .     S
H163   N862    1.029   1_554 S
N165   H858    1.029   1_554 S
N165   N862    1.293   1_554 S
N166   N513    1.293   .     S
N166   H511    1.029   .     S
C175   C196    1.428   .     S
C175   O227    1.288   .     A
C175   O225    1.284   .     A
C176   H214    1.086   .     S
C176   C178    1.395   .     A
C176   C187    1.385   .     A
C177   C199    1.450   .     S
C177   C179    1.416   .     A
C177   C200    1.395   .     A
C178   C180    1.416   .     A
C178   C198    1.450   .     S
C179   C181    1.415   .     A
C179   C190    1.520   .     S
C180   C191    1.520   .     S
C180   C182    1.415   .     A
C181   C183    1.421   .     A
C181   C188    1.409   .     A
C182   C189    1.409   .     A
C182   C184    1.421   .     A
C183   C185    1.408   .     A
C183   C126    1.408   1_655 S
C184   C187    1.408   .     A
C185   C200    1.385   .     A
C185   C195    1.397   .     A
C186   C197    1.428   .     S
C186   O226    1.284   .     A
C186   O228    1.288   .     A
C187   C194    1.397   .     A
C188   H216    1.081   .     S
C188   C136    1.389   1_655 S
C189   H217    1.081   .     S
C190   H222    1.110   .     S
C190   H204    1.106   .     S
C190   H205    1.110   .     S
C191   H207    1.110   .     S
C191   H206    1.110   .     S
C191   H208    1.106   .     S
C192   H211    1.111   .     S
C192   H210    1.110   .     S
C192   C312    1.522   .     S
C192   H325    1.111   .     S
C193   H213    1.111   .     S
C193   H215    1.110   .     S
C194   H218    1.084   .     S
C195   H219    1.084   .     S
C195   C131    1.389   1_655 S
C197   C312    1.355   .     S
C197   C309    1.522   .     S
C198   O229    1.294   .     A
C198   O231    1.291   .     A
C199   O230    1.294   .     A
C199   O232    1.291   .     A
C200   H203    1.086   .     S
Cu201  N224    2.018   .     S
Cu201  O228    1.960   .     S
Cu201  O232    1.953   .     S
Cu201  O225    1.970   .     S
Cu201  O229    1.967   .     S
Cu201  Cu202   2.685   .     S
Cu202  O227    1.960   .     S
Cu202  N223    2.018   .     S
Cu202  O230    1.967   .     S
Cu202  O231    1.953   .     S
Cu202  O226    1.970   .     S
H212   C309    1.111   .     S
H220   N571    1.029   .     S
H221   N920    1.029   1_554 S
N223   H916    1.029   1_554 S
N223   N920    1.293   1_554 S
N224   N571    1.293   .     S
N224   H569    1.029   .     S
C233   C254    1.428   .     S
C233   O285    1.288   .     A
C233   O283    1.284   .     A
C234   H272    1.086   .     S
C234   C236    1.395   .     A
C234   C245    1.385   .     A
C235   C257    1.450   .     S
C235   C237    1.416   .     A
C235   C258    1.395   .     A
C236   C238    1.416   .     A
C236   C256    1.450   .     S
C237   C239    1.415   .     A
C237   C248    1.520   .     S
C238   C249    1.520   .     S
C238   C240    1.415   .     A
C239   C241    1.421   .     A
C239   C246    1.409   .     A
C240   C247    1.409   .     A
C240   C242    1.421   .     A
C241   C243    1.408   .     A
C241   C300    1.408   .     S
C242   C245    1.408   .     A
C242   C299    1.408   1_455 S
C243   C258    1.385   .     A
C243   C253    1.397   .     A
C244   C255    1.428   .     S
C244   O284    1.284   .     A
C244   O286    1.288   .     A
C245   C252    1.397   .     A
C246   H274    1.081   .     S
C246   C310    1.389   .     S
C247   H275    1.081   .     S
C247   C311    1.389   1_455 S
C248   H280    1.110   .     S
C248   H262    1.106   .     S
C248   H263    1.110   .     S
C249   H265    1.110   .     S
C249   H264    1.110   .     S
C249   H266    1.106   .     S
C250   H269    1.111   .     S
C250   H268    1.110   .     S
C250   C22     1.522   1_565 S
C250   H35     1.111   1_565 S
C251   H271    1.111   .     S
C251   H273    1.110   .     S
C252   H276    1.084   .     S
C252   C304    1.389   1_455 S
C253   H277    1.084   .     S
C253   C305    1.389   .     S
C255   C22     1.355   1_565 S
C255   C19     1.522   1_565 S
C256   O287    1.294   .     A
C256   O289    1.291   .     A
C257   O288    1.294   .     A
C257   O290    1.291   .     A
C258   H261    1.086   .     S
Cu259  N282    2.018   .     S
Cu259  O286    1.960   .     S
Cu259  O290    1.953   .     S
Cu259  O283    1.970   .     S
Cu259  O287    1.967   .     S
Cu259  Cu260   2.685   .     S
Cu260  O285    1.960   .     S
Cu260  N281    2.018   .     S
Cu260  O288    1.967   .     S
Cu260  O289    1.953   .     S
Cu260  O284    1.970   .     S
H270   C19     1.111   1_565 S
H278   N629    1.029   .     S
H279   N978    1.029   1_554 S
N281   H974    1.029   1_554 S
N281   N978    1.293   1_554 S
N282   N629    1.293   .     S
N282   H627    1.029   .     S
C291   C312    1.428   .     S
C291   O343    1.288   .     A
C291   O341    1.284   .     A
C292   H330    1.086   .     S
C292   C294    1.395   .     A
C292   C303    1.385   .     A
C293   C315    1.450   .     S
C293   C295    1.416   .     A
C293   C316    1.395   .     A
C294   C296    1.416   .     A
C294   C314    1.450   .     S
C295   C297    1.415   .     A
C295   C306    1.520   .     S
C296   C307    1.520   .     S
C296   C298    1.415   .     A
C297   C299    1.421   .     A
C297   C304    1.409   .     A
C298   C305    1.409   .     A
C298   C300    1.421   .     A
C299   C301    1.408   .     A
C299   C242    1.408   1_655 S
C300   C303    1.408   .     A
C301   C316    1.385   .     A
C301   C311    1.397   .     A
C302   C313    1.428   .     S
C302   O342    1.284   .     A
C302   O344    1.288   .     A
C303   C310    1.397   .     A
C304   H332    1.081   .     S
C304   C252    1.389   1_655 S
C305   H333    1.081   .     S
C306   H338    1.110   .     S
C306   H320    1.106   .     S
C306   H321    1.110   .     S
C307   H323    1.110   .     S
C307   H322    1.110   .     S
C307   H324    1.106   .     S
C308   H327    1.111   .     S
C308   H326    1.110   .     S
C308   C80     1.522   1_565 S
C308   H93     1.111   1_565 S
C309   H329    1.111   .     S
C309   H331    1.110   .     S
C310   H334    1.084   .     S
C311   H335    1.084   .     S
C311   C247    1.389   1_655 S
C313   C80     1.355   1_565 S
C313   C77     1.522   1_565 S
C314   O345    1.294   .     A
C314   O347    1.291   .     A
C315   O346    1.294   .     A
C315   O348    1.291   .     A
C316   H319    1.086   .     S
Cu317  N340    2.018   .     S
Cu317  O344    1.960   .     S
Cu317  O348    1.953   .     S
Cu317  O341    1.970   .     S
Cu317  O345    1.967   .     S
Cu317  Cu318   2.685   .     S
Cu318  O343    1.960   .     S
Cu318  N339    2.018   .     S
Cu318  O346    1.967   .     S
Cu318  O347    1.953   .     S
Cu318  O342    1.970   .     S
H328   C77     1.111   1_565 S
H336   N687    1.029   .     S
H337   N1036   1.029   1_554 S
N339   H1032   1.029   1_554 S
N339   N1036   1.293   1_554 S
N340   N687    1.293   .     S
N340   H685    1.029   .     S
C349   C370    1.428   .     S
C349   O401    1.288   .     A
C349   O399    1.284   .     A
C350   H388    1.086   .     S
C350   C352    1.395   .     A
C350   C361    1.385   .     A
C351   C373    1.450   .     S
C351   C353    1.416   .     A
C351   C374    1.395   .     A
C352   C354    1.416   .     A
C352   C372    1.450   .     S
C353   C355    1.415   .     A
C353   C364    1.520   .     S
C354   C365    1.520   .     S
C354   C356    1.415   .     A
C355   C357    1.421   .     A
C355   C362    1.409   .     A
C356   C363    1.409   .     A
C356   C358    1.421   .     A
C357   C359    1.408   .     A
C357   C416    1.408   .     S
C358   C361    1.408   .     A
C358   C415    1.408   1_455 S
C359   C374    1.385   .     A
C359   C369    1.397   .     A
C360   C371    1.428   .     S
C360   O400    1.284   .     A
C360   O402    1.288   .     A
C361   C368    1.397   .     A
C362   H390    1.081   .     S
C362   C426    1.389   .     S
C363   H391    1.081   .     S
C363   C427    1.389   1_455 S
C364   H396    1.110   .     S
C364   H378    1.106   .     S
C364   H379    1.110   .     S
C365   H381    1.110   .     S
C365   H380    1.110   .     S
C365   H382    1.106   .     S
C366   H385    1.111   .     S
C366   H384    1.110   .     S
C366   C486    1.522   .     S
C366   H499    1.111   .     S
C367   H387    1.111   .     S
C367   H389    1.110   .     S
C367   C603    1.522   1_545 S
C367   H618    1.111   1_545 S
C368   H392    1.084   .     S
C368   C420    1.389   1_455 S
C369   H393    1.084   .     S
C369   C421    1.389   .     S
C370   C598    1.522   1_545 S
C370   C603    1.355   1_545 S
C371   C486    1.355   .     S
C371   C483    1.522   .     S
C372   O403    1.294   .     A
C372   O405    1.291   .     A
C373   O404    1.294   .     A
C373   O406    1.291   .     A
C374   H377    1.086   .     S
Cu375  N398    2.018   .     S
Cu375  O402    1.960   .     S
Cu375  O406    1.953   .     S
Cu375  O399    1.970   .     S
Cu375  O403    1.967   .     S
Cu375  Cu376   2.685   .     S
Cu376  O401    1.960   .     S
Cu376  N397    2.018   .     S
Cu376  O404    1.967   .     S
Cu376  O405    1.953   .     S
Cu376  O400    1.970   .     S
H383   C598    1.111   1_545 S
H386   C483    1.111   .     S
H394   N745    1.029   .     S
N398   N745    1.293   .     S
N398   H743    1.029   .     S
C407   C428    1.428   .     S
C407   O459    1.288   .     A
C407   O457    1.284   .     A
C408   H446    1.086   .     S
C408   C410    1.395   .     A
C408   C419    1.385   .     A
C409   C431    1.450   .     S
C409   C411    1.416   .     A
C409   C432    1.395   .     A
C410   C412    1.416   .     A
C410   C430    1.450   .     S
C411   C413    1.415   .     A
C411   C422    1.520   .     S
C412   C423    1.520   .     S
C412   C414    1.415   .     A
C413   C415    1.421   .     A
C413   C420    1.409   .     A
C414   C421    1.409   .     A
C414   C416    1.421   .     A
C415   C417    1.408   .     A
C415   C358    1.408   1_655 S
C416   C419    1.408   .     A
C417   C432    1.385   .     A
C417   C427    1.397   .     A
C418   C429    1.428   .     S
C418   O458    1.284   .     A
C418   O460    1.288   .     A
C419   C426    1.397   .     A
C420   H448    1.081   .     S
C420   C368    1.389   1_655 S
C421   H449    1.081   .     S
C422   H454    1.110   .     S
C422   H436    1.106   .     S
C422   H437    1.110   .     S
C423   H439    1.110   .     S
C423   H438    1.110   .     S
C423   H440    1.106   .     S
C424   H443    1.111   .     S
C424   H442    1.110   .     S
C424   C544    1.522   .     S
C424   H557    1.111   .     S
C425   H445    1.111   .     S
C425   H447    1.110   .     S
C425   C661    1.522   1_545 S
C425   H676    1.111   1_545 S
C426   H450    1.084   .     S
C427   H451    1.084   .     S
C427   C363    1.389   1_655 S
C428   C656    1.522   1_545 S
C428   C661    1.355   1_545 S
C429   C544    1.355   .     S
C429   C541    1.522   .     S
C430   O461    1.294   .     A
C430   O463    1.291   .     A
C431   O462    1.294   .     A
C431   O464    1.291   .     A
C432   H435    1.086   .     S
Cu433  N456    2.018   .     S
Cu433  O460    1.960   .     S
Cu433  O464    1.953   .     S
Cu433  O457    1.970   .     S
Cu433  O461    1.967   .     S
Cu433  Cu434   2.685   .     S
Cu434  O459    1.960   .     S
Cu434  N455    2.018   .     S
Cu434  O462    1.967   .     S
Cu434  O463    1.953   .     S
Cu434  O458    1.970   .     S
H441   C656    1.111   1_545 S
H444   C541    1.111   .     S
H452   N803    1.029   .     S
N456   N803    1.293   .     S
N456   H801    1.029   .     S
C465   C486    1.428   .     S
C465   O517    1.288   .     A
C465   O515    1.284   .     A
C466   H504    1.086   .     S
C466   C468    1.395   .     A
C466   C477    1.385   .     A
C467   C489    1.450   .     S
C467   C469    1.416   .     A
C467   C490    1.395   .     A
C468   C470    1.416   .     A
C468   C488    1.450   .     S
C469   C471    1.415   .     A
C469   C480    1.520   .     S
C470   C481    1.520   .     S
C470   C472    1.415   .     A
C471   C473    1.421   .     A
C471   C478    1.409   .     A
C472   C479    1.409   .     A
C472   C474    1.421   .     A
C473   C475    1.408   .     A
C473   C532    1.408   .     S
C474   C477    1.408   .     A
C474   C531    1.408   1_455 S
C475   C490    1.385   .     A
C475   C485    1.397   .     A
C476   C487    1.428   .     S
C476   O516    1.284   .     A
C476   O518    1.288   .     A
C477   C484    1.397   .     A
C478   H506    1.081   .     S
C478   C542    1.389   .     S
C479   H507    1.081   .     S
C479   C543    1.389   1_455 S
C480   H512    1.110   .     S
C480   H494    1.106   .     S
C480   H495    1.110   .     S
C481   H497    1.110   .     S
C481   H496    1.110   .     S
C481   H498    1.106   .     S
C482   H501    1.111   .     S
C482   H500    1.110   .     S
C482   C602    1.522   .     S
C482   H615    1.111   .     S
C483   H503    1.111   .     S
C483   H505    1.110   .     S
C484   H508    1.084   .     S
C484   C536    1.389   1_455 S
C485   H509    1.084   .     S
C485   C537    1.389   .     S
C487   C602    1.355   .     S
C487   C599    1.522   .     S
C488   O519    1.294   .     A
C488   O521    1.291   .     A
C489   O520    1.294   .     A
C489   O522    1.291   .     A
C490   H493    1.086   .     S
Cu491  N514    2.018   .     S
Cu491  O518    1.960   .     S
Cu491  O522    1.953   .     S
Cu491  O515    1.970   .     S
Cu491  O519    1.967   .     S
Cu491  Cu492   2.685   .     S
Cu492  O517    1.960   .     S
Cu492  N513    2.018   .     S
Cu492  O520    1.967   .     S
Cu492  O521    1.953   .     S
Cu492  O516    1.970   .     S
H502   C599    1.111   .     S
H510   N861    1.029   .     S
N514   N861    1.293   .     S
N514   H859    1.029   .     S
C523   C544    1.428   .     S
C523   O575    1.288   .     A
C523   O573    1.284   .     A
C524   H562    1.086   .     S
C524   C526    1.395   .     A
C524   C535    1.385   .     A
C525   C547    1.450   .     S
C525   C527    1.416   .     A
C525   C548    1.395   .     A
C526   C528    1.416   .     A
C526   C546    1.450   .     S
C527   C529    1.415   .     A
C527   C538    1.520   .     S
C528   C539    1.520   .     S
C528   C530    1.415   .     A
C529   C531    1.421   .     A
C529   C536    1.409   .     A
C530   C537    1.409   .     A
C530   C532    1.421   .     A
C531   C533    1.408   .     A
C531   C474    1.408   1_655 S
C532   C535    1.408   .     A
C533   C548    1.385   .     A
C533   C543    1.397   .     A
C534   C545    1.428   .     S
C534   O574    1.284   .     A
C534   O576    1.288   .     A
C535   C542    1.397   .     A
C536   H564    1.081   .     S
C536   C484    1.389   1_655 S
C537   H565    1.081   .     S
C538   H570    1.110   .     S
C538   H552    1.106   .     S
C538   H553    1.110   .     S
C539   H555    1.110   .     S
C539   H554    1.110   .     S
C539   H556    1.106   .     S
C540   H559    1.111   .     S
C540   H558    1.110   .     S
C540   C660    1.522   .     S
C540   H673    1.111   .     S
C541   H561    1.111   .     S
C541   H563    1.110   .     S
C542   H566    1.084   .     S
C543   H567    1.084   .     S
C543   C479    1.389   1_655 S
C545   C660    1.355   .     S
C545   C657    1.522   .     S
C546   O577    1.294   .     A
C546   O579    1.291   .     A
C547   O578    1.294   .     A
C547   O580    1.291   .     A
C548   H551    1.086   .     S
Cu549  N572    2.018   .     S
Cu549  O576    1.960   .     S
Cu549  O580    1.953   .     S
Cu549  O573    1.970   .     S
Cu549  O577    1.967   .     S
Cu549  Cu550   2.685   .     S
Cu550  O575    1.960   .     S
Cu550  N571    2.018   .     S
Cu550  O578    1.967   .     S
Cu550  O579    1.953   .     S
Cu550  O574    1.970   .     S
H560   C657    1.111   .     S
H568   N919    1.029   .     S
N572   N919    1.293   .     S
N572   H917    1.029   .     S
C581   C602    1.428   .     S
C581   O633    1.288   .     A
C581   O631    1.284   .     A
C582   H620    1.086   .     S
C582   C584    1.395   .     A
C582   C593    1.385   .     A
C583   C605    1.450   .     S
C583   C585    1.416   .     A
C583   C606    1.395   .     A
C584   C586    1.416   .     A
C584   C604    1.450   .     S
C585   C587    1.415   .     A
C585   C596    1.520   .     S
C586   C597    1.520   .     S
C586   C588    1.415   .     A
C587   C589    1.421   .     A
C587   C594    1.409   .     A
C588   C595    1.409   .     A
C588   C590    1.421   .     A
C589   C591    1.408   .     A
C589   C648    1.408   .     S
C590   C593    1.408   .     A
C590   C647    1.408   1_455 S
C591   C606    1.385   .     A
C591   C601    1.397   .     A
C592   C603    1.428   .     S
C592   O632    1.284   .     A
C592   O634    1.288   .     A
C593   C600    1.397   .     A
C594   H622    1.081   .     S
C594   C658    1.389   .     S
C595   H623    1.081   .     S
C595   C659    1.389   1_455 S
C596   H628    1.110   .     S
C596   H610    1.106   .     S
C596   H611    1.110   .     S
C597   H613    1.110   .     S
C597   H612    1.110   .     S
C597   H614    1.106   .     S
C598   H617    1.111   .     S
C598   H616    1.110   .     S
C598   C370    1.522   1_565 S
C598   H383    1.111   1_565 S
C599   H619    1.111   .     S
C599   H621    1.110   .     S
C600   H624    1.084   .     S
C600   C652    1.389   1_455 S
C601   H625    1.084   .     S
C601   C653    1.389   .     S
C603   C370    1.355   1_565 S
C603   C367    1.522   1_565 S
C604   O635    1.294   .     A
C604   O637    1.291   .     A
C605   O636    1.294   .     A
C605   O638    1.291   .     A
C606   H609    1.086   .     S
Cu607  N630    2.018   .     S
Cu607  O634    1.960   .     S
Cu607  O638    1.953   .     S
Cu607  O631    1.970   .     S
Cu607  O635    1.967   .     S
Cu607  Cu608   2.685   .     S
Cu608  O633    1.960   .     S
Cu608  N629    2.018   .     S
Cu608  O636    1.967   .     S
Cu608  O637    1.953   .     S
Cu608  O632    1.970   .     S
H618   C367    1.111   1_565 S
H626   N977    1.029   .     S
N630   N977    1.293   .     S
N630   H975    1.029   .     S
C639   C660    1.428   .     S
C639   O691    1.288   .     A
C639   O689    1.284   .     A
C640   H678    1.086   .     S
C640   C642    1.395   .     A
C640   C651    1.385   .     A
C641   C663    1.450   .     S
C641   C643    1.416   .     A
C641   C664    1.395   .     A
C642   C644    1.416   .     A
C642   C662    1.450   .     S
C643   C645    1.415   .     A
C643   C654    1.520   .     S
C644   C655    1.520   .     S
C644   C646    1.415   .     A
C645   C647    1.421   .     A
C645   C652    1.409   .     A
C646   C653    1.409   .     A
C646   C648    1.421   .     A
C647   C649    1.408   .     A
C647   C590    1.408   1_655 S
C648   C651    1.408   .     A
C649   C664    1.385   .     A
C649   C659    1.397   .     A
C650   C661    1.428   .     S
C650   O690    1.284   .     A
C650   O692    1.288   .     A
C651   C658    1.397   .     A
C652   H680    1.081   .     S
C652   C600    1.389   1_655 S
C653   H681    1.081   .     S
C654   H686    1.110   .     S
C654   H668    1.106   .     S
C654   H669    1.110   .     S
C655   H671    1.110   .     S
C655   H670    1.110   .     S
C655   H672    1.106   .     S
C656   H675    1.111   .     S
C656   H674    1.110   .     S
C656   C428    1.522   1_565 S
C656   H441    1.111   1_565 S
C657   H677    1.111   .     S
C657   H679    1.110   .     S
C658   H682    1.084   .     S
C659   H683    1.084   .     S
C659   C595    1.389   1_655 S
C661   C428    1.355   1_565 S
C661   C425    1.522   1_565 S
C662   O693    1.294   .     A
C662   O695    1.291   .     A
C663   O694    1.294   .     A
C663   O696    1.291   .     A
C664   H667    1.086   .     S
Cu665  N688    2.018   .     S
Cu665  O692    1.960   .     S
Cu665  O696    1.953   .     S
Cu665  O689    1.970   .     S
Cu665  O693    1.967   .     S
Cu665  Cu666   2.685   .     S
Cu666  O691    1.960   .     S
Cu666  N687    2.018   .     S
Cu666  O694    1.967   .     S
Cu666  O695    1.953   .     S
Cu666  O690    1.970   .     S
H676   C425    1.111   1_565 S
H684   N1035   1.029   .     S
N688   N1035   1.293   .     S
N688   H1033   1.029   .     S
C697   C718    1.428   .     S
C697   O749    1.288   .     A
C697   O747    1.284   .     A
C698   H736    1.086   .     S
C698   C700    1.395   .     A
C698   C709    1.385   .     A
C699   C721    1.450   .     S
C699   C701    1.416   .     A
C699   C722    1.395   .     A
C700   C702    1.416   .     A
C700   C720    1.450   .     S
C701   C703    1.415   .     A
C701   C712    1.520   .     S
C702   C713    1.520   .     S
C702   C704    1.415   .     A
C703   C705    1.421   .     A
C703   C710    1.409   .     A
C704   C711    1.409   .     A
C704   C706    1.421   .     A
C705   C707    1.408   .     A
C705   C764    1.408   .     S
C706   C709    1.408   .     A
C706   C763    1.408   1_455 S
C707   C722    1.385   .     A
C707   C717    1.397   .     A
C708   C719    1.428   .     S
C708   O748    1.284   .     A
C708   O750    1.288   .     A
C709   C716    1.397   .     A
C710   H738    1.081   .     S
C710   C774    1.389   .     S
C711   H739    1.081   .     S
C711   C775    1.389   1_455 S
C712   H744    1.110   .     S
C712   H726    1.106   .     S
C712   H727    1.110   .     S
C713   H729    1.110   .     S
C713   H728    1.110   .     S
C713   H730    1.106   .     S
C714   H733    1.111   .     S
C714   H732    1.110   .     S
C714   C834    1.522   .     S
C714   H847    1.111   .     S
C715   H735    1.111   .     S
C715   H737    1.110   .     S
C715   C951    1.522   1_545 S
C715   H966    1.111   1_545 S
C716   H740    1.084   .     S
C716   C768    1.389   1_455 S
C717   H741    1.084   .     S
C717   C769    1.389   .     S
C718   C946    1.522   1_545 S
C718   C951    1.355   1_545 S
C719   C834    1.355   .     S
C719   C831    1.522   .     S
C720   O751    1.294   .     A
C720   O753    1.291   .     A
C721   O752    1.294   .     A
C721   O754    1.291   .     A
C722   H725    1.086   .     S
Cu723  N746    2.018   .     S
Cu723  O750    1.960   .     S
Cu723  O754    1.953   .     S
Cu723  O747    1.970   .     S
Cu723  O751    1.967   .     S
Cu723  Cu724   2.685   .     S
Cu724  O749    1.960   .     S
Cu724  N745    2.018   .     S
Cu724  O752    1.967   .     S
Cu724  O753    1.953   .     S
Cu724  O748    1.970   .     S
H731   C946    1.111   1_545 S
H734   C831    1.111   .     S
H742   N49     1.029   1_556 S
N746   N49     1.293   1_556 S
N746   H47     1.029   1_556 S
C755   C776    1.428   .     S
C755   O807    1.288   .     A
C755   O805    1.284   .     A
C756   H794    1.086   .     S
C756   C758    1.395   .     A
C756   C767    1.385   .     A
C757   C779    1.450   .     S
C757   C759    1.416   .     A
C757   C780    1.395   .     A
C758   C760    1.416   .     A
C758   C778    1.450   .     S
C759   C761    1.415   .     A
C759   C770    1.520   .     S
C760   C771    1.520   .     S
C760   C762    1.415   .     A
C761   C763    1.421   .     A
C761   C768    1.409   .     A
C762   C769    1.409   .     A
C762   C764    1.421   .     A
C763   C765    1.408   .     A
C763   C706    1.408   1_655 S
C764   C767    1.408   .     A
C765   C780    1.385   .     A
C765   C775    1.397   .     A
C766   C777    1.428   .     S
C766   O806    1.284   .     A
C766   O808    1.288   .     A
C767   C774    1.397   .     A
C768   H796    1.081   .     S
C768   C716    1.389   1_655 S
C769   H797    1.081   .     S
C770   H802    1.110   .     S
C770   H784    1.106   .     S
C770   H785    1.110   .     S
C771   H787    1.110   .     S
C771   H786    1.110   .     S
C771   H788    1.106   .     S
C772   H791    1.111   .     S
C772   H790    1.110   .     S
C772   C892    1.522   .     S
C772   H905    1.111   .     S
C773   H793    1.111   .     S
C773   H795    1.110   .     S
C773   C1009   1.522   1_545 S
C773   H1024   1.111   1_545 S
C774   H798    1.084   .     S
C775   H799    1.084   .     S
C775   C711    1.389   1_655 S
C776   C1004   1.522   1_545 S
C776   C1009   1.355   1_545 S
C777   C892    1.355   .     S
C777   C889    1.522   .     S
C778   O809    1.294   .     A
C778   O811    1.291   .     A
C779   O810    1.294   .     A
C779   O812    1.291   .     A
C780   H783    1.086   .     S
Cu781  N804    2.018   .     S
Cu781  O808    1.960   .     S
Cu781  O812    1.953   .     S
Cu781  O805    1.970   .     S
Cu781  O809    1.967   .     S
Cu781  Cu782   2.685   .     S
Cu782  O807    1.960   .     S
Cu782  N803    2.018   .     S
Cu782  O810    1.967   .     S
Cu782  O811    1.953   .     S
Cu782  O806    1.970   .     S
H789   C1004   1.111   1_545 S
H792   C889    1.111   .     S
H800   N107    1.029   1_556 S
N804   N107    1.293   1_556 S
N804   H105    1.029   1_556 S
C813   C834    1.428   .     S
C813   O865    1.288   .     A
C813   O863    1.284   .     A
C814   H852    1.086   .     S
C814   C816    1.395   .     A
C814   C825    1.385   .     A
C815   C837    1.450   .     S
C815   C817    1.416   .     A
C815   C838    1.395   .     A
C816   C818    1.416   .     A
C816   C836    1.450   .     S
C817   C819    1.415   .     A
C817   C828    1.520   .     S
C818   C829    1.520   .     S
C818   C820    1.415   .     A
C819   C821    1.421   .     A
C819   C826    1.409   .     A
C820   C827    1.409   .     A
C820   C822    1.421   .     A
C821   C823    1.408   .     A
C821   C880    1.408   .     S
C822   C825    1.408   .     A
C822   C879    1.408   1_455 S
C823   C838    1.385   .     A
C823   C833    1.397   .     A
C824   C835    1.428   .     S
C824   O864    1.284   .     A
C824   O866    1.288   .     A
C825   C832    1.397   .     A
C826   H854    1.081   .     S
C826   C890    1.389   .     S
C827   H855    1.081   .     S
C827   C891    1.389   1_455 S
C828   H860    1.110   .     S
C828   H842    1.106   .     S
C828   H843    1.110   .     S
C829   H845    1.110   .     S
C829   H844    1.110   .     S
C829   H846    1.106   .     S
C830   H849    1.111   .     S
C830   H848    1.110   .     S
C830   C950    1.522   .     S
C830   H963    1.111   .     S
C831   H851    1.111   .     S
C831   H853    1.110   .     S
C832   H856    1.084   .     S
C832   C884    1.389   1_455 S
C833   H857    1.084   .     S
C833   C885    1.389   .     S
C835   C950    1.355   .     S
C835   C947    1.522   .     S
C836   O867    1.294   .     A
C836   O869    1.291   .     A
C837   O868    1.294   .     A
C837   O870    1.291   .     A
C838   H841    1.086   .     S
Cu839  N862    2.018   .     S
Cu839  O866    1.960   .     S
Cu839  O870    1.953   .     S
Cu839  O863    1.970   .     S
Cu839  O867    1.967   .     S
Cu839  Cu840   2.685   .     S
Cu840  O865    1.960   .     S
Cu840  N861    2.018   .     S
Cu840  O868    1.967   .     S
Cu840  O869    1.953   .     S
Cu840  O864    1.970   .     S
H850   C947    1.111   .     S
H858   N165    1.029   1_556 S
N862   N165    1.293   1_556 S
N862   H163    1.029   1_556 S
C871   C892    1.428   .     S
C871   O923    1.288   .     A
C871   O921    1.284   .     A
C872   H910    1.086   .     S
C872   C874    1.395   .     A
C872   C883    1.385   .     A
C873   C895    1.450   .     S
C873   C875    1.416   .     A
C873   C896    1.395   .     A
C874   C876    1.416   .     A
C874   C894    1.450   .     S
C875   C877    1.415   .     A
C875   C886    1.520   .     S
C876   C887    1.520   .     S
C876   C878    1.415   .     A
C877   C879    1.421   .     A
C877   C884    1.409   .     A
C878   C885    1.409   .     A
C878   C880    1.421   .     A
C879   C881    1.408   .     A
C879   C822    1.408   1_655 S
C880   C883    1.408   .     A
C881   C896    1.385   .     A
C881   C891    1.397   .     A
C882   C893    1.428   .     S
C882   O922    1.284   .     A
C882   O924    1.288   .     A
C883   C890    1.397   .     A
C884   H912    1.081   .     S
C884   C832    1.389   1_655 S
C885   H913    1.081   .     S
C886   H918    1.110   .     S
C886   H900    1.106   .     S
C886   H901    1.110   .     S
C887   H903    1.110   .     S
C887   H902    1.110   .     S
C887   H904    1.106   .     S
C888   H907    1.111   .     S
C888   H906    1.110   .     S
C888   C1008   1.522   .     S
C888   H1021   1.111   .     S
C889   H909    1.111   .     S
C889   H911    1.110   .     S
C890   H914    1.084   .     S
C891   H915    1.084   .     S
C891   C827    1.389   1_655 S
C893   C1008   1.355   .     S
C893   C1005   1.522   .     S
C894   O925    1.294   .     A
C894   O927    1.291   .     A
C895   O926    1.294   .     A
C895   O928    1.291   .     A
C896   H899    1.086   .     S
Cu897  N920    2.018   .     S
Cu897  O924    1.960   .     S
Cu897  O928    1.953   .     S
Cu897  O921    1.970   .     S
Cu897  O925    1.967   .     S
Cu897  Cu898   2.685   .     S
Cu898  O923    1.960   .     S
Cu898  N919    2.018   .     S
Cu898  O926    1.967   .     S
Cu898  O927    1.953   .     S
Cu898  O922    1.970   .     S
H908   C1005   1.111   .     S
H916   N223    1.029   1_556 S
N920   N223    1.293   1_556 S
N920   H221    1.029   1_556 S
C929   C950    1.428   .     S
C929   O981    1.288   .     A
C929   O979    1.284   .     A
C930   H968    1.086   .     S
C930   C932    1.395   .     A
C930   C941    1.385   .     A
C931   C953    1.450   .     S
C931   C933    1.416   .     A
C931   C954    1.395   .     A
C932   C934    1.416   .     A
C932   C952    1.450   .     S
C933   C935    1.415   .     A
C933   C944    1.520   .     S
C934   C945    1.520   .     S
C934   C936    1.415   .     A
C935   C937    1.421   .     A
C935   C942    1.409   .     A
C936   C943    1.409   .     A
C936   C938    1.421   .     A
C937   C939    1.408   .     A
C937   C996    1.408   .     S
C938   C941    1.408   .     A
C938   C995    1.408   1_455 S
C939   C954    1.385   .     A
C939   C949    1.397   .     A
C940   C951    1.428   .     S
C940   O980    1.284   .     A
C940   O982    1.288   .     A
C941   C948    1.397   .     A
C942   H970    1.081   .     S
C942   C1006   1.389   .     S
C943   H971    1.081   .     S
C943   C1007   1.389   1_455 S
C944   H976    1.110   .     S
C944   H958    1.106   .     S
C944   H959    1.110   .     S
C945   H961    1.110   .     S
C945   H960    1.110   .     S
C945   H962    1.106   .     S
C946   H965    1.111   .     S
C946   H964    1.110   .     S
C946   C718    1.522   1_565 S
C946   H731    1.111   1_565 S
C947   H967    1.111   .     S
C947   H969    1.110   .     S
C948   H972    1.084   .     S
C948   C1000   1.389   1_455 S
C949   H973    1.084   .     S
C949   C1001   1.389   .     S
C951   C718    1.355   1_565 S
C951   C715    1.522   1_565 S
C952   O983    1.294   .     A
C952   O985    1.291   .     A
C953   O984    1.294   .     A
C953   O986    1.291   .     A
C954   H957    1.086   .     S
Cu955  N978    2.018   .     S
Cu955  O982    1.960   .     S
Cu955  O986    1.953   .     S
Cu955  O979    1.970   .     S
Cu955  O983    1.967   .     S
Cu955  Cu956   2.685   .     S
Cu956  O981    1.960   .     S
Cu956  N977    2.018   .     S
Cu956  O984    1.967   .     S
Cu956  O985    1.953   .     S
Cu956  O980    1.970   .     S
H966   C715    1.111   1_565 S
H974   N281    1.029   1_556 S
N978   N281    1.293   1_556 S
N978   H279    1.029   1_556 S
C987   C1008   1.428   .     S
C987   O1039   1.288   .     A
C987   O1037   1.284   .     A
C988   H1026   1.086   .     S
C988   C990    1.395   .     A
C988   C999    1.385   .     A
C989   C1011   1.450   .     S
C989   C991    1.416   .     A
C989   C1012   1.395   .     A
C990   C992    1.416   .     A
C990   C1010   1.450   .     S
C991   C993    1.415   .     A
C991   C1002   1.520   .     S
C992   C1003   1.520   .     S
C992   C994    1.415   .     A
C993   C995    1.421   .     A
C993   C1000   1.409   .     A
C994   C1001   1.409   .     A
C994   C996    1.421   .     A
C995   C997    1.408   .     A
C995   C938    1.408   1_655 S
C996   C999    1.408   .     A
C997   C1012   1.385   .     A
C997   C1007   1.397   .     A
C998   C1009   1.428   .     S
C998   O1038   1.284   .     A
C998   O1040   1.288   .     A
C999   C1006   1.397   .     A
C1000  H1028   1.081   .     S
C1000  C948    1.389   1_655 S
C1001  H1029   1.081   .     S
C1002  H1034   1.110   .     S
C1002  H1016   1.106   .     S
C1002  H1017   1.110   .     S
C1003  H1019   1.110   .     S
C1003  H1018   1.110   .     S
C1003  H1020   1.106   .     S
C1004  H1023   1.111   .     S
C1004  H1022   1.110   .     S
C1004  C776    1.522   1_565 S
C1004  H789    1.111   1_565 S
C1005  H1025   1.111   .     S
C1005  H1027   1.110   .     S
C1006  H1030   1.084   .     S
C1007  H1031   1.084   .     S
C1007  C943    1.389   1_655 S
C1009  C776    1.355   1_565 S
C1009  C773    1.522   1_565 S
C1010  O1041   1.294   .     A
C1010  O1043   1.291   .     A
C1011  O1042   1.294   .     A
C1011  O1044   1.291   .     A
C1012  H1015   1.086   .     S
Cu1013 N1036   2.018   .     S
Cu1013 O1040   1.960   .     S
Cu1013 O1044   1.953   .     S
Cu1013 O1037   1.970   .     S
Cu1013 O1041   1.967   .     S
Cu1013 Cu1014  2.685   .     S
Cu1014 O1039   1.960   .     S
Cu1014 N1035   2.018   .     S
Cu1014 O1042   1.967   .     S
Cu1014 O1043   1.953   .     S
Cu1014 O1038   1.970   .     S
H1024  C773    1.111   1_565 S
H1032  N339    1.029   1_556 S
N1036  N339    1.293   1_556 S
N1036  H337    1.029   1_556 S
