data_str_m2_o10_o17_pcu_sym.100
_audit_creation_date              2020-01-03
_audit_creation_method            'Materials Studio'
_symmetry_space_group_name_H-M    'P1'
_symmetry_Int_Tables_number       1
_symmetry_cell_setting            triclinic
loop_
_symmetry_equiv_pos_as_xyz
  x,y,z
_cell_length_a                    29.9735
_cell_length_b                    26.2486
_cell_length_c                    22.5237
_cell_angle_alpha                 103.3606
_cell_angle_beta                  94.0445
_cell_angle_gamma                 94.0802
loop_
_atom_site_label
_atom_site_type_symbol
_atom_site_fract_x
_atom_site_fract_y
_atom_site_fract_z
_atom_site_U_iso_or_equiv
_atom_site_adp_type
_atom_site_occupancy
O1     O     0.25325   0.09538   0.20659   0.00000  Uiso   1.00
O2     O     0.24674   0.23796   0.12674   0.00000  Uiso   1.00
O3     O     0.24480   0.08559   0.10279   0.00000  Uiso   1.00
O4     O     0.25520   0.24774   0.23055   0.00000  Uiso   1.00
C5     C     0.24813   0.06667   0.15114   0.00000  Uiso   1.00
C6     C     0.25187   0.26666   0.18219   0.00000  Uiso   1.00
O7     O     0.18935   0.17155   0.21857   0.00000  Uiso   1.00
O8     O     0.31064   0.16179   0.11476   0.00000  Uiso   1.00
O9     O     0.18090   0.16176   0.11477   0.00000  Uiso   1.00
O10    O     0.31910   0.17157   0.21857   0.00000  Uiso   1.00
C11    C     0.16458   0.16579   0.16734   0.00000  Uiso   1.00
C12    C     0.33542   0.16755   0.16600   0.00000  Uiso   1.00
Cu13   Cu    0.25500   0.17246   0.22813   0.00000  Uiso   1.00
Cu14   Cu    0.24499   0.16087   0.10521   0.00000  Uiso   1.00
C15    C     0.41152   0.21418   0.19771   0.00000  Uiso   1.00
C16    C     0.08848   0.11916   0.13563   0.00000  Uiso   1.00
C17    C     0.38371   0.16982   0.16435   0.00000  Uiso   1.00
C18    C     0.11629   0.16351   0.16899   0.00000  Uiso   1.00
C19    C     0.40182   0.12556   0.13185   0.00000  Uiso   1.00
C20    C     0.09818   0.20777   0.20149   0.00000  Uiso   1.00
C21    C     0.44804   0.12341   0.13458   0.00000  Uiso   1.00
C22    C     0.05196   0.20992   0.19875   0.00000  Uiso   1.00
C23    C     0.47664   0.16800   0.16563   0.00000  Uiso   1.00
C24    C     0.02336   0.16533   0.16771   0.00000  Uiso   1.00
C25    C     0.45850   0.21517   0.19436   0.00000  Uiso   1.00
C26    C     0.04150   0.11817   0.13898   0.00000  Uiso   1.00
C27    C     0.46569   0.07625   0.10920   0.00000  Uiso   1.00
C28    C     0.03431   0.25708   0.22413   0.00000  Uiso   1.00
C29    C     0.01193   0.07218   0.11406   0.00000  Uiso   1.00
C30    C     0.48807   0.26115   0.21927   0.00000  Uiso   1.00
H31    H     0.37965   0.09143   0.10771   0.00000  Uiso   1.00
H32    H     0.12035   0.24191   0.22562   0.00000  Uiso   1.00
H33    H     0.44315   0.04143   0.08894   0.00000  Uiso   1.00
H34    H     0.05685   0.29191   0.24439   0.00000  Uiso   1.00
C35    C     0.24148   0.01072   0.14410   0.00000  Uiso   1.00
C36    C     0.25852   0.32261   0.18923   0.00000  Uiso   1.00
N37    N     0.23744   0.15214   0.01284   0.00000  Uiso   1.00
N38    N     0.26255   0.18119   0.32049   0.00000  Uiso   1.00
N39    N     0.39222   0.25554   0.23850   0.00000  Uiso   1.00
O40    O     0.35886   0.27791   0.21858   0.00000  Uiso   1.00
O41    O     0.40608   0.26853   0.29652   0.00000  Uiso   1.00
N42    N     0.10778   0.07780   0.09483   0.00000  Uiso   1.00
O43    O     0.14114   0.05542   0.11476   0.00000  Uiso   1.00
O44    O     0.09392   0.06481   0.03682   0.00000  Uiso   1.00
N45    N     0.02749   0.02050   0.10063   0.00000  Uiso   1.00
O46    O     0.05528   0.00736   0.14040   0.00000  Uiso   1.00
O47    O     0.00679   0.31689   0.05656   0.00000  Uiso   1.00
N48    N     0.47251   0.31284   0.23270   0.00000  Uiso   1.00
O49    O     0.49321   0.01645   0.27677   0.00000  Uiso   1.00
O50    O     0.44472   0.32597   0.19294   0.00000  Uiso   1.00
N51    N     0.21067   0.31438   0.09375   0.00000  Uiso   1.00
O52    O     0.21528   0.31907   0.03821   0.00000  Uiso   1.00
O53    O     0.17477   0.28820   0.10444   0.00000  Uiso   1.00
N54    N     0.28933   0.01896   0.23959   0.00000  Uiso   1.00
O55    O     0.28472   0.01426   0.29512   0.00000  Uiso   1.00
O56    O     0.32523   0.04514   0.22889   0.00000  Uiso   1.00
N57    N     0.19485   0.13621   0.31692   0.00000  Uiso   1.00
O58    O     0.18461   0.08682   0.29044   0.00000  Uiso   1.00
O59    O     0.16267   0.16668   0.32941   0.00000  Uiso   1.00
N60    N     0.30515   0.19713   0.01641   0.00000  Uiso   1.00
O61    O     0.31539   0.24652   0.04289   0.00000  Uiso   1.00
O62    O     0.33733   0.16665   0.00392   0.00000  Uiso   1.00
O63    O     0.75325   0.09538   0.20659   0.00000  Uiso   1.00
O64    O     0.74674   0.23796   0.12674   0.00000  Uiso   1.00
O65    O     0.74480   0.08559   0.10279   0.00000  Uiso   1.00
O66    O     0.75520   0.24774   0.23055   0.00000  Uiso   1.00
C67    C     0.74813   0.06667   0.15114   0.00000  Uiso   1.00
C68    C     0.75187   0.26666   0.18219   0.00000  Uiso   1.00
O69    O     0.68935   0.17155   0.21857   0.00000  Uiso   1.00
O70    O     0.81064   0.16179   0.11476   0.00000  Uiso   1.00
O71    O     0.68090   0.16176   0.11477   0.00000  Uiso   1.00
O72    O     0.81910   0.17157   0.21857   0.00000  Uiso   1.00
C73    C     0.66458   0.16579   0.16734   0.00000  Uiso   1.00
C74    C     0.83542   0.16755   0.16600   0.00000  Uiso   1.00
Cu75   Cu    0.75500   0.17246   0.22813   0.00000  Uiso   1.00
Cu76   Cu    0.74499   0.16087   0.10521   0.00000  Uiso   1.00
C77    C     0.91152   0.21418   0.19771   0.00000  Uiso   1.00
C78    C     0.58848   0.11916   0.13563   0.00000  Uiso   1.00
C79    C     0.88371   0.16982   0.16435   0.00000  Uiso   1.00
C80    C     0.61629   0.16351   0.16899   0.00000  Uiso   1.00
C81    C     0.90182   0.12556   0.13185   0.00000  Uiso   1.00
C82    C     0.59818   0.20777   0.20149   0.00000  Uiso   1.00
C83    C     0.94804   0.12341   0.13458   0.00000  Uiso   1.00
C84    C     0.55196   0.20992   0.19875   0.00000  Uiso   1.00
C85    C     0.97664   0.16800   0.16563   0.00000  Uiso   1.00
C86    C     0.52336   0.16533   0.16771   0.00000  Uiso   1.00
C87    C     0.95850   0.21517   0.19436   0.00000  Uiso   1.00
C88    C     0.54150   0.11817   0.13898   0.00000  Uiso   1.00
C89    C     0.96569   0.07625   0.10920   0.00000  Uiso   1.00
C90    C     0.53431   0.25708   0.22413   0.00000  Uiso   1.00
C91    C     0.51193   0.07218   0.11406   0.00000  Uiso   1.00
C92    C     0.98807   0.26115   0.21927   0.00000  Uiso   1.00
H93    H     0.87965   0.09143   0.10771   0.00000  Uiso   1.00
H94    H     0.62035   0.24191   0.22562   0.00000  Uiso   1.00
H95    H     0.94315   0.04143   0.08894   0.00000  Uiso   1.00
H96    H     0.55685   0.29191   0.24439   0.00000  Uiso   1.00
C97    C     0.74148   0.01072   0.14410   0.00000  Uiso   1.00
C98    C     0.75852   0.32261   0.18923   0.00000  Uiso   1.00
N99    N     0.73744   0.15214   0.01284   0.00000  Uiso   1.00
N100   N     0.76255   0.18119   0.32049   0.00000  Uiso   1.00
N101   N     0.89222   0.25554   0.23850   0.00000  Uiso   1.00
O102   O     0.85886   0.27791   0.21858   0.00000  Uiso   1.00
O103   O     0.90608   0.26853   0.29652   0.00000  Uiso   1.00
N104   N     0.60778   0.07780   0.09483   0.00000  Uiso   1.00
O105   O     0.64114   0.05542   0.11476   0.00000  Uiso   1.00
O106   O     0.59392   0.06481   0.03682   0.00000  Uiso   1.00
N107   N     0.52749   0.02050   0.10063   0.00000  Uiso   1.00
O108   O     0.55528   0.00736   0.14040   0.00000  Uiso   1.00
O109   O     0.50679   0.31689   0.05656   0.00000  Uiso   1.00
N110   N     0.97251   0.31284   0.23270   0.00000  Uiso   1.00
O111   O     0.99321   0.01645   0.27677   0.00000  Uiso   1.00
O112   O     0.94472   0.32597   0.19294   0.00000  Uiso   1.00
N113   N     0.71067   0.31438   0.09375   0.00000  Uiso   1.00
O114   O     0.71528   0.31907   0.03821   0.00000  Uiso   1.00
O115   O     0.67477   0.28820   0.10444   0.00000  Uiso   1.00
N116   N     0.78933   0.01896   0.23959   0.00000  Uiso   1.00
O117   O     0.78472   0.01426   0.29512   0.00000  Uiso   1.00
O118   O     0.82523   0.04514   0.22889   0.00000  Uiso   1.00
N119   N     0.69485   0.13621   0.31692   0.00000  Uiso   1.00
O120   O     0.68461   0.08682   0.29044   0.00000  Uiso   1.00
O121   O     0.66267   0.16668   0.32941   0.00000  Uiso   1.00
N122   N     0.80515   0.19713   0.01641   0.00000  Uiso   1.00
O123   O     0.81539   0.24652   0.04289   0.00000  Uiso   1.00
O124   O     0.83733   0.16665   0.00392   0.00000  Uiso   1.00
O125   O     0.25325   0.42871   0.20659   0.00000  Uiso   1.00
O126   O     0.24674   0.57129   0.12674   0.00000  Uiso   1.00
O127   O     0.24480   0.41892   0.10279   0.00000  Uiso   1.00
O128   O     0.25520   0.58108   0.23055   0.00000  Uiso   1.00
C129   C     0.24813   0.40001   0.15114   0.00000  Uiso   1.00
C130   C     0.25187   0.59999   0.18219   0.00000  Uiso   1.00
O131   O     0.18935   0.50488   0.21857   0.00000  Uiso   1.00
O132   O     0.31064   0.49512   0.11476   0.00000  Uiso   1.00
O133   O     0.18090   0.49510   0.11477   0.00000  Uiso   1.00
O134   O     0.31910   0.50490   0.21857   0.00000  Uiso   1.00
C135   C     0.16458   0.49912   0.16734   0.00000  Uiso   1.00
C136   C     0.33542   0.50088   0.16600   0.00000  Uiso   1.00
Cu137  Cu    0.25500   0.50579   0.22813   0.00000  Uiso   1.00
Cu138  Cu    0.24499   0.49421   0.10521   0.00000  Uiso   1.00
C139   C     0.41152   0.54751   0.19771   0.00000  Uiso   1.00
C140   C     0.08848   0.45249   0.13563   0.00000  Uiso   1.00
C141   C     0.38371   0.50315   0.16435   0.00000  Uiso   1.00
C142   C     0.11629   0.49685   0.16899   0.00000  Uiso   1.00
C143   C     0.40182   0.45889   0.13185   0.00000  Uiso   1.00
C144   C     0.09818   0.54111   0.20149   0.00000  Uiso   1.00
C145   C     0.44804   0.45674   0.13458   0.00000  Uiso   1.00
C146   C     0.05196   0.54326   0.19875   0.00000  Uiso   1.00
C147   C     0.47664   0.50134   0.16563   0.00000  Uiso   1.00
C148   C     0.02336   0.49866   0.16771   0.00000  Uiso   1.00
C149   C     0.45850   0.54850   0.19436   0.00000  Uiso   1.00
C150   C     0.04150   0.45150   0.13898   0.00000  Uiso   1.00
C151   C     0.46569   0.40958   0.10920   0.00000  Uiso   1.00
C152   C     0.03431   0.59042   0.22413   0.00000  Uiso   1.00
C153   C     0.01193   0.40552   0.11406   0.00000  Uiso   1.00
C154   C     0.48807   0.59448   0.21927   0.00000  Uiso   1.00
H155   H     0.37965   0.42476   0.10771   0.00000  Uiso   1.00
H156   H     0.12035   0.57524   0.22562   0.00000  Uiso   1.00
H157   H     0.44315   0.37476   0.08894   0.00000  Uiso   1.00
H158   H     0.05685   0.62524   0.24439   0.00000  Uiso   1.00
C159   C     0.24148   0.34405   0.14410   0.00000  Uiso   1.00
C160   C     0.25852   0.65595   0.18923   0.00000  Uiso   1.00
N161   N     0.23744   0.48547   0.01284   0.00000  Uiso   1.00
N162   N     0.26255   0.51453   0.32049   0.00000  Uiso   1.00
N163   N     0.39222   0.58887   0.23850   0.00000  Uiso   1.00
O164   O     0.35886   0.61125   0.21858   0.00000  Uiso   1.00
O165   O     0.40608   0.60186   0.29652   0.00000  Uiso   1.00
N166   N     0.10778   0.41113   0.09483   0.00000  Uiso   1.00
O167   O     0.14114   0.38875   0.11476   0.00000  Uiso   1.00
O168   O     0.09392   0.39814   0.03682   0.00000  Uiso   1.00
N169   N     0.02749   0.35383   0.10063   0.00000  Uiso   1.00
O170   O     0.05528   0.34069   0.14040   0.00000  Uiso   1.00
O171   O     0.00679   0.65022   0.05656   0.00000  Uiso   1.00
N172   N     0.47251   0.64617   0.23270   0.00000  Uiso   1.00
O173   O     0.49321   0.34978   0.27677   0.00000  Uiso   1.00
O174   O     0.44472   0.65931   0.19294   0.00000  Uiso   1.00
N175   N     0.21067   0.64771   0.09375   0.00000  Uiso   1.00
O176   O     0.21528   0.65241   0.03821   0.00000  Uiso   1.00
O177   O     0.17477   0.62153   0.10444   0.00000  Uiso   1.00
N178   N     0.28933   0.35229   0.23959   0.00000  Uiso   1.00
O179   O     0.28472   0.34759   0.29512   0.00000  Uiso   1.00
O180   O     0.32523   0.37847   0.22889   0.00000  Uiso   1.00
N181   N     0.19485   0.46954   0.31692   0.00000  Uiso   1.00
O182   O     0.18461   0.42015   0.29044   0.00000  Uiso   1.00
O183   O     0.16267   0.50002   0.32941   0.00000  Uiso   1.00
N184   N     0.30515   0.53046   0.01641   0.00000  Uiso   1.00
O185   O     0.31539   0.57985   0.04289   0.00000  Uiso   1.00
O186   O     0.33733   0.49999   0.00392   0.00000  Uiso   1.00
O187   O     0.75325   0.42871   0.20659   0.00000  Uiso   1.00
O188   O     0.74674   0.57129   0.12674   0.00000  Uiso   1.00
O189   O     0.74480   0.41892   0.10279   0.00000  Uiso   1.00
O190   O     0.75520   0.58108   0.23055   0.00000  Uiso   1.00
C191   C     0.74813   0.40001   0.15114   0.00000  Uiso   1.00
C192   C     0.75187   0.59999   0.18219   0.00000  Uiso   1.00
O193   O     0.68935   0.50488   0.21857   0.00000  Uiso   1.00
O194   O     0.81064   0.49512   0.11476   0.00000  Uiso   1.00
O195   O     0.68090   0.49510   0.11477   0.00000  Uiso   1.00
O196   O     0.81910   0.50490   0.21857   0.00000  Uiso   1.00
C197   C     0.66458   0.49912   0.16734   0.00000  Uiso   1.00
C198   C     0.83542   0.50088   0.16600   0.00000  Uiso   1.00
Cu199  Cu    0.75500   0.50579   0.22813   0.00000  Uiso   1.00
Cu200  Cu    0.74499   0.49421   0.10521   0.00000  Uiso   1.00
C201   C     0.91152   0.54751   0.19771   0.00000  Uiso   1.00
C202   C     0.58848   0.45249   0.13563   0.00000  Uiso   1.00
C203   C     0.88371   0.50315   0.16435   0.00000  Uiso   1.00
C204   C     0.61629   0.49685   0.16899   0.00000  Uiso   1.00
C205   C     0.90182   0.45889   0.13185   0.00000  Uiso   1.00
C206   C     0.59818   0.54111   0.20149   0.00000  Uiso   1.00
C207   C     0.94804   0.45674   0.13458   0.00000  Uiso   1.00
C208   C     0.55196   0.54326   0.19875   0.00000  Uiso   1.00
C209   C     0.97664   0.50134   0.16563   0.00000  Uiso   1.00
C210   C     0.52336   0.49866   0.16771   0.00000  Uiso   1.00
C211   C     0.95850   0.54850   0.19436   0.00000  Uiso   1.00
C212   C     0.54150   0.45150   0.13898   0.00000  Uiso   1.00
C213   C     0.96569   0.40958   0.10920   0.00000  Uiso   1.00
C214   C     0.53431   0.59042   0.22413   0.00000  Uiso   1.00
C215   C     0.51193   0.40552   0.11406   0.00000  Uiso   1.00
C216   C     0.98807   0.59448   0.21927   0.00000  Uiso   1.00
H217   H     0.87965   0.42476   0.10771   0.00000  Uiso   1.00
H218   H     0.62035   0.57524   0.22562   0.00000  Uiso   1.00
H219   H     0.94315   0.37476   0.08894   0.00000  Uiso   1.00
H220   H     0.55685   0.62524   0.24439   0.00000  Uiso   1.00
C221   C     0.74148   0.34405   0.14410   0.00000  Uiso   1.00
C222   C     0.75852   0.65595   0.18923   0.00000  Uiso   1.00
N223   N     0.73744   0.48547   0.01284   0.00000  Uiso   1.00
N224   N     0.76255   0.51453   0.32049   0.00000  Uiso   1.00
N225   N     0.89222   0.58887   0.23850   0.00000  Uiso   1.00
O226   O     0.85886   0.61125   0.21858   0.00000  Uiso   1.00
O227   O     0.90608   0.60186   0.29652   0.00000  Uiso   1.00
N228   N     0.60778   0.41113   0.09483   0.00000  Uiso   1.00
O229   O     0.64114   0.38875   0.11476   0.00000  Uiso   1.00
O230   O     0.59392   0.39814   0.03682   0.00000  Uiso   1.00
N231   N     0.52749   0.35383   0.10063   0.00000  Uiso   1.00
O232   O     0.55528   0.34069   0.14040   0.00000  Uiso   1.00
O233   O     0.50679   0.65022   0.05656   0.00000  Uiso   1.00
N234   N     0.97251   0.64617   0.23270   0.00000  Uiso   1.00
O235   O     0.99321   0.34978   0.27677   0.00000  Uiso   1.00
O236   O     0.94472   0.65931   0.19294   0.00000  Uiso   1.00
N237   N     0.71067   0.64771   0.09375   0.00000  Uiso   1.00
O238   O     0.71528   0.65241   0.03821   0.00000  Uiso   1.00
O239   O     0.67477   0.62153   0.10444   0.00000  Uiso   1.00
N240   N     0.78933   0.35229   0.23959   0.00000  Uiso   1.00
O241   O     0.78472   0.34759   0.29512   0.00000  Uiso   1.00
O242   O     0.82523   0.37847   0.22889   0.00000  Uiso   1.00
N243   N     0.69485   0.46954   0.31692   0.00000  Uiso   1.00
O244   O     0.68461   0.42015   0.29044   0.00000  Uiso   1.00
O245   O     0.66267   0.50002   0.32941   0.00000  Uiso   1.00
N246   N     0.80515   0.53046   0.01641   0.00000  Uiso   1.00
O247   O     0.81539   0.57985   0.04289   0.00000  Uiso   1.00
O248   O     0.83733   0.49999   0.00392   0.00000  Uiso   1.00
O249   O     0.25325   0.76204   0.20659   0.00000  Uiso   1.00
O250   O     0.24674   0.90462   0.12674   0.00000  Uiso   1.00
O251   O     0.24480   0.75226   0.10279   0.00000  Uiso   1.00
O252   O     0.25520   0.91441   0.23055   0.00000  Uiso   1.00
C253   C     0.24813   0.73334   0.15114   0.00000  Uiso   1.00
C254   C     0.25187   0.93333   0.18219   0.00000  Uiso   1.00
O255   O     0.18935   0.83821   0.21857   0.00000  Uiso   1.00
O256   O     0.31064   0.82845   0.11476   0.00000  Uiso   1.00
O257   O     0.18090   0.82843   0.11477   0.00000  Uiso   1.00
O258   O     0.31910   0.83824   0.21857   0.00000  Uiso   1.00
C259   C     0.16458   0.83245   0.16734   0.00000  Uiso   1.00
C260   C     0.33542   0.83422   0.16600   0.00000  Uiso   1.00
Cu261  Cu    0.25500   0.83913   0.22813   0.00000  Uiso   1.00
Cu262  Cu    0.24499   0.82754   0.10521   0.00000  Uiso   1.00
C263   C     0.41152   0.88084   0.19771   0.00000  Uiso   1.00
C264   C     0.08848   0.78582   0.13563   0.00000  Uiso   1.00
C265   C     0.38371   0.83649   0.16435   0.00000  Uiso   1.00
C266   C     0.11629   0.83018   0.16899   0.00000  Uiso   1.00
C267   C     0.40182   0.79223   0.13185   0.00000  Uiso   1.00
C268   C     0.09818   0.87444   0.20149   0.00000  Uiso   1.00
C269   C     0.44804   0.79008   0.13458   0.00000  Uiso   1.00
C270   C     0.05196   0.87659   0.19875   0.00000  Uiso   1.00
C271   C     0.47664   0.83467   0.16563   0.00000  Uiso   1.00
C272   C     0.02336   0.83200   0.16771   0.00000  Uiso   1.00
C273   C     0.45850   0.88183   0.19436   0.00000  Uiso   1.00
C274   C     0.04150   0.78483   0.13898   0.00000  Uiso   1.00
C275   C     0.46569   0.74292   0.10920   0.00000  Uiso   1.00
C276   C     0.03431   0.92375   0.22413   0.00000  Uiso   1.00
C277   C     0.01193   0.73885   0.11406   0.00000  Uiso   1.00
C278   C     0.48807   0.92782   0.21927   0.00000  Uiso   1.00
H279   H     0.37965   0.75809   0.10771   0.00000  Uiso   1.00
H280   H     0.12035   0.90857   0.22562   0.00000  Uiso   1.00
H281   H     0.44315   0.70809   0.08894   0.00000  Uiso   1.00
H282   H     0.05685   0.95857   0.24439   0.00000  Uiso   1.00
C283   C     0.24148   0.67739   0.14410   0.00000  Uiso   1.00
C284   C     0.25852   0.98928   0.18923   0.00000  Uiso   1.00
N285   N     0.23744   0.81881   0.01284   0.00000  Uiso   1.00
N286   N     0.26255   0.84786   0.32049   0.00000  Uiso   1.00
N287   N     0.39222   0.92220   0.23850   0.00000  Uiso   1.00
O288   O     0.35886   0.94458   0.21858   0.00000  Uiso   1.00
O289   O     0.40608   0.93519   0.29652   0.00000  Uiso   1.00
N290   N     0.10778   0.74446   0.09483   0.00000  Uiso   1.00
O291   O     0.14114   0.72209   0.11476   0.00000  Uiso   1.00
O292   O     0.09392   0.73147   0.03682   0.00000  Uiso   1.00
N293   N     0.02749   0.68717   0.10063   0.00000  Uiso   1.00
O294   O     0.05528   0.67403   0.14040   0.00000  Uiso   1.00
O295   O     0.00679   0.98355   0.05656   0.00000  Uiso   1.00
N296   N     0.47251   0.97950   0.23270   0.00000  Uiso   1.00
O297   O     0.49321   0.68311   0.27677   0.00000  Uiso   1.00
O298   O     0.44472   0.99264   0.19294   0.00000  Uiso   1.00
N299   N     0.21067   0.98104   0.09375   0.00000  Uiso   1.00
O300   O     0.21528   0.98574   0.03821   0.00000  Uiso   1.00
O301   O     0.17477   0.95486   0.10444   0.00000  Uiso   1.00
N302   N     0.28933   0.68562   0.23959   0.00000  Uiso   1.00
O303   O     0.28472   0.68093   0.29512   0.00000  Uiso   1.00
O304   O     0.32523   0.71180   0.22889   0.00000  Uiso   1.00
N305   N     0.19485   0.80287   0.31692   0.00000  Uiso   1.00
O306   O     0.18461   0.75348   0.29044   0.00000  Uiso   1.00
O307   O     0.16267   0.83335   0.32941   0.00000  Uiso   1.00
N308   N     0.30515   0.86379   0.01641   0.00000  Uiso   1.00
O309   O     0.31539   0.91319   0.04289   0.00000  Uiso   1.00
O310   O     0.33733   0.83332   0.00392   0.00000  Uiso   1.00
O311   O     0.75325   0.76204   0.20659   0.00000  Uiso   1.00
O312   O     0.74674   0.90462   0.12674   0.00000  Uiso   1.00
O313   O     0.74480   0.75226   0.10279   0.00000  Uiso   1.00
O314   O     0.75520   0.91441   0.23055   0.00000  Uiso   1.00
C315   C     0.74813   0.73334   0.15114   0.00000  Uiso   1.00
C316   C     0.75187   0.93333   0.18219   0.00000  Uiso   1.00
O317   O     0.68935   0.83821   0.21857   0.00000  Uiso   1.00
O318   O     0.81064   0.82845   0.11476   0.00000  Uiso   1.00
O319   O     0.68090   0.82843   0.11477   0.00000  Uiso   1.00
O320   O     0.81910   0.83824   0.21857   0.00000  Uiso   1.00
C321   C     0.66458   0.83245   0.16734   0.00000  Uiso   1.00
C322   C     0.83542   0.83422   0.16600   0.00000  Uiso   1.00
Cu323  Cu    0.75500   0.83913   0.22813   0.00000  Uiso   1.00
Cu324  Cu    0.74499   0.82754   0.10521   0.00000  Uiso   1.00
C325   C     0.91152   0.88084   0.19771   0.00000  Uiso   1.00
C326   C     0.58848   0.78582   0.13563   0.00000  Uiso   1.00
C327   C     0.88371   0.83649   0.16435   0.00000  Uiso   1.00
C328   C     0.61629   0.83018   0.16899   0.00000  Uiso   1.00
C329   C     0.90182   0.79223   0.13185   0.00000  Uiso   1.00
C330   C     0.59818   0.87444   0.20149   0.00000  Uiso   1.00
C331   C     0.94804   0.79008   0.13458   0.00000  Uiso   1.00
C332   C     0.55196   0.87659   0.19875   0.00000  Uiso   1.00
C333   C     0.97664   0.83467   0.16563   0.00000  Uiso   1.00
C334   C     0.52336   0.83200   0.16771   0.00000  Uiso   1.00
C335   C     0.95850   0.88183   0.19436   0.00000  Uiso   1.00
C336   C     0.54150   0.78483   0.13898   0.00000  Uiso   1.00
C337   C     0.96569   0.74292   0.10920   0.00000  Uiso   1.00
C338   C     0.53431   0.92375   0.22413   0.00000  Uiso   1.00
C339   C     0.51193   0.73885   0.11406   0.00000  Uiso   1.00
C340   C     0.98807   0.92782   0.21927   0.00000  Uiso   1.00
H341   H     0.87965   0.75809   0.10771   0.00000  Uiso   1.00
H342   H     0.62035   0.90857   0.22562   0.00000  Uiso   1.00
H343   H     0.94315   0.70809   0.08894   0.00000  Uiso   1.00
H344   H     0.55685   0.95857   0.24439   0.00000  Uiso   1.00
C345   C     0.74148   0.67739   0.14410   0.00000  Uiso   1.00
C346   C     0.75852   0.98928   0.18923   0.00000  Uiso   1.00
N347   N     0.73744   0.81881   0.01284   0.00000  Uiso   1.00
N348   N     0.76255   0.84786   0.32049   0.00000  Uiso   1.00
N349   N     0.89222   0.92220   0.23850   0.00000  Uiso   1.00
O350   O     0.85886   0.94458   0.21858   0.00000  Uiso   1.00
O351   O     0.90608   0.93519   0.29652   0.00000  Uiso   1.00
N352   N     0.60778   0.74446   0.09483   0.00000  Uiso   1.00
O353   O     0.64114   0.72209   0.11476   0.00000  Uiso   1.00
O354   O     0.59392   0.73147   0.03682   0.00000  Uiso   1.00
N355   N     0.52749   0.68717   0.10063   0.00000  Uiso   1.00
O356   O     0.55528   0.67403   0.14040   0.00000  Uiso   1.00
O357   O     0.50679   0.98355   0.05656   0.00000  Uiso   1.00
N358   N     0.97251   0.97950   0.23270   0.00000  Uiso   1.00
O359   O     0.99321   0.68311   0.27677   0.00000  Uiso   1.00
O360   O     0.94472   0.99264   0.19294   0.00000  Uiso   1.00
N361   N     0.71067   0.98104   0.09375   0.00000  Uiso   1.00
O362   O     0.71528   0.98574   0.03821   0.00000  Uiso   1.00
O363   O     0.67477   0.95486   0.10444   0.00000  Uiso   1.00
N364   N     0.78933   0.68562   0.23959   0.00000  Uiso   1.00
O365   O     0.78472   0.68093   0.29512   0.00000  Uiso   1.00
O366   O     0.82523   0.71180   0.22889   0.00000  Uiso   1.00
N367   N     0.69485   0.80287   0.31692   0.00000  Uiso   1.00
O368   O     0.68461   0.75348   0.29044   0.00000  Uiso   1.00
O369   O     0.66267   0.83335   0.32941   0.00000  Uiso   1.00
N370   N     0.80515   0.86379   0.01641   0.00000  Uiso   1.00
O371   O     0.81539   0.91319   0.04289   0.00000  Uiso   1.00
O372   O     0.83733   0.83332   0.00392   0.00000  Uiso   1.00
O373   O     0.25325   0.09538   0.53992   0.00000  Uiso   1.00
O374   O     0.24674   0.23796   0.46008   0.00000  Uiso   1.00
O375   O     0.24480   0.08559   0.43612   0.00000  Uiso   1.00
O376   O     0.25520   0.24774   0.56388   0.00000  Uiso   1.00
C377   C     0.24813   0.06667   0.48448   0.00000  Uiso   1.00
C378   C     0.25187   0.26666   0.51552   0.00000  Uiso   1.00
O379   O     0.18935   0.17155   0.55191   0.00000  Uiso   1.00
O380   O     0.31064   0.16179   0.44809   0.00000  Uiso   1.00
O381   O     0.18090   0.16176   0.44810   0.00000  Uiso   1.00
O382   O     0.31910   0.17157   0.55190   0.00000  Uiso   1.00
C383   C     0.16458   0.16579   0.50067   0.00000  Uiso   1.00
C384   C     0.33542   0.16755   0.49933   0.00000  Uiso   1.00
Cu385  Cu    0.25500   0.17246   0.56146   0.00000  Uiso   1.00
Cu386  Cu    0.24499   0.16087   0.43854   0.00000  Uiso   1.00
C387   C     0.41152   0.21418   0.53104   0.00000  Uiso   1.00
C388   C     0.08848   0.11916   0.46896   0.00000  Uiso   1.00
C389   C     0.38371   0.16982   0.49768   0.00000  Uiso   1.00
C390   C     0.11629   0.16351   0.50232   0.00000  Uiso   1.00
C391   C     0.40182   0.12556   0.46518   0.00000  Uiso   1.00
C392   C     0.09818   0.20777   0.53482   0.00000  Uiso   1.00
C393   C     0.44804   0.12341   0.46792   0.00000  Uiso   1.00
C394   C     0.05196   0.20992   0.53208   0.00000  Uiso   1.00
C395   C     0.47664   0.16800   0.49896   0.00000  Uiso   1.00
C396   C     0.02336   0.16533   0.50104   0.00000  Uiso   1.00
C397   C     0.45850   0.21517   0.52769   0.00000  Uiso   1.00
C398   C     0.04150   0.11817   0.47231   0.00000  Uiso   1.00
C399   C     0.46569   0.07625   0.44254   0.00000  Uiso   1.00
C400   C     0.03431   0.25708   0.55746   0.00000  Uiso   1.00
C401   C     0.01193   0.07218   0.44739   0.00000  Uiso   1.00
C402   C     0.48807   0.26115   0.55261   0.00000  Uiso   1.00
H403   H     0.37965   0.09143   0.44104   0.00000  Uiso   1.00
H404   H     0.12035   0.24191   0.55896   0.00000  Uiso   1.00
H405   H     0.44315   0.04143   0.42227   0.00000  Uiso   1.00
H406   H     0.05685   0.29191   0.57773   0.00000  Uiso   1.00
C407   C     0.24148   0.01072   0.47743   0.00000  Uiso   1.00
C408   C     0.25852   0.32261   0.52257   0.00000  Uiso   1.00
N409   N     0.23744   0.15214   0.34617   0.00000  Uiso   1.00
N410   N     0.26255   0.18119   0.65383   0.00000  Uiso   1.00
N411   N     0.39222   0.25554   0.57184   0.00000  Uiso   1.00
O412   O     0.35886   0.27791   0.55191   0.00000  Uiso   1.00
O413   O     0.40608   0.26853   0.62985   0.00000  Uiso   1.00
N414   N     0.10778   0.07780   0.42816   0.00000  Uiso   1.00
O415   O     0.14114   0.05542   0.44809   0.00000  Uiso   1.00
O416   O     0.09392   0.06481   0.37015   0.00000  Uiso   1.00
N417   N     0.02749   0.02050   0.43397   0.00000  Uiso   1.00
O418   O     0.05528   0.00736   0.47373   0.00000  Uiso   1.00
O419   O     0.00679   0.31689   0.38990   0.00000  Uiso   1.00
N420   N     0.47251   0.31284   0.56603   0.00000  Uiso   1.00
O421   O     0.49321   0.01645   0.61011   0.00000  Uiso   1.00
O422   O     0.44472   0.32597   0.52627   0.00000  Uiso   1.00
N423   N     0.21067   0.31438   0.42708   0.00000  Uiso   1.00
O424   O     0.21528   0.31907   0.37155   0.00000  Uiso   1.00
O425   O     0.17477   0.28820   0.43777   0.00000  Uiso   1.00
N426   N     0.28933   0.01896   0.57292   0.00000  Uiso   1.00
O427   O     0.28472   0.01426   0.62845   0.00000  Uiso   1.00
O428   O     0.32523   0.04514   0.56223   0.00000  Uiso   1.00
N429   N     0.19485   0.13621   0.65025   0.00000  Uiso   1.00
O430   O     0.18461   0.08682   0.62378   0.00000  Uiso   1.00
O431   O     0.16267   0.16668   0.66275   0.00000  Uiso   1.00
N432   N     0.30515   0.19713   0.34975   0.00000  Uiso   1.00
O433   O     0.31539   0.24652   0.37622   0.00000  Uiso   1.00
O434   O     0.33733   0.16665   0.33725   0.00000  Uiso   1.00
O435   O     0.75325   0.09538   0.53992   0.00000  Uiso   1.00
O436   O     0.74674   0.23796   0.46008   0.00000  Uiso   1.00
O437   O     0.74480   0.08559   0.43612   0.00000  Uiso   1.00
O438   O     0.75520   0.24774   0.56388   0.00000  Uiso   1.00
C439   C     0.74813   0.06667   0.48448   0.00000  Uiso   1.00
C440   C     0.75187   0.26666   0.51552   0.00000  Uiso   1.00
O441   O     0.68935   0.17155   0.55191   0.00000  Uiso   1.00
O442   O     0.81064   0.16179   0.44809   0.00000  Uiso   1.00
O443   O     0.68090   0.16176   0.44810   0.00000  Uiso   1.00
O444   O     0.81910   0.17157   0.55190   0.00000  Uiso   1.00
C445   C     0.66458   0.16579   0.50067   0.00000  Uiso   1.00
C446   C     0.83542   0.16755   0.49933   0.00000  Uiso   1.00
Cu447  Cu    0.75500   0.17246   0.56146   0.00000  Uiso   1.00
Cu448  Cu    0.74499   0.16087   0.43854   0.00000  Uiso   1.00
C449   C     0.91152   0.21418   0.53104   0.00000  Uiso   1.00
C450   C     0.58848   0.11916   0.46896   0.00000  Uiso   1.00
C451   C     0.88371   0.16982   0.49768   0.00000  Uiso   1.00
C452   C     0.61629   0.16351   0.50232   0.00000  Uiso   1.00
C453   C     0.90182   0.12556   0.46518   0.00000  Uiso   1.00
C454   C     0.59818   0.20777   0.53482   0.00000  Uiso   1.00
C455   C     0.94804   0.12341   0.46792   0.00000  Uiso   1.00
C456   C     0.55196   0.20992   0.53208   0.00000  Uiso   1.00
C457   C     0.97664   0.16800   0.49896   0.00000  Uiso   1.00
C458   C     0.52336   0.16533   0.50104   0.00000  Uiso   1.00
C459   C     0.95850   0.21517   0.52769   0.00000  Uiso   1.00
C460   C     0.54150   0.11817   0.47231   0.00000  Uiso   1.00
C461   C     0.96569   0.07625   0.44254   0.00000  Uiso   1.00
C462   C     0.53431   0.25708   0.55746   0.00000  Uiso   1.00
C463   C     0.51193   0.07218   0.44739   0.00000  Uiso   1.00
C464   C     0.98807   0.26115   0.55261   0.00000  Uiso   1.00
H465   H     0.87965   0.09143   0.44104   0.00000  Uiso   1.00
H466   H     0.62035   0.24191   0.55896   0.00000  Uiso   1.00
H467   H     0.94315   0.04143   0.42227   0.00000  Uiso   1.00
H468   H     0.55685   0.29191   0.57773   0.00000  Uiso   1.00
C469   C     0.74148   0.01072   0.47743   0.00000  Uiso   1.00
C470   C     0.75852   0.32261   0.52257   0.00000  Uiso   1.00
N471   N     0.73744   0.15214   0.34617   0.00000  Uiso   1.00
N472   N     0.76255   0.18119   0.65383   0.00000  Uiso   1.00
N473   N     0.89222   0.25554   0.57184   0.00000  Uiso   1.00
O474   O     0.85886   0.27791   0.55191   0.00000  Uiso   1.00
O475   O     0.90608   0.26853   0.62985   0.00000  Uiso   1.00
N476   N     0.60778   0.07780   0.42816   0.00000  Uiso   1.00
O477   O     0.64114   0.05542   0.44809   0.00000  Uiso   1.00
O478   O     0.59392   0.06481   0.37015   0.00000  Uiso   1.00
N479   N     0.52749   0.02050   0.43397   0.00000  Uiso   1.00
O480   O     0.55528   0.00736   0.47373   0.00000  Uiso   1.00
O481   O     0.50679   0.31689   0.38990   0.00000  Uiso   1.00
N482   N     0.97251   0.31284   0.56603   0.00000  Uiso   1.00
O483   O     0.99321   0.01645   0.61011   0.00000  Uiso   1.00
O484   O     0.94472   0.32597   0.52627   0.00000  Uiso   1.00
N485   N     0.71067   0.31438   0.42708   0.00000  Uiso   1.00
O486   O     0.71528   0.31907   0.37155   0.00000  Uiso   1.00
O487   O     0.67477   0.28820   0.43777   0.00000  Uiso   1.00
N488   N     0.78933   0.01896   0.57292   0.00000  Uiso   1.00
O489   O     0.78472   0.01426   0.62845   0.00000  Uiso   1.00
O490   O     0.82523   0.04514   0.56223   0.00000  Uiso   1.00
N491   N     0.69485   0.13621   0.65025   0.00000  Uiso   1.00
O492   O     0.68461   0.08682   0.62378   0.00000  Uiso   1.00
O493   O     0.66267   0.16668   0.66275   0.00000  Uiso   1.00
N494   N     0.80515   0.19713   0.34975   0.00000  Uiso   1.00
O495   O     0.81539   0.24652   0.37622   0.00000  Uiso   1.00
O496   O     0.83733   0.16665   0.33725   0.00000  Uiso   1.00
O497   O     0.25325   0.42871   0.53992   0.00000  Uiso   1.00
O498   O     0.24674   0.57129   0.46008   0.00000  Uiso   1.00
O499   O     0.24480   0.41892   0.43612   0.00000  Uiso   1.00
O500   O     0.25520   0.58108   0.56388   0.00000  Uiso   1.00
C501   C     0.24813   0.40001   0.48448   0.00000  Uiso   1.00
C502   C     0.25187   0.59999   0.51552   0.00000  Uiso   1.00
O503   O     0.18935   0.50488   0.55191   0.00000  Uiso   1.00
O504   O     0.31064   0.49512   0.44809   0.00000  Uiso   1.00
O505   O     0.18090   0.49510   0.44810   0.00000  Uiso   1.00
O506   O     0.31910   0.50490   0.55190   0.00000  Uiso   1.00
C507   C     0.16458   0.49912   0.50067   0.00000  Uiso   1.00
C508   C     0.33542   0.50088   0.49933   0.00000  Uiso   1.00
Cu509  Cu    0.25500   0.50579   0.56146   0.00000  Uiso   1.00
Cu510  Cu    0.24499   0.49421   0.43854   0.00000  Uiso   1.00
C511   C     0.41152   0.54751   0.53104   0.00000  Uiso   1.00
C512   C     0.08848   0.45249   0.46896   0.00000  Uiso   1.00
C513   C     0.38371   0.50315   0.49768   0.00000  Uiso   1.00
C514   C     0.11629   0.49685   0.50232   0.00000  Uiso   1.00
C515   C     0.40182   0.45889   0.46518   0.00000  Uiso   1.00
C516   C     0.09818   0.54111   0.53482   0.00000  Uiso   1.00
C517   C     0.44804   0.45674   0.46792   0.00000  Uiso   1.00
C518   C     0.05196   0.54326   0.53208   0.00000  Uiso   1.00
C519   C     0.47664   0.50134   0.49896   0.00000  Uiso   1.00
C520   C     0.02336   0.49866   0.50104   0.00000  Uiso   1.00
C521   C     0.45850   0.54850   0.52769   0.00000  Uiso   1.00
C522   C     0.04150   0.45150   0.47231   0.00000  Uiso   1.00
C523   C     0.46569   0.40958   0.44254   0.00000  Uiso   1.00
C524   C     0.03431   0.59042   0.55746   0.00000  Uiso   1.00
C525   C     0.01193   0.40552   0.44739   0.00000  Uiso   1.00
C526   C     0.48807   0.59448   0.55261   0.00000  Uiso   1.00
H527   H     0.37965   0.42476   0.44104   0.00000  Uiso   1.00
H528   H     0.12035   0.57524   0.55896   0.00000  Uiso   1.00
H529   H     0.44315   0.37476   0.42227   0.00000  Uiso   1.00
H530   H     0.05685   0.62524   0.57773   0.00000  Uiso   1.00
C531   C     0.24148   0.34405   0.47743   0.00000  Uiso   1.00
C532   C     0.25852   0.65595   0.52257   0.00000  Uiso   1.00
N533   N     0.23744   0.48547   0.34617   0.00000  Uiso   1.00
N534   N     0.26255   0.51453   0.65383   0.00000  Uiso   1.00
N535   N     0.39222   0.58887   0.57184   0.00000  Uiso   1.00
O536   O     0.35886   0.61125   0.55191   0.00000  Uiso   1.00
O537   O     0.40608   0.60186   0.62985   0.00000  Uiso   1.00
N538   N     0.10778   0.41113   0.42816   0.00000  Uiso   1.00
O539   O     0.14114   0.38875   0.44809   0.00000  Uiso   1.00
O540   O     0.09392   0.39814   0.37015   0.00000  Uiso   1.00
N541   N     0.02749   0.35383   0.43397   0.00000  Uiso   1.00
O542   O     0.05528   0.34069   0.47373   0.00000  Uiso   1.00
O543   O     0.00679   0.65022   0.38990   0.00000  Uiso   1.00
N544   N     0.47251   0.64617   0.56603   0.00000  Uiso   1.00
O545   O     0.49321   0.34978   0.61011   0.00000  Uiso   1.00
O546   O     0.44472   0.65931   0.52627   0.00000  Uiso   1.00
N547   N     0.21067   0.64771   0.42708   0.00000  Uiso   1.00
O548   O     0.21528   0.65241   0.37155   0.00000  Uiso   1.00
O549   O     0.17477   0.62153   0.43777   0.00000  Uiso   1.00
N550   N     0.28933   0.35229   0.57292   0.00000  Uiso   1.00
O551   O     0.28472   0.34759   0.62845   0.00000  Uiso   1.00
O552   O     0.32523   0.37847   0.56223   0.00000  Uiso   1.00
N553   N     0.19485   0.46954   0.65025   0.00000  Uiso   1.00
O554   O     0.18461   0.42015   0.62378   0.00000  Uiso   1.00
O555   O     0.16267   0.50002   0.66275   0.00000  Uiso   1.00
N556   N     0.30515   0.53046   0.34975   0.00000  Uiso   1.00
O557   O     0.31539   0.57985   0.37622   0.00000  Uiso   1.00
O558   O     0.33733   0.49999   0.33725   0.00000  Uiso   1.00
O559   O     0.75325   0.42871   0.53992   0.00000  Uiso   1.00
O560   O     0.74674   0.57129   0.46008   0.00000  Uiso   1.00
O561   O     0.74480   0.41892   0.43612   0.00000  Uiso   1.00
O562   O     0.75520   0.58108   0.56388   0.00000  Uiso   1.00
C563   C     0.74813   0.40001   0.48448   0.00000  Uiso   1.00
C564   C     0.75187   0.59999   0.51552   0.00000  Uiso   1.00
O565   O     0.68935   0.50488   0.55191   0.00000  Uiso   1.00
O566   O     0.81064   0.49512   0.44809   0.00000  Uiso   1.00
O567   O     0.68090   0.49510   0.44810   0.00000  Uiso   1.00
O568   O     0.81910   0.50490   0.55190   0.00000  Uiso   1.00
C569   C     0.66458   0.49912   0.50067   0.00000  Uiso   1.00
C570   C     0.83542   0.50088   0.49933   0.00000  Uiso   1.00
Cu571  Cu    0.75500   0.50579   0.56146   0.00000  Uiso   1.00
Cu572  Cu    0.74499   0.49421   0.43854   0.00000  Uiso   1.00
C573   C     0.91152   0.54751   0.53104   0.00000  Uiso   1.00
C574   C     0.58848   0.45249   0.46896   0.00000  Uiso   1.00
C575   C     0.88371   0.50315   0.49768   0.00000  Uiso   1.00
C576   C     0.61629   0.49685   0.50232   0.00000  Uiso   1.00
C577   C     0.90182   0.45889   0.46518   0.00000  Uiso   1.00
C578   C     0.59818   0.54111   0.53482   0.00000  Uiso   1.00
C579   C     0.94804   0.45674   0.46792   0.00000  Uiso   1.00
C580   C     0.55196   0.54326   0.53208   0.00000  Uiso   1.00
C581   C     0.97664   0.50134   0.49896   0.00000  Uiso   1.00
C582   C     0.52336   0.49866   0.50104   0.00000  Uiso   1.00
C583   C     0.95850   0.54850   0.52769   0.00000  Uiso   1.00
C584   C     0.54150   0.45150   0.47231   0.00000  Uiso   1.00
C585   C     0.96569   0.40958   0.44254   0.00000  Uiso   1.00
C586   C     0.53431   0.59042   0.55746   0.00000  Uiso   1.00
C587   C     0.51193   0.40552   0.44739   0.00000  Uiso   1.00
C588   C     0.98807   0.59448   0.55261   0.00000  Uiso   1.00
H589   H     0.87965   0.42476   0.44104   0.00000  Uiso   1.00
H590   H     0.62035   0.57524   0.55896   0.00000  Uiso   1.00
H591   H     0.94315   0.37476   0.42227   0.00000  Uiso   1.00
H592   H     0.55685   0.62524   0.57773   0.00000  Uiso   1.00
C593   C     0.74148   0.34405   0.47743   0.00000  Uiso   1.00
C594   C     0.75852   0.65595   0.52257   0.00000  Uiso   1.00
N595   N     0.73744   0.48547   0.34617   0.00000  Uiso   1.00
N596   N     0.76255   0.51453   0.65383   0.00000  Uiso   1.00
N597   N     0.89222   0.58887   0.57184   0.00000  Uiso   1.00
O598   O     0.85886   0.61125   0.55191   0.00000  Uiso   1.00
O599   O     0.90608   0.60186   0.62985   0.00000  Uiso   1.00
N600   N     0.60778   0.41113   0.42816   0.00000  Uiso   1.00
O601   O     0.64114   0.38875   0.44809   0.00000  Uiso   1.00
O602   O     0.59392   0.39814   0.37015   0.00000  Uiso   1.00
N603   N     0.52749   0.35383   0.43397   0.00000  Uiso   1.00
O604   O     0.55528   0.34069   0.47373   0.00000  Uiso   1.00
O605   O     0.50679   0.65022   0.38990   0.00000  Uiso   1.00
N606   N     0.97251   0.64617   0.56603   0.00000  Uiso   1.00
O607   O     0.99321   0.34978   0.61011   0.00000  Uiso   1.00
O608   O     0.94472   0.65931   0.52627   0.00000  Uiso   1.00
N609   N     0.71067   0.64771   0.42708   0.00000  Uiso   1.00
O610   O     0.71528   0.65241   0.37155   0.00000  Uiso   1.00
O611   O     0.67477   0.62153   0.43777   0.00000  Uiso   1.00
N612   N     0.78933   0.35229   0.57292   0.00000  Uiso   1.00
O613   O     0.78472   0.34759   0.62845   0.00000  Uiso   1.00
O614   O     0.82523   0.37847   0.56223   0.00000  Uiso   1.00
N615   N     0.69485   0.46954   0.65025   0.00000  Uiso   1.00
O616   O     0.68461   0.42015   0.62378   0.00000  Uiso   1.00
O617   O     0.66267   0.50002   0.66275   0.00000  Uiso   1.00
N618   N     0.80515   0.53046   0.34975   0.00000  Uiso   1.00
O619   O     0.81539   0.57985   0.37622   0.00000  Uiso   1.00
O620   O     0.83733   0.49999   0.33725   0.00000  Uiso   1.00
O621   O     0.25325   0.76204   0.53992   0.00000  Uiso   1.00
O622   O     0.24674   0.90462   0.46008   0.00000  Uiso   1.00
O623   O     0.24480   0.75226   0.43612   0.00000  Uiso   1.00
O624   O     0.25520   0.91441   0.56388   0.00000  Uiso   1.00
C625   C     0.24813   0.73334   0.48448   0.00000  Uiso   1.00
C626   C     0.25187   0.93333   0.51552   0.00000  Uiso   1.00
O627   O     0.18935   0.83821   0.55191   0.00000  Uiso   1.00
O628   O     0.31064   0.82845   0.44809   0.00000  Uiso   1.00
O629   O     0.18090   0.82843   0.44810   0.00000  Uiso   1.00
O630   O     0.31910   0.83824   0.55190   0.00000  Uiso   1.00
C631   C     0.16458   0.83245   0.50067   0.00000  Uiso   1.00
C632   C     0.33542   0.83422   0.49933   0.00000  Uiso   1.00
Cu633  Cu    0.25500   0.83913   0.56146   0.00000  Uiso   1.00
Cu634  Cu    0.24499   0.82754   0.43854   0.00000  Uiso   1.00
C635   C     0.41152   0.88084   0.53104   0.00000  Uiso   1.00
C636   C     0.08848   0.78582   0.46896   0.00000  Uiso   1.00
C637   C     0.38371   0.83649   0.49768   0.00000  Uiso   1.00
C638   C     0.11629   0.83018   0.50232   0.00000  Uiso   1.00
C639   C     0.40182   0.79223   0.46518   0.00000  Uiso   1.00
C640   C     0.09818   0.87444   0.53482   0.00000  Uiso   1.00
C641   C     0.44804   0.79008   0.46792   0.00000  Uiso   1.00
C642   C     0.05196   0.87659   0.53208   0.00000  Uiso   1.00
C643   C     0.47664   0.83467   0.49896   0.00000  Uiso   1.00
C644   C     0.02336   0.83200   0.50104   0.00000  Uiso   1.00
C645   C     0.45850   0.88183   0.52769   0.00000  Uiso   1.00
C646   C     0.04150   0.78483   0.47231   0.00000  Uiso   1.00
C647   C     0.46569   0.74292   0.44254   0.00000  Uiso   1.00
C648   C     0.03431   0.92375   0.55746   0.00000  Uiso   1.00
C649   C     0.01193   0.73885   0.44739   0.00000  Uiso   1.00
C650   C     0.48807   0.92782   0.55261   0.00000  Uiso   1.00
H651   H     0.37965   0.75809   0.44104   0.00000  Uiso   1.00
H652   H     0.12035   0.90857   0.55896   0.00000  Uiso   1.00
H653   H     0.44315   0.70809   0.42227   0.00000  Uiso   1.00
H654   H     0.05685   0.95857   0.57773   0.00000  Uiso   1.00
C655   C     0.24148   0.67739   0.47743   0.00000  Uiso   1.00
C656   C     0.25852   0.98928   0.52257   0.00000  Uiso   1.00
N657   N     0.23744   0.81881   0.34617   0.00000  Uiso   1.00
N658   N     0.26255   0.84786   0.65383   0.00000  Uiso   1.00
N659   N     0.39222   0.92220   0.57184   0.00000  Uiso   1.00
O660   O     0.35886   0.94458   0.55191   0.00000  Uiso   1.00
O661   O     0.40608   0.93519   0.62985   0.00000  Uiso   1.00
N662   N     0.10778   0.74446   0.42816   0.00000  Uiso   1.00
O663   O     0.14114   0.72209   0.44809   0.00000  Uiso   1.00
O664   O     0.09392   0.73147   0.37015   0.00000  Uiso   1.00
N665   N     0.02749   0.68717   0.43397   0.00000  Uiso   1.00
O666   O     0.05528   0.67403   0.47373   0.00000  Uiso   1.00
O667   O     0.00679   0.98355   0.38990   0.00000  Uiso   1.00
N668   N     0.47251   0.97950   0.56603   0.00000  Uiso   1.00
O669   O     0.49321   0.68311   0.61011   0.00000  Uiso   1.00
O670   O     0.44472   0.99264   0.52627   0.00000  Uiso   1.00
N671   N     0.21067   0.98104   0.42708   0.00000  Uiso   1.00
O672   O     0.21528   0.98574   0.37155   0.00000  Uiso   1.00
O673   O     0.17477   0.95486   0.43777   0.00000  Uiso   1.00
N674   N     0.28933   0.68562   0.57292   0.00000  Uiso   1.00
O675   O     0.28472   0.68093   0.62845   0.00000  Uiso   1.00
O676   O     0.32523   0.71180   0.56223   0.00000  Uiso   1.00
N677   N     0.19485   0.80287   0.65025   0.00000  Uiso   1.00
O678   O     0.18461   0.75348   0.62378   0.00000  Uiso   1.00
O679   O     0.16267   0.83335   0.66275   0.00000  Uiso   1.00
N680   N     0.30515   0.86379   0.34975   0.00000  Uiso   1.00
O681   O     0.31539   0.91319   0.37622   0.00000  Uiso   1.00
O682   O     0.33733   0.83332   0.33725   0.00000  Uiso   1.00
O683   O     0.75325   0.76204   0.53992   0.00000  Uiso   1.00
O684   O     0.74674   0.90462   0.46008   0.00000  Uiso   1.00
O685   O     0.74480   0.75226   0.43612   0.00000  Uiso   1.00
O686   O     0.75520   0.91441   0.56388   0.00000  Uiso   1.00
C687   C     0.74813   0.73334   0.48448   0.00000  Uiso   1.00
C688   C     0.75187   0.93333   0.51552   0.00000  Uiso   1.00
O689   O     0.68935   0.83821   0.55191   0.00000  Uiso   1.00
O690   O     0.81064   0.82845   0.44809   0.00000  Uiso   1.00
O691   O     0.68090   0.82843   0.44810   0.00000  Uiso   1.00
O692   O     0.81910   0.83824   0.55190   0.00000  Uiso   1.00
C693   C     0.66458   0.83245   0.50067   0.00000  Uiso   1.00
C694   C     0.83542   0.83422   0.49933   0.00000  Uiso   1.00
Cu695  Cu    0.75500   0.83913   0.56146   0.00000  Uiso   1.00
Cu696  Cu    0.74499   0.82754   0.43854   0.00000  Uiso   1.00
C697   C     0.91152   0.88084   0.53104   0.00000  Uiso   1.00
C698   C     0.58848   0.78582   0.46896   0.00000  Uiso   1.00
C699   C     0.88371   0.83649   0.49768   0.00000  Uiso   1.00
C700   C     0.61629   0.83018   0.50232   0.00000  Uiso   1.00
C701   C     0.90182   0.79223   0.46518   0.00000  Uiso   1.00
C702   C     0.59818   0.87444   0.53482   0.00000  Uiso   1.00
C703   C     0.94804   0.79008   0.46792   0.00000  Uiso   1.00
C704   C     0.55196   0.87659   0.53208   0.00000  Uiso   1.00
C705   C     0.97664   0.83467   0.49896   0.00000  Uiso   1.00
C706   C     0.52336   0.83200   0.50104   0.00000  Uiso   1.00
C707   C     0.95850   0.88183   0.52769   0.00000  Uiso   1.00
C708   C     0.54150   0.78483   0.47231   0.00000  Uiso   1.00
C709   C     0.96569   0.74292   0.44254   0.00000  Uiso   1.00
C710   C     0.53431   0.92375   0.55746   0.00000  Uiso   1.00
C711   C     0.51193   0.73885   0.44739   0.00000  Uiso   1.00
C712   C     0.98807   0.92782   0.55261   0.00000  Uiso   1.00
H713   H     0.87965   0.75809   0.44104   0.00000  Uiso   1.00
H714   H     0.62035   0.90857   0.55896   0.00000  Uiso   1.00
H715   H     0.94315   0.70809   0.42227   0.00000  Uiso   1.00
H716   H     0.55685   0.95857   0.57773   0.00000  Uiso   1.00
C717   C     0.74148   0.67739   0.47743   0.00000  Uiso   1.00
C718   C     0.75852   0.98928   0.52257   0.00000  Uiso   1.00
N719   N     0.73744   0.81881   0.34617   0.00000  Uiso   1.00
N720   N     0.76255   0.84786   0.65383   0.00000  Uiso   1.00
N721   N     0.89222   0.92220   0.57184   0.00000  Uiso   1.00
O722   O     0.85886   0.94458   0.55191   0.00000  Uiso   1.00
O723   O     0.90608   0.93519   0.62985   0.00000  Uiso   1.00
N724   N     0.60778   0.74446   0.42816   0.00000  Uiso   1.00
O725   O     0.64114   0.72209   0.44809   0.00000  Uiso   1.00
O726   O     0.59392   0.73147   0.37015   0.00000  Uiso   1.00
N727   N     0.52749   0.68717   0.43397   0.00000  Uiso   1.00
O728   O     0.55528   0.67403   0.47373   0.00000  Uiso   1.00
O729   O     0.50679   0.98355   0.38990   0.00000  Uiso   1.00
N730   N     0.97251   0.97950   0.56603   0.00000  Uiso   1.00
O731   O     0.99321   0.68311   0.61011   0.00000  Uiso   1.00
O732   O     0.94472   0.99264   0.52627   0.00000  Uiso   1.00
N733   N     0.71067   0.98104   0.42708   0.00000  Uiso   1.00
O734   O     0.71528   0.98574   0.37155   0.00000  Uiso   1.00
O735   O     0.67477   0.95486   0.43777   0.00000  Uiso   1.00
N736   N     0.78933   0.68562   0.57292   0.00000  Uiso   1.00
O737   O     0.78472   0.68093   0.62845   0.00000  Uiso   1.00
O738   O     0.82523   0.71180   0.56223   0.00000  Uiso   1.00
N739   N     0.69485   0.80287   0.65025   0.00000  Uiso   1.00
O740   O     0.68461   0.75348   0.62378   0.00000  Uiso   1.00
O741   O     0.66267   0.83335   0.66275   0.00000  Uiso   1.00
N742   N     0.80515   0.86379   0.34975   0.00000  Uiso   1.00
O743   O     0.81539   0.91319   0.37622   0.00000  Uiso   1.00
O744   O     0.83733   0.83332   0.33725   0.00000  Uiso   1.00
O745   O     0.25325   0.09538   0.87326   0.00000  Uiso   1.00
O746   O     0.24674   0.23796   0.79341   0.00000  Uiso   1.00
O747   O     0.24480   0.08559   0.76945   0.00000  Uiso   1.00
O748   O     0.25520   0.24774   0.89721   0.00000  Uiso   1.00
C749   C     0.24813   0.06667   0.81781   0.00000  Uiso   1.00
C750   C     0.25187   0.26666   0.84886   0.00000  Uiso   1.00
O751   O     0.18935   0.17155   0.88524   0.00000  Uiso   1.00
O752   O     0.31064   0.16179   0.78143   0.00000  Uiso   1.00
O753   O     0.18090   0.16176   0.78143   0.00000  Uiso   1.00
O754   O     0.31910   0.17157   0.88523   0.00000  Uiso   1.00
C755   C     0.16458   0.16579   0.83400   0.00000  Uiso   1.00
C756   C     0.33542   0.16755   0.83266   0.00000  Uiso   1.00
Cu757  Cu    0.25500   0.17246   0.89479   0.00000  Uiso   1.00
Cu758  Cu    0.24499   0.16087   0.77187   0.00000  Uiso   1.00
C759   C     0.41152   0.21418   0.86437   0.00000  Uiso   1.00
C760   C     0.08848   0.11916   0.80229   0.00000  Uiso   1.00
C761   C     0.38371   0.16982   0.83101   0.00000  Uiso   1.00
C762   C     0.11629   0.16351   0.83565   0.00000  Uiso   1.00
C763   C     0.40182   0.12556   0.79852   0.00000  Uiso   1.00
C764   C     0.09818   0.20777   0.86815   0.00000  Uiso   1.00
C765   C     0.44804   0.12341   0.80125   0.00000  Uiso   1.00
C766   C     0.05196   0.20992   0.86542   0.00000  Uiso   1.00
C767   C     0.47664   0.16800   0.83230   0.00000  Uiso   1.00
C768   C     0.02336   0.16533   0.83437   0.00000  Uiso   1.00
C769   C     0.45850   0.21517   0.86102   0.00000  Uiso   1.00
C770   C     0.04150   0.11817   0.80564   0.00000  Uiso   1.00
C771   C     0.46569   0.07625   0.77587   0.00000  Uiso   1.00
C772   C     0.03431   0.25708   0.89080   0.00000  Uiso   1.00
C773   C     0.01193   0.07218   0.78073   0.00000  Uiso   1.00
C774   C     0.48807   0.26115   0.88594   0.00000  Uiso   1.00
H775   H     0.37965   0.09143   0.77438   0.00000  Uiso   1.00
H776   H     0.12035   0.24191   0.89229   0.00000  Uiso   1.00
H777   H     0.44315   0.04143   0.75561   0.00000  Uiso   1.00
H778   H     0.05685   0.29191   0.91106   0.00000  Uiso   1.00
C779   C     0.24148   0.01072   0.81077   0.00000  Uiso   1.00
C780   C     0.25852   0.32261   0.85590   0.00000  Uiso   1.00
N781   N     0.23744   0.15214   0.67951   0.00000  Uiso   1.00
N782   N     0.26255   0.18119   0.98716   0.00000  Uiso   1.00
N783   N     0.39222   0.25554   0.90517   0.00000  Uiso   1.00
O784   O     0.35886   0.27791   0.88524   0.00000  Uiso   1.00
O785   O     0.40608   0.26853   0.96318   0.00000  Uiso   1.00
N786   N     0.10778   0.07780   0.76150   0.00000  Uiso   1.00
O787   O     0.14114   0.05542   0.78142   0.00000  Uiso   1.00
O788   O     0.09392   0.06481   0.70348   0.00000  Uiso   1.00
N789   N     0.02749   0.02050   0.76730   0.00000  Uiso   1.00
O790   O     0.05528   0.00736   0.80706   0.00000  Uiso   1.00
O791   O     0.00679   0.31689   0.72323   0.00000  Uiso   1.00
N792   N     0.47251   0.31284   0.89937   0.00000  Uiso   1.00
O793   O     0.49321   0.01645   0.94344   0.00000  Uiso   1.00
O794   O     0.44472   0.32597   0.85960   0.00000  Uiso   1.00
N795   N     0.21067   0.31438   0.76041   0.00000  Uiso   1.00
O796   O     0.21528   0.31907   0.70488   0.00000  Uiso   1.00
O797   O     0.17477   0.28820   0.77111   0.00000  Uiso   1.00
N798   N     0.28933   0.01896   0.90625   0.00000  Uiso   1.00
O799   O     0.28472   0.01426   0.96179   0.00000  Uiso   1.00
O800   O     0.32523   0.04514   0.89556   0.00000  Uiso   1.00
N801   N     0.19485   0.13621   0.98359   0.00000  Uiso   1.00
O802   O     0.18461   0.08682   0.95711   0.00000  Uiso   1.00
O803   O     0.16267   0.16668   0.99608   0.00000  Uiso   1.00
N804   N     0.30515   0.19713   0.68308   0.00000  Uiso   1.00
O805   O     0.31539   0.24652   0.70956   0.00000  Uiso   1.00
O806   O     0.33733   0.16665   0.67059   0.00000  Uiso   1.00
O807   O     0.75325   0.09538   0.87326   0.00000  Uiso   1.00
O808   O     0.74674   0.23796   0.79341   0.00000  Uiso   1.00
O809   O     0.74480   0.08559   0.76945   0.00000  Uiso   1.00
O810   O     0.75520   0.24774   0.89721   0.00000  Uiso   1.00
C811   C     0.74813   0.06667   0.81781   0.00000  Uiso   1.00
C812   C     0.75187   0.26666   0.84886   0.00000  Uiso   1.00
O813   O     0.68935   0.17155   0.88524   0.00000  Uiso   1.00
O814   O     0.81064   0.16179   0.78143   0.00000  Uiso   1.00
O815   O     0.68090   0.16176   0.78143   0.00000  Uiso   1.00
O816   O     0.81910   0.17157   0.88523   0.00000  Uiso   1.00
C817   C     0.66458   0.16579   0.83400   0.00000  Uiso   1.00
C818   C     0.83542   0.16755   0.83266   0.00000  Uiso   1.00
Cu819  Cu    0.75500   0.17246   0.89479   0.00000  Uiso   1.00
Cu820  Cu    0.74499   0.16087   0.77187   0.00000  Uiso   1.00
C821   C     0.91152   0.21418   0.86437   0.00000  Uiso   1.00
C822   C     0.58848   0.11916   0.80229   0.00000  Uiso   1.00
C823   C     0.88371   0.16982   0.83101   0.00000  Uiso   1.00
C824   C     0.61629   0.16351   0.83565   0.00000  Uiso   1.00
C825   C     0.90182   0.12556   0.79852   0.00000  Uiso   1.00
C826   C     0.59818   0.20777   0.86815   0.00000  Uiso   1.00
C827   C     0.94804   0.12341   0.80125   0.00000  Uiso   1.00
C828   C     0.55196   0.20992   0.86542   0.00000  Uiso   1.00
C829   C     0.97664   0.16800   0.83230   0.00000  Uiso   1.00
C830   C     0.52336   0.16533   0.83437   0.00000  Uiso   1.00
C831   C     0.95850   0.21517   0.86102   0.00000  Uiso   1.00
C832   C     0.54150   0.11817   0.80564   0.00000  Uiso   1.00
C833   C     0.96569   0.07625   0.77587   0.00000  Uiso   1.00
C834   C     0.53431   0.25708   0.89080   0.00000  Uiso   1.00
C835   C     0.51193   0.07218   0.78073   0.00000  Uiso   1.00
C836   C     0.98807   0.26115   0.88594   0.00000  Uiso   1.00
H837   H     0.87965   0.09143   0.77438   0.00000  Uiso   1.00
H838   H     0.62035   0.24191   0.89229   0.00000  Uiso   1.00
H839   H     0.94315   0.04143   0.75561   0.00000  Uiso   1.00
H840   H     0.55685   0.29191   0.91106   0.00000  Uiso   1.00
C841   C     0.74148   0.01072   0.81077   0.00000  Uiso   1.00
C842   C     0.75852   0.32261   0.85590   0.00000  Uiso   1.00
N843   N     0.73744   0.15214   0.67951   0.00000  Uiso   1.00
N844   N     0.76255   0.18119   0.98716   0.00000  Uiso   1.00
N845   N     0.89222   0.25554   0.90517   0.00000  Uiso   1.00
O846   O     0.85886   0.27791   0.88524   0.00000  Uiso   1.00
O847   O     0.90608   0.26853   0.96318   0.00000  Uiso   1.00
N848   N     0.60778   0.07780   0.76150   0.00000  Uiso   1.00
O849   O     0.64114   0.05542   0.78142   0.00000  Uiso   1.00
O850   O     0.59392   0.06481   0.70348   0.00000  Uiso   1.00
N851   N     0.52749   0.02050   0.76730   0.00000  Uiso   1.00
O852   O     0.55528   0.00736   0.80706   0.00000  Uiso   1.00
O853   O     0.50679   0.31689   0.72323   0.00000  Uiso   1.00
N854   N     0.97251   0.31284   0.89937   0.00000  Uiso   1.00
O855   O     0.99321   0.01645   0.94344   0.00000  Uiso   1.00
O856   O     0.94472   0.32597   0.85960   0.00000  Uiso   1.00
N857   N     0.71067   0.31438   0.76041   0.00000  Uiso   1.00
O858   O     0.71528   0.31907   0.70488   0.00000  Uiso   1.00
O859   O     0.67477   0.28820   0.77111   0.00000  Uiso   1.00
N860   N     0.78933   0.01896   0.90625   0.00000  Uiso   1.00
O861   O     0.78472   0.01426   0.96179   0.00000  Uiso   1.00
O862   O     0.82523   0.04514   0.89556   0.00000  Uiso   1.00
N863   N     0.69485   0.13621   0.98359   0.00000  Uiso   1.00
O864   O     0.68461   0.08682   0.95711   0.00000  Uiso   1.00
O865   O     0.66267   0.16668   0.99608   0.00000  Uiso   1.00
N866   N     0.80515   0.19713   0.68308   0.00000  Uiso   1.00
O867   O     0.81539   0.24652   0.70956   0.00000  Uiso   1.00
O868   O     0.83733   0.16665   0.67059   0.00000  Uiso   1.00
O869   O     0.25325   0.42871   0.87326   0.00000  Uiso   1.00
O870   O     0.24674   0.57129   0.79341   0.00000  Uiso   1.00
O871   O     0.24480   0.41892   0.76945   0.00000  Uiso   1.00
O872   O     0.25520   0.58108   0.89721   0.00000  Uiso   1.00
C873   C     0.24813   0.40001   0.81781   0.00000  Uiso   1.00
C874   C     0.25187   0.59999   0.84886   0.00000  Uiso   1.00
O875   O     0.18935   0.50488   0.88524   0.00000  Uiso   1.00
O876   O     0.31064   0.49512   0.78143   0.00000  Uiso   1.00
O877   O     0.18090   0.49510   0.78143   0.00000  Uiso   1.00
O878   O     0.31910   0.50490   0.88523   0.00000  Uiso   1.00
C879   C     0.16458   0.49912   0.83400   0.00000  Uiso   1.00
C880   C     0.33542   0.50088   0.83266   0.00000  Uiso   1.00
Cu881  Cu    0.25500   0.50579   0.89479   0.00000  Uiso   1.00
Cu882  Cu    0.24499   0.49421   0.77187   0.00000  Uiso   1.00
C883   C     0.41152   0.54751   0.86437   0.00000  Uiso   1.00
C884   C     0.08848   0.45249   0.80229   0.00000  Uiso   1.00
C885   C     0.38371   0.50315   0.83101   0.00000  Uiso   1.00
C886   C     0.11629   0.49685   0.83565   0.00000  Uiso   1.00
C887   C     0.40182   0.45889   0.79852   0.00000  Uiso   1.00
C888   C     0.09818   0.54111   0.86815   0.00000  Uiso   1.00
C889   C     0.44804   0.45674   0.80125   0.00000  Uiso   1.00
C890   C     0.05196   0.54326   0.86542   0.00000  Uiso   1.00
C891   C     0.47664   0.50134   0.83230   0.00000  Uiso   1.00
C892   C     0.02336   0.49866   0.83437   0.00000  Uiso   1.00
C893   C     0.45850   0.54850   0.86102   0.00000  Uiso   1.00
C894   C     0.04150   0.45150   0.80564   0.00000  Uiso   1.00
C895   C     0.46569   0.40958   0.77587   0.00000  Uiso   1.00
C896   C     0.03431   0.59042   0.89080   0.00000  Uiso   1.00
C897   C     0.01193   0.40552   0.78073   0.00000  Uiso   1.00
C898   C     0.48807   0.59448   0.88594   0.00000  Uiso   1.00
H899   H     0.37965   0.42476   0.77438   0.00000  Uiso   1.00
H900   H     0.12035   0.57524   0.89229   0.00000  Uiso   1.00
H901   H     0.44315   0.37476   0.75561   0.00000  Uiso   1.00
H902   H     0.05685   0.62524   0.91106   0.00000  Uiso   1.00
C903   C     0.24148   0.34405   0.81077   0.00000  Uiso   1.00
C904   C     0.25852   0.65595   0.85590   0.00000  Uiso   1.00
N905   N     0.23744   0.48547   0.67951   0.00000  Uiso   1.00
N906   N     0.26255   0.51453   0.98716   0.00000  Uiso   1.00
N907   N     0.39222   0.58887   0.90517   0.00000  Uiso   1.00
O908   O     0.35886   0.61125   0.88524   0.00000  Uiso   1.00
O909   O     0.40608   0.60186   0.96318   0.00000  Uiso   1.00
N910   N     0.10778   0.41113   0.76150   0.00000  Uiso   1.00
O911   O     0.14114   0.38875   0.78142   0.00000  Uiso   1.00
O912   O     0.09392   0.39814   0.70348   0.00000  Uiso   1.00
N913   N     0.02749   0.35383   0.76730   0.00000  Uiso   1.00
O914   O     0.05528   0.34069   0.80706   0.00000  Uiso   1.00
O915   O     0.00679   0.65022   0.72323   0.00000  Uiso   1.00
N916   N     0.47251   0.64617   0.89937   0.00000  Uiso   1.00
O917   O     0.49321   0.34978   0.94344   0.00000  Uiso   1.00
O918   O     0.44472   0.65931   0.85960   0.00000  Uiso   1.00
N919   N     0.21067   0.64771   0.76041   0.00000  Uiso   1.00
O920   O     0.21528   0.65241   0.70488   0.00000  Uiso   1.00
O921   O     0.17477   0.62153   0.77111   0.00000  Uiso   1.00
N922   N     0.28933   0.35229   0.90625   0.00000  Uiso   1.00
O923   O     0.28472   0.34759   0.96179   0.00000  Uiso   1.00
O924   O     0.32523   0.37847   0.89556   0.00000  Uiso   1.00
N925   N     0.19485   0.46954   0.98359   0.00000  Uiso   1.00
O926   O     0.18461   0.42015   0.95711   0.00000  Uiso   1.00
O927   O     0.16267   0.50002   0.99608   0.00000  Uiso   1.00
N928   N     0.30515   0.53046   0.68308   0.00000  Uiso   1.00
O929   O     0.31539   0.57985   0.70956   0.00000  Uiso   1.00
O930   O     0.33733   0.49999   0.67059   0.00000  Uiso   1.00
O931   O     0.75325   0.42871   0.87326   0.00000  Uiso   1.00
O932   O     0.74674   0.57129   0.79341   0.00000  Uiso   1.00
O933   O     0.74480   0.41892   0.76945   0.00000  Uiso   1.00
O934   O     0.75520   0.58108   0.89721   0.00000  Uiso   1.00
C935   C     0.74813   0.40001   0.81781   0.00000  Uiso   1.00
C936   C     0.75187   0.59999   0.84886   0.00000  Uiso   1.00
O937   O     0.68935   0.50488   0.88524   0.00000  Uiso   1.00
O938   O     0.81064   0.49512   0.78143   0.00000  Uiso   1.00
O939   O     0.68090   0.49510   0.78143   0.00000  Uiso   1.00
O940   O     0.81910   0.50490   0.88523   0.00000  Uiso   1.00
C941   C     0.66458   0.49912   0.83400   0.00000  Uiso   1.00
C942   C     0.83542   0.50088   0.83266   0.00000  Uiso   1.00
Cu943  Cu    0.75500   0.50579   0.89479   0.00000  Uiso   1.00
Cu944  Cu    0.74499   0.49421   0.77187   0.00000  Uiso   1.00
C945   C     0.91152   0.54751   0.86437   0.00000  Uiso   1.00
C946   C     0.58848   0.45249   0.80229   0.00000  Uiso   1.00
C947   C     0.88371   0.50315   0.83101   0.00000  Uiso   1.00
C948   C     0.61629   0.49685   0.83565   0.00000  Uiso   1.00
C949   C     0.90182   0.45889   0.79852   0.00000  Uiso   1.00
C950   C     0.59818   0.54111   0.86815   0.00000  Uiso   1.00
C951   C     0.94804   0.45674   0.80125   0.00000  Uiso   1.00
C952   C     0.55196   0.54326   0.86542   0.00000  Uiso   1.00
C953   C     0.97664   0.50134   0.83230   0.00000  Uiso   1.00
C954   C     0.52336   0.49866   0.83437   0.00000  Uiso   1.00
C955   C     0.95850   0.54850   0.86102   0.00000  Uiso   1.00
C956   C     0.54150   0.45150   0.80564   0.00000  Uiso   1.00
C957   C     0.96569   0.40958   0.77587   0.00000  Uiso   1.00
C958   C     0.53431   0.59042   0.89080   0.00000  Uiso   1.00
C959   C     0.51193   0.40552   0.78073   0.00000  Uiso   1.00
C960   C     0.98807   0.59448   0.88594   0.00000  Uiso   1.00
H961   H     0.87965   0.42476   0.77438   0.00000  Uiso   1.00
H962   H     0.62035   0.57524   0.89229   0.00000  Uiso   1.00
H963   H     0.94315   0.37476   0.75561   0.00000  Uiso   1.00
H964   H     0.55685   0.62524   0.91106   0.00000  Uiso   1.00
C965   C     0.74148   0.34405   0.81077   0.00000  Uiso   1.00
C966   C     0.75852   0.65595   0.85590   0.00000  Uiso   1.00
N967   N     0.73744   0.48547   0.67951   0.00000  Uiso   1.00
N968   N     0.76255   0.51453   0.98716   0.00000  Uiso   1.00
N969   N     0.89222   0.58887   0.90517   0.00000  Uiso   1.00
O970   O     0.85886   0.61125   0.88524   0.00000  Uiso   1.00
O971   O     0.90608   0.60186   0.96318   0.00000  Uiso   1.00
N972   N     0.60778   0.41113   0.76150   0.00000  Uiso   1.00
O973   O     0.64114   0.38875   0.78142   0.00000  Uiso   1.00
O974   O     0.59392   0.39814   0.70348   0.00000  Uiso   1.00
N975   N     0.52749   0.35383   0.76730   0.00000  Uiso   1.00
O976   O     0.55528   0.34069   0.80706   0.00000  Uiso   1.00
O977   O     0.50679   0.65022   0.72323   0.00000  Uiso   1.00
N978   N     0.97251   0.64617   0.89937   0.00000  Uiso   1.00
O979   O     0.99321   0.34978   0.94344   0.00000  Uiso   1.00
O980   O     0.94472   0.65931   0.85960   0.00000  Uiso   1.00
N981   N     0.71067   0.64771   0.76041   0.00000  Uiso   1.00
O982   O     0.71528   0.65241   0.70488   0.00000  Uiso   1.00
O983   O     0.67477   0.62153   0.77111   0.00000  Uiso   1.00
N984   N     0.78933   0.35229   0.90625   0.00000  Uiso   1.00
O985   O     0.78472   0.34759   0.96179   0.00000  Uiso   1.00
O986   O     0.82523   0.37847   0.89556   0.00000  Uiso   1.00
N987   N     0.69485   0.46954   0.98359   0.00000  Uiso   1.00
O988   O     0.68461   0.42015   0.95711   0.00000  Uiso   1.00
O989   O     0.66267   0.50002   0.99608   0.00000  Uiso   1.00
N990   N     0.80515   0.53046   0.68308   0.00000  Uiso   1.00
O991   O     0.81539   0.57985   0.70956   0.00000  Uiso   1.00
O992   O     0.83733   0.49999   0.67059   0.00000  Uiso   1.00
O993   O     0.25325   0.76204   0.87326   0.00000  Uiso   1.00
O994   O     0.24674   0.90462   0.79341   0.00000  Uiso   1.00
O995   O     0.24480   0.75226   0.76945   0.00000  Uiso   1.00
O996   O     0.25520   0.91441   0.89721   0.00000  Uiso   1.00
C997   C     0.24813   0.73334   0.81781   0.00000  Uiso   1.00
C998   C     0.25187   0.93333   0.84886   0.00000  Uiso   1.00
O999   O     0.18935   0.83821   0.88524   0.00000  Uiso   1.00
O1000  O     0.31064   0.82845   0.78143   0.00000  Uiso   1.00
O1001  O     0.18090   0.82843   0.78143   0.00000  Uiso   1.00
O1002  O     0.31910   0.83824   0.88523   0.00000  Uiso   1.00
C1003  C     0.16458   0.83245   0.83400   0.00000  Uiso   1.00
C1004  C     0.33542   0.83422   0.83266   0.00000  Uiso   1.00
Cu1005 Cu    0.25500   0.83913   0.89479   0.00000  Uiso   1.00
Cu1006 Cu    0.24499   0.82754   0.77187   0.00000  Uiso   1.00
C1007  C     0.41152   0.88084   0.86437   0.00000  Uiso   1.00
C1008  C     0.08848   0.78582   0.80229   0.00000  Uiso   1.00
C1009  C     0.38371   0.83649   0.83101   0.00000  Uiso   1.00
C1010  C     0.11629   0.83018   0.83565   0.00000  Uiso   1.00
C1011  C     0.40182   0.79223   0.79852   0.00000  Uiso   1.00
C1012  C     0.09818   0.87444   0.86815   0.00000  Uiso   1.00
C1013  C     0.44804   0.79008   0.80125   0.00000  Uiso   1.00
C1014  C     0.05196   0.87659   0.86542   0.00000  Uiso   1.00
C1015  C     0.47664   0.83467   0.83230   0.00000  Uiso   1.00
C1016  C     0.02336   0.83200   0.83437   0.00000  Uiso   1.00
C1017  C     0.45850   0.88183   0.86102   0.00000  Uiso   1.00
C1018  C     0.04150   0.78483   0.80564   0.00000  Uiso   1.00
C1019  C     0.46569   0.74292   0.77587   0.00000  Uiso   1.00
C1020  C     0.03431   0.92375   0.89080   0.00000  Uiso   1.00
C1021  C     0.01193   0.73885   0.78073   0.00000  Uiso   1.00
C1022  C     0.48807   0.92782   0.88594   0.00000  Uiso   1.00
H1023  H     0.37965   0.75809   0.77438   0.00000  Uiso   1.00
H1024  H     0.12035   0.90857   0.89229   0.00000  Uiso   1.00
H1025  H     0.44315   0.70809   0.75561   0.00000  Uiso   1.00
H1026  H     0.05685   0.95857   0.91106   0.00000  Uiso   1.00
C1027  C     0.24148   0.67739   0.81077   0.00000  Uiso   1.00
C1028  C     0.25852   0.98928   0.85590   0.00000  Uiso   1.00
N1029  N     0.23744   0.81881   0.67951   0.00000  Uiso   1.00
N1030  N     0.26255   0.84786   0.98716   0.00000  Uiso   1.00
N1031  N     0.39222   0.92220   0.90517   0.00000  Uiso   1.00
O1032  O     0.35886   0.94458   0.88524   0.00000  Uiso   1.00
O1033  O     0.40608   0.93519   0.96318   0.00000  Uiso   1.00
N1034  N     0.10778   0.74446   0.76150   0.00000  Uiso   1.00
O1035  O     0.14114   0.72209   0.78142   0.00000  Uiso   1.00
O1036  O     0.09392   0.73147   0.70348   0.00000  Uiso   1.00
N1037  N     0.02749   0.68717   0.76730   0.00000  Uiso   1.00
O1038  O     0.05528   0.67403   0.80706   0.00000  Uiso   1.00
O1039  O     0.00679   0.98355   0.72323   0.00000  Uiso   1.00
N1040  N     0.47251   0.97950   0.89937   0.00000  Uiso   1.00
O1041  O     0.49321   0.68311   0.94344   0.00000  Uiso   1.00
O1042  O     0.44472   0.99264   0.85960   0.00000  Uiso   1.00
N1043  N     0.21067   0.98104   0.76041   0.00000  Uiso   1.00
O1044  O     0.21528   0.98574   0.70488   0.00000  Uiso   1.00
O1045  O     0.17477   0.95486   0.77111   0.00000  Uiso   1.00
N1046  N     0.28933   0.68562   0.90625   0.00000  Uiso   1.00
O1047  O     0.28472   0.68093   0.96179   0.00000  Uiso   1.00
O1048  O     0.32523   0.71180   0.89556   0.00000  Uiso   1.00
N1049  N     0.19485   0.80287   0.98359   0.00000  Uiso   1.00
O1050  O     0.18461   0.75348   0.95711   0.00000  Uiso   1.00
O1051  O     0.16267   0.83335   0.99608   0.00000  Uiso   1.00
N1052  N     0.30515   0.86379   0.68308   0.00000  Uiso   1.00
O1053  O     0.31539   0.91319   0.70956   0.00000  Uiso   1.00
O1054  O     0.33733   0.83332   0.67059   0.00000  Uiso   1.00
O1055  O     0.75325   0.76204   0.87326   0.00000  Uiso   1.00
O1056  O     0.74674   0.90462   0.79341   0.00000  Uiso   1.00
O1057  O     0.74480   0.75226   0.76945   0.00000  Uiso   1.00
O1058  O     0.75520   0.91441   0.89721   0.00000  Uiso   1.00
C1059  C     0.74813   0.73334   0.81781   0.00000  Uiso   1.00
C1060  C     0.75187   0.93333   0.84886   0.00000  Uiso   1.00
O1061  O     0.68935   0.83821   0.88524   0.00000  Uiso   1.00
O1062  O     0.81064   0.82845   0.78143   0.00000  Uiso   1.00
O1063  O     0.68090   0.82843   0.78143   0.00000  Uiso   1.00
O1064  O     0.81910   0.83824   0.88523   0.00000  Uiso   1.00
C1065  C     0.66458   0.83245   0.83400   0.00000  Uiso   1.00
C1066  C     0.83542   0.83422   0.83266   0.00000  Uiso   1.00
Cu1067 Cu    0.75500   0.83913   0.89479   0.00000  Uiso   1.00
Cu1068 Cu    0.74499   0.82754   0.77187   0.00000  Uiso   1.00
C1069  C     0.91152   0.88084   0.86437   0.00000  Uiso   1.00
C1070  C     0.58848   0.78582   0.80229   0.00000  Uiso   1.00
C1071  C     0.88371   0.83649   0.83101   0.00000  Uiso   1.00
C1072  C     0.61629   0.83018   0.83565   0.00000  Uiso   1.00
C1073  C     0.90182   0.79223   0.79852   0.00000  Uiso   1.00
C1074  C     0.59818   0.87444   0.86815   0.00000  Uiso   1.00
C1075  C     0.94804   0.79008   0.80125   0.00000  Uiso   1.00
C1076  C     0.55196   0.87659   0.86542   0.00000  Uiso   1.00
C1077  C     0.97664   0.83467   0.83230   0.00000  Uiso   1.00
C1078  C     0.52336   0.83200   0.83437   0.00000  Uiso   1.00
C1079  C     0.95850   0.88183   0.86102   0.00000  Uiso   1.00
C1080  C     0.54150   0.78483   0.80564   0.00000  Uiso   1.00
C1081  C     0.96569   0.74292   0.77587   0.00000  Uiso   1.00
C1082  C     0.53431   0.92375   0.89080   0.00000  Uiso   1.00
C1083  C     0.51193   0.73885   0.78073   0.00000  Uiso   1.00
C1084  C     0.98807   0.92782   0.88594   0.00000  Uiso   1.00
H1085  H     0.87965   0.75809   0.77438   0.00000  Uiso   1.00
H1086  H     0.62035   0.90857   0.89229   0.00000  Uiso   1.00
H1087  H     0.94315   0.70809   0.75561   0.00000  Uiso   1.00
H1088  H     0.55685   0.95857   0.91106   0.00000  Uiso   1.00
C1089  C     0.74148   0.67739   0.81077   0.00000  Uiso   1.00
C1090  C     0.75852   0.98928   0.85590   0.00000  Uiso   1.00
N1091  N     0.73744   0.81881   0.67951   0.00000  Uiso   1.00
N1092  N     0.76255   0.84786   0.98716   0.00000  Uiso   1.00
N1093  N     0.89222   0.92220   0.90517   0.00000  Uiso   1.00
O1094  O     0.85886   0.94458   0.88524   0.00000  Uiso   1.00
O1095  O     0.90608   0.93519   0.96318   0.00000  Uiso   1.00
N1096  N     0.60778   0.74446   0.76150   0.00000  Uiso   1.00
O1097  O     0.64114   0.72209   0.78142   0.00000  Uiso   1.00
O1098  O     0.59392   0.73147   0.70348   0.00000  Uiso   1.00
N1099  N     0.52749   0.68717   0.76730   0.00000  Uiso   1.00
O1100  O     0.55528   0.67403   0.80706   0.00000  Uiso   1.00
O1101  O     0.50679   0.98355   0.72323   0.00000  Uiso   1.00
N1102  N     0.97251   0.97950   0.89937   0.00000  Uiso   1.00
O1103  O     0.99321   0.68311   0.94344   0.00000  Uiso   1.00
O1104  O     0.94472   0.99264   0.85960   0.00000  Uiso   1.00
N1105  N     0.71067   0.98104   0.76041   0.00000  Uiso   1.00
O1106  O     0.71528   0.98574   0.70488   0.00000  Uiso   1.00
O1107  O     0.67477   0.95486   0.77111   0.00000  Uiso   1.00
N1108  N     0.78933   0.68562   0.90625   0.00000  Uiso   1.00
O1109  O     0.78472   0.68093   0.96179   0.00000  Uiso   1.00
O1110  O     0.82523   0.71180   0.89556   0.00000  Uiso   1.00
N1111  N     0.69485   0.80287   0.98359   0.00000  Uiso   1.00
O1112  O     0.68461   0.75348   0.95711   0.00000  Uiso   1.00
O1113  O     0.66267   0.83335   0.99608   0.00000  Uiso   1.00
N1114  N     0.80515   0.86379   0.68308   0.00000  Uiso   1.00
O1115  O     0.81539   0.91319   0.70956   0.00000  Uiso   1.00
O1116  O     0.83733   0.83332   0.67059   0.00000  Uiso   1.00
loop_
_geom_bond_atom_site_label_1
_geom_bond_atom_site_label_2
_geom_bond_distance
_geom_bond_site_symmetry_2
_ccdc_geom_bond_type
O1     C5      1.293   .     A
O1     Cu13    1.965   .     S
O2     C6      1.293   .     A
O2     Cu14    1.965   .     S
O3     Cu14    1.964   .     S
O3     C5      1.298   .     A
O4     C6      1.298   .     A
O4     Cu13    1.964   .     S
C5     C35     1.438   .     S
C6     C36     1.438   .     S
O7     C11     1.299   .     A
O7     Cu13    1.962   .     S
O8     C12     1.299   .     A
O8     Cu14    1.962   .     S
O9     Cu14    1.949   .     S
O9     C11     1.298   .     A
O10    C12     1.298   .     A
O10    Cu13    1.949   .     S
C11    C18     1.448   .     S
C12    C17     1.448   .     S
Cu13   Cu14    2.707   .     S
Cu13   N38     2.034   .     S
Cu14   N37     2.034   .     S
C15    N39     1.436   .     S
C15    C25     1.414   .     A
C15    C17     1.409   .     A
C16    C18     1.409   .     A
C16    C26     1.414   .     A
C16    N42     1.436   .     S
C17    C19     1.390   .     A
C18    C20     1.390   .     A
C19    H31     1.086   .     S
C19    C21     1.388   .     A
C20    H32     1.086   .     S
C20    C22     1.388   .     A
C21    C27     1.396   .     A
C21    C23     1.410   .     A
C22    C28     1.396   .     A
C22    C24     1.410   .     A
C23    C25     1.422   .     A
C23    C86     1.405   .     S
C24    C26     1.422   .     A
C24    C85     1.405   1_455 S
C25    C30     1.422   .     A
C26    C29     1.422   .     A
C27    H33     1.085   .     S
C27    C91     1.396   .     S
C28    H34     1.085   .     S
C28    C92     1.396   1_455 S
C29    N45     1.439   .     S
C29    C89     1.396   1_455 S
C30    N48     1.439   .     S
C30    C90     1.396   .     S
C35    C284    1.358   1_545 S
C35    N299    1.445   1_545 S
C36    C159    1.358   .     S
C36    N178    1.445   .     S
N37    N782    1.291   1_554 S
N37    N801    1.385   1_554 S
N38    N409    1.291   .     S
N38    N432    1.385   .     S
N39    O41     1.301   .     A
N39    O40     1.299   .     A
N42    O44     1.301   .     A
N42    O43     1.299   .     A
N45    O46     1.301   .     A
N45    O295    1.301   1_545 S
O47    N169    1.301   .     S
N48    O50     1.301   .     A
N48    O173    1.301   .     S
O49    N296    1.301   1_545 S
N51    O53     1.302   .     A
N51    O52     1.301   .     A
N51    C159    1.445   .     S
N54    O55     1.301   .     A
N54    O56     1.302   .     A
N54    C284    1.445   1_545 S
N57    O59     1.301   .     A
N57    O58     1.300   .     A
N57    N409    1.385   .     S
N60    O61     1.300   .     A
N60    O62     1.301   .     A
N60    N782    1.385   1_554 S
O63    C67     1.293   .     A
O63    Cu75    1.965   .     S
O64    C68     1.293   .     A
O64    Cu76    1.965   .     S
O65    Cu76    1.964   .     S
O65    C67     1.298   .     A
O66    C68     1.298   .     A
O66    Cu75    1.964   .     S
C67    C97     1.438   .     S
C68    C98     1.438   .     S
O69    C73     1.299   .     A
O69    Cu75    1.962   .     S
O70    C74     1.299   .     A
O70    Cu76    1.962   .     S
O71    Cu76    1.949   .     S
O71    C73     1.298   .     A
O72    C74     1.298   .     A
O72    Cu75    1.949   .     S
C73    C80     1.448   .     S
C74    C79     1.448   .     S
Cu75   Cu76    2.707   .     S
Cu75   N100    2.034   .     S
Cu76   N99     2.034   .     S
C77    N101    1.436   .     S
C77    C87     1.414   .     A
C77    C79     1.409   .     A
C78    C80     1.409   .     A
C78    C88     1.414   .     A
C78    N104    1.436   .     S
C79    C81     1.390   .     A
C80    C82     1.390   .     A
C81    H93     1.086   .     S
C81    C83     1.388   .     A
C82    H94     1.086   .     S
C82    C84     1.388   .     A
C83    C89     1.396   .     A
C83    C85     1.410   .     A
C84    C90     1.396   .     A
C84    C86     1.410   .     A
C85    C87     1.422   .     A
C85    C24     1.405   1_655 S
C86    C88     1.422   .     A
C87    C92     1.422   .     A
C88    C91     1.422   .     A
C89    H95     1.085   .     S
C89    C29     1.396   1_655 S
C90    H96     1.085   .     S
C91    N107    1.439   .     S
C92    N110    1.439   .     S
C92    C28     1.396   1_655 S
C97    C346    1.358   1_545 S
C97    N361    1.445   1_545 S
C98    C221    1.358   .     S
C98    N240    1.445   .     S
N99    N844    1.291   1_554 S
N99    N863    1.385   1_554 S
N100   N471    1.291   .     S
N100   N494    1.385   .     S
N101   O103    1.301   .     A
N101   O102    1.299   .     A
N104   O106    1.301   .     A
N104   O105    1.299   .     A
N107   O108    1.301   .     A
N107   O357    1.301   1_545 S
O109   N231    1.301   .     S
N110   O112    1.301   .     A
N110   O235    1.301   .     S
O111   N358    1.301   1_545 S
N113   O115    1.302   .     A
N113   O114    1.301   .     A
N113   C221    1.445   .     S
N116   O117    1.301   .     A
N116   O118    1.302   .     A
N116   C346    1.445   1_545 S
N119   O121    1.301   .     A
N119   O120    1.300   .     A
N119   N471    1.385   .     S
N122   O123    1.300   .     A
N122   O124    1.301   .     A
N122   N844    1.385   1_554 S
O125   C129    1.293   .     A
O125   Cu137   1.965   .     S
O126   C130    1.293   .     A
O126   Cu138   1.965   .     S
O127   Cu138   1.964   .     S
O127   C129    1.298   .     A
O128   C130    1.298   .     A
O128   Cu137   1.964   .     S
C129   C159    1.438   .     S
C130   C160    1.438   .     S
O131   C135    1.299   .     A
O131   Cu137   1.962   .     S
O132   C136    1.299   .     A
O132   Cu138   1.962   .     S
O133   Cu138   1.949   .     S
O133   C135    1.298   .     A
O134   C136    1.298   .     A
O134   Cu137   1.949   .     S
C135   C142    1.448   .     S
C136   C141    1.448   .     S
Cu137  Cu138   2.707   .     S
Cu137  N162    2.034   .     S
Cu138  N161    2.034   .     S
C139   N163    1.436   .     S
C139   C149    1.414   .     A
C139   C141    1.409   .     A
C140   C142    1.409   .     A
C140   C150    1.414   .     A
C140   N166    1.436   .     S
C141   C143    1.390   .     A
C142   C144    1.390   .     A
C143   H155    1.086   .     S
C143   C145    1.388   .     A
C144   H156    1.086   .     S
C144   C146    1.388   .     A
C145   C151    1.396   .     A
C145   C147    1.410   .     A
C146   C152    1.396   .     A
C146   C148    1.410   .     A
C147   C149    1.422   .     A
C147   C210    1.405   .     S
C148   C150    1.422   .     A
C148   C209    1.405   1_455 S
C149   C154    1.422   .     A
C150   C153    1.422   .     A
C151   H157    1.085   .     S
C151   C215    1.396   .     S
C152   H158    1.085   .     S
C152   C216    1.396   1_455 S
C153   N169    1.439   .     S
C153   C213    1.396   1_455 S
C154   N172    1.439   .     S
C154   C214    1.396   .     S
C160   C283    1.358   .     S
C160   N302    1.445   .     S
N161   N906    1.291   1_554 S
N161   N925    1.385   1_554 S
N162   N533    1.291   .     S
N162   N556    1.385   .     S
N163   O165    1.301   .     A
N163   O164    1.299   .     A
N166   O168    1.301   .     A
N166   O167    1.299   .     A
N169   O170    1.301   .     A
O171   N293    1.301   .     S
N172   O174    1.301   .     A
N172   O297    1.301   .     S
N175   O177    1.302   .     A
N175   O176    1.301   .     A
N175   C283    1.445   .     S
N178   O179    1.301   .     A
N178   O180    1.302   .     A
N181   O183    1.301   .     A
N181   O182    1.300   .     A
N181   N533    1.385   .     S
N184   O185    1.300   .     A
N184   O186    1.301   .     A
N184   N906    1.385   1_554 S
O187   C191    1.293   .     A
O187   Cu199   1.965   .     S
O188   C192    1.293   .     A
O188   Cu200   1.965   .     S
O189   Cu200   1.964   .     S
O189   C191    1.298   .     A
O190   C192    1.298   .     A
O190   Cu199   1.964   .     S
C191   C221    1.438   .     S
C192   C222    1.438   .     S
O193   C197    1.299   .     A
O193   Cu199   1.962   .     S
O194   C198    1.299   .     A
O194   Cu200   1.962   .     S
O195   Cu200   1.949   .     S
O195   C197    1.298   .     A
O196   C198    1.298   .     A
O196   Cu199   1.949   .     S
C197   C204    1.448   .     S
C198   C203    1.448   .     S
Cu199  Cu200   2.707   .     S
Cu199  N224    2.034   .     S
Cu200  N223    2.034   .     S
C201   N225    1.436   .     S
C201   C211    1.414   .     A
C201   C203    1.409   .     A
C202   C204    1.409   .     A
C202   C212    1.414   .     A
C202   N228    1.436   .     S
C203   C205    1.390   .     A
C204   C206    1.390   .     A
C205   H217    1.086   .     S
C205   C207    1.388   .     A
C206   H218    1.086   .     S
C206   C208    1.388   .     A
C207   C213    1.396   .     A
C207   C209    1.410   .     A
C208   C214    1.396   .     A
C208   C210    1.410   .     A
C209   C211    1.422   .     A
C209   C148    1.405   1_655 S
C210   C212    1.422   .     A
C211   C216    1.422   .     A
C212   C215    1.422   .     A
C213   H219    1.085   .     S
C213   C153    1.396   1_655 S
C214   H220    1.085   .     S
C215   N231    1.439   .     S
C216   N234    1.439   .     S
C216   C152    1.396   1_655 S
C222   C345    1.358   .     S
C222   N364    1.445   .     S
N223   N968    1.291   1_554 S
N223   N987    1.385   1_554 S
N224   N595    1.291   .     S
N224   N618    1.385   .     S
N225   O227    1.301   .     A
N225   O226    1.299   .     A
N228   O230    1.301   .     A
N228   O229    1.299   .     A
N231   O232    1.301   .     A
O233   N355    1.301   .     S
N234   O236    1.301   .     A
N234   O359    1.301   .     S
N237   O239    1.302   .     A
N237   O238    1.301   .     A
N237   C345    1.445   .     S
N240   O241    1.301   .     A
N240   O242    1.302   .     A
N243   O245    1.301   .     A
N243   O244    1.300   .     A
N243   N595    1.385   .     S
N246   O247    1.300   .     A
N246   O248    1.301   .     A
N246   N968    1.385   1_554 S
O249   C253    1.293   .     A
O249   Cu261   1.965   .     S
O250   C254    1.293   .     A
O250   Cu262   1.965   .     S
O251   Cu262   1.964   .     S
O251   C253    1.298   .     A
O252   C254    1.298   .     A
O252   Cu261   1.964   .     S
C253   C283    1.438   .     S
C254   C284    1.438   .     S
O255   C259    1.299   .     A
O255   Cu261   1.962   .     S
O256   C260    1.299   .     A
O256   Cu262   1.962   .     S
O257   Cu262   1.949   .     S
O257   C259    1.298   .     A
O258   C260    1.298   .     A
O258   Cu261   1.949   .     S
C259   C266    1.448   .     S
C260   C265    1.448   .     S
Cu261  Cu262   2.707   .     S
Cu261  N286    2.034   .     S
Cu262  N285    2.034   .     S
C263   N287    1.436   .     S
C263   C273    1.414   .     A
C263   C265    1.409   .     A
C264   C266    1.409   .     A
C264   C274    1.414   .     A
C264   N290    1.436   .     S
C265   C267    1.390   .     A
C266   C268    1.390   .     A
C267   H279    1.086   .     S
C267   C269    1.388   .     A
C268   H280    1.086   .     S
C268   C270    1.388   .     A
C269   C275    1.396   .     A
C269   C271    1.410   .     A
C270   C276    1.396   .     A
C270   C272    1.410   .     A
C271   C273    1.422   .     A
C271   C334    1.405   .     S
C272   C274    1.422   .     A
C272   C333    1.405   1_455 S
C273   C278    1.422   .     A
C274   C277    1.422   .     A
C275   H281    1.085   .     S
C275   C339    1.396   .     S
C276   H282    1.085   .     S
C276   C340    1.396   1_455 S
C277   N293    1.439   .     S
C277   C337    1.396   1_455 S
C278   N296    1.439   .     S
C278   C338    1.396   .     S
C284   C35     1.358   1_565 S
C284   N54     1.445   1_565 S
N285   N1030   1.291   1_554 S
N285   N1049   1.385   1_554 S
N286   N657    1.291   .     S
N286   N680    1.385   .     S
N287   O289    1.301   .     A
N287   O288    1.299   .     A
N290   O292    1.301   .     A
N290   O291    1.299   .     A
N293   O294    1.301   .     A
O295   N45     1.301   1_565 S
N296   O298    1.301   .     A
N296   O49     1.301   1_565 S
N299   O301    1.302   .     A
N299   O300    1.301   .     A
N299   C35     1.445   1_565 S
N302   O303    1.301   .     A
N302   O304    1.302   .     A
N305   O307    1.301   .     A
N305   O306    1.300   .     A
N305   N657    1.385   .     S
N308   O309    1.300   .     A
N308   O310    1.301   .     A
N308   N1030   1.385   1_554 S
O311   C315    1.293   .     A
O311   Cu323   1.965   .     S
O312   C316    1.293   .     A
O312   Cu324   1.965   .     S
O313   Cu324   1.964   .     S
O313   C315    1.298   .     A
O314   C316    1.298   .     A
O314   Cu323   1.964   .     S
C315   C345    1.438   .     S
C316   C346    1.438   .     S
O317   C321    1.299   .     A
O317   Cu323   1.962   .     S
O318   C322    1.299   .     A
O318   Cu324   1.962   .     S
O319   Cu324   1.949   .     S
O319   C321    1.298   .     A
O320   C322    1.298   .     A
O320   Cu323   1.949   .     S
C321   C328    1.448   .     S
C322   C327    1.448   .     S
Cu323  Cu324   2.707   .     S
Cu323  N348    2.034   .     S
Cu324  N347    2.034   .     S
C325   N349    1.436   .     S
C325   C335    1.414   .     A
C325   C327    1.409   .     A
C326   C328    1.409   .     A
C326   C336    1.414   .     A
C326   N352    1.436   .     S
C327   C329    1.390   .     A
C328   C330    1.390   .     A
C329   H341    1.086   .     S
C329   C331    1.388   .     A
C330   H342    1.086   .     S
C330   C332    1.388   .     A
C331   C337    1.396   .     A
C331   C333    1.410   .     A
C332   C338    1.396   .     A
C332   C334    1.410   .     A
C333   C335    1.422   .     A
C333   C272    1.405   1_655 S
C334   C336    1.422   .     A
C335   C340    1.422   .     A
C336   C339    1.422   .     A
C337   H343    1.085   .     S
C337   C277    1.396   1_655 S
C338   H344    1.085   .     S
C339   N355    1.439   .     S
C340   N358    1.439   .     S
C340   C276    1.396   1_655 S
C346   C97     1.358   1_565 S
C346   N116    1.445   1_565 S
N347   N1092   1.291   1_554 S
N347   N1111   1.385   1_554 S
N348   N719    1.291   .     S
N348   N742    1.385   .     S
N349   O351    1.301   .     A
N349   O350    1.299   .     A
N352   O354    1.301   .     A
N352   O353    1.299   .     A
N355   O356    1.301   .     A
O357   N107    1.301   1_565 S
N358   O360    1.301   .     A
N358   O111    1.301   1_565 S
N361   O363    1.302   .     A
N361   O362    1.301   .     A
N361   C97     1.445   1_565 S
N364   O365    1.301   .     A
N364   O366    1.302   .     A
N367   O369    1.301   .     A
N367   O368    1.300   .     A
N367   N719    1.385   .     S
N370   O371    1.300   .     A
N370   O372    1.301   .     A
N370   N1092   1.385   1_554 S
O373   C377    1.293   .     A
O373   Cu385   1.965   .     S
O374   C378    1.293   .     A
O374   Cu386   1.965   .     S
O375   Cu386   1.964   .     S
O375   C377    1.298   .     A
O376   C378    1.298   .     A
O376   Cu385   1.964   .     S
C377   C407    1.438   .     S
C378   C408    1.438   .     S
O379   C383    1.299   .     A
O379   Cu385   1.962   .     S
O380   C384    1.299   .     A
O380   Cu386   1.962   .     S
O381   Cu386   1.949   .     S
O381   C383    1.298   .     A
O382   C384    1.298   .     A
O382   Cu385   1.949   .     S
C383   C390    1.448   .     S
C384   C389    1.448   .     S
Cu385  Cu386   2.707   .     S
Cu385  N410    2.034   .     S
Cu386  N409    2.034   .     S
C387   N411    1.436   .     S
C387   C397    1.414   .     A
C387   C389    1.409   .     A
C388   C390    1.409   .     A
C388   C398    1.414   .     A
C388   N414    1.436   .     S
C389   C391    1.390   .     A
C390   C392    1.390   .     A
C391   H403    1.086   .     S
C391   C393    1.388   .     A
C392   H404    1.086   .     S
C392   C394    1.388   .     A
C393   C399    1.396   .     A
C393   C395    1.410   .     A
C394   C400    1.396   .     A
C394   C396    1.410   .     A
C395   C397    1.422   .     A
C395   C458    1.405   .     S
C396   C398    1.422   .     A
C396   C457    1.405   1_455 S
C397   C402    1.422   .     A
C398   C401    1.422   .     A
C399   H405    1.085   .     S
C399   C463    1.396   .     S
C400   H406    1.085   .     S
C400   C464    1.396   1_455 S
C401   N417    1.439   .     S
C401   C461    1.396   1_455 S
C402   N420    1.439   .     S
C402   C462    1.396   .     S
C407   C656    1.358   1_545 S
C407   N671    1.445   1_545 S
C408   C531    1.358   .     S
C408   N550    1.445   .     S
N410   N781    1.291   .     S
N410   N804    1.385   .     S
N411   O413    1.301   .     A
N411   O412    1.299   .     A
N414   O416    1.301   .     A
N414   O415    1.299   .     A
N417   O418    1.301   .     A
N417   O667    1.301   1_545 S
O419   N541    1.301   .     S
N420   O422    1.301   .     A
N420   O545    1.301   .     S
O421   N668    1.301   1_545 S
N423   O425    1.302   .     A
N423   O424    1.301   .     A
N423   C531    1.445   .     S
N426   O427    1.301   .     A
N426   O428    1.302   .     A
N426   C656    1.445   1_545 S
N429   O431    1.301   .     A
N429   O430    1.300   .     A
N429   N781    1.385   .     S
N432   O433    1.300   .     A
N432   O434    1.301   .     A
O435   C439    1.293   .     A
O435   Cu447   1.965   .     S
O436   C440    1.293   .     A
O436   Cu448   1.965   .     S
O437   Cu448   1.964   .     S
O437   C439    1.298   .     A
O438   C440    1.298   .     A
O438   Cu447   1.964   .     S
C439   C469    1.438   .     S
C440   C470    1.438   .     S
O441   C445    1.299   .     A
O441   Cu447   1.962   .     S
O442   C446    1.299   .     A
O442   Cu448   1.962   .     S
O443   Cu448   1.949   .     S
O443   C445    1.298   .     A
O444   C446    1.298   .     A
O444   Cu447   1.949   .     S
C445   C452    1.448   .     S
C446   C451    1.448   .     S
Cu447  Cu448   2.707   .     S
Cu447  N472    2.034   .     S
Cu448  N471    2.034   .     S
C449   N473    1.436   .     S
C449   C459    1.414   .     A
C449   C451    1.409   .     A
C450   C452    1.409   .     A
C450   C460    1.414   .     A
C450   N476    1.436   .     S
C451   C453    1.390   .     A
C452   C454    1.390   .     A
C453   H465    1.086   .     S
C453   C455    1.388   .     A
C454   H466    1.086   .     S
C454   C456    1.388   .     A
C455   C461    1.396   .     A
C455   C457    1.410   .     A
C456   C462    1.396   .     A
C456   C458    1.410   .     A
C457   C459    1.422   .     A
C457   C396    1.405   1_655 S
C458   C460    1.422   .     A
C459   C464    1.422   .     A
C460   C463    1.422   .     A
C461   H467    1.085   .     S
C461   C401    1.396   1_655 S
C462   H468    1.085   .     S
C463   N479    1.439   .     S
C464   N482    1.439   .     S
C464   C400    1.396   1_655 S
C469   C718    1.358   1_545 S
C469   N733    1.445   1_545 S
C470   C593    1.358   .     S
C470   N612    1.445   .     S
N472   N843    1.291   .     S
N472   N866    1.385   .     S
N473   O475    1.301   .     A
N473   O474    1.299   .     A
N476   O478    1.301   .     A
N476   O477    1.299   .     A
N479   O480    1.301   .     A
N479   O729    1.301   1_545 S
O481   N603    1.301   .     S
N482   O484    1.301   .     A
N482   O607    1.301   .     S
O483   N730    1.301   1_545 S
N485   O487    1.302   .     A
N485   O486    1.301   .     A
N485   C593    1.445   .     S
N488   O489    1.301   .     A
N488   O490    1.302   .     A
N488   C718    1.445   1_545 S
N491   O493    1.301   .     A
N491   O492    1.300   .     A
N491   N843    1.385   .     S
N494   O495    1.300   .     A
N494   O496    1.301   .     A
O497   C501    1.293   .     A
O497   Cu509   1.965   .     S
O498   C502    1.293   .     A
O498   Cu510   1.965   .     S
O499   Cu510   1.964   .     S
O499   C501    1.298   .     A
O500   C502    1.298   .     A
O500   Cu509   1.964   .     S
C501   C531    1.438   .     S
C502   C532    1.438   .     S
O503   C507    1.299   .     A
O503   Cu509   1.962   .     S
O504   C508    1.299   .     A
O504   Cu510   1.962   .     S
O505   Cu510   1.949   .     S
O505   C507    1.298   .     A
O506   C508    1.298   .     A
O506   Cu509   1.949   .     S
C507   C514    1.448   .     S
C508   C513    1.448   .     S
Cu509  Cu510   2.707   .     S
Cu509  N534    2.034   .     S
Cu510  N533    2.034   .     S
C511   N535    1.436   .     S
C511   C521    1.414   .     A
C511   C513    1.409   .     A
C512   C514    1.409   .     A
C512   C522    1.414   .     A
C512   N538    1.436   .     S
C513   C515    1.390   .     A
C514   C516    1.390   .     A
C515   H527    1.086   .     S
C515   C517    1.388   .     A
C516   H528    1.086   .     S
C516   C518    1.388   .     A
C517   C523    1.396   .     A
C517   C519    1.410   .     A
C518   C524    1.396   .     A
C518   C520    1.410   .     A
C519   C521    1.422   .     A
C519   C582    1.405   .     S
C520   C522    1.422   .     A
C520   C581    1.405   1_455 S
C521   C526    1.422   .     A
C522   C525    1.422   .     A
C523   H529    1.085   .     S
C523   C587    1.396   .     S
C524   H530    1.085   .     S
C524   C588    1.396   1_455 S
C525   N541    1.439   .     S
C525   C585    1.396   1_455 S
C526   N544    1.439   .     S
C526   C586    1.396   .     S
C532   C655    1.358   .     S
C532   N674    1.445   .     S
N534   N905    1.291   .     S
N534   N928    1.385   .     S
N535   O537    1.301   .     A
N535   O536    1.299   .     A
N538   O540    1.301   .     A
N538   O539    1.299   .     A
N541   O542    1.301   .     A
O543   N665    1.301   .     S
N544   O546    1.301   .     A
N544   O669    1.301   .     S
N547   O549    1.302   .     A
N547   O548    1.301   .     A
N547   C655    1.445   .     S
N550   O551    1.301   .     A
N550   O552    1.302   .     A
N553   O555    1.301   .     A
N553   O554    1.300   .     A
N553   N905    1.385   .     S
N556   O557    1.300   .     A
N556   O558    1.301   .     A
O559   C563    1.293   .     A
O559   Cu571   1.965   .     S
O560   C564    1.293   .     A
O560   Cu572   1.965   .     S
O561   Cu572   1.964   .     S
O561   C563    1.298   .     A
O562   C564    1.298   .     A
O562   Cu571   1.964   .     S
C563   C593    1.438   .     S
C564   C594    1.438   .     S
O565   C569    1.299   .     A
O565   Cu571   1.962   .     S
O566   C570    1.299   .     A
O566   Cu572   1.962   .     S
O567   Cu572   1.949   .     S
O567   C569    1.298   .     A
O568   C570    1.298   .     A
O568   Cu571   1.949   .     S
C569   C576    1.448   .     S
C570   C575    1.448   .     S
Cu571  Cu572   2.707   .     S
Cu571  N596    2.034   .     S
Cu572  N595    2.034   .     S
C573   N597    1.436   .     S
C573   C583    1.414   .     A
C573   C575    1.409   .     A
C574   C576    1.409   .     A
C574   C584    1.414   .     A
C574   N600    1.436   .     S
C575   C577    1.390   .     A
C576   C578    1.390   .     A
C577   H589    1.086   .     S
C577   C579    1.388   .     A
C578   H590    1.086   .     S
C578   C580    1.388   .     A
C579   C585    1.396   .     A
C579   C581    1.410   .     A
C580   C586    1.396   .     A
C580   C582    1.410   .     A
C581   C583    1.422   .     A
C581   C520    1.405   1_655 S
C582   C584    1.422   .     A
C583   C588    1.422   .     A
C584   C587    1.422   .     A
C585   H591    1.085   .     S
C585   C525    1.396   1_655 S
C586   H592    1.085   .     S
C587   N603    1.439   .     S
C588   N606    1.439   .     S
C588   C524    1.396   1_655 S
C594   C717    1.358   .     S
C594   N736    1.445   .     S
N596   N967    1.291   .     S
N596   N990    1.385   .     S
N597   O599    1.301   .     A
N597   O598    1.299   .     A
N600   O602    1.301   .     A
N600   O601    1.299   .     A
N603   O604    1.301   .     A
O605   N727    1.301   .     S
N606   O608    1.301   .     A
N606   O731    1.301   .     S
N609   O611    1.302   .     A
N609   O610    1.301   .     A
N609   C717    1.445   .     S
N612   O613    1.301   .     A
N612   O614    1.302   .     A
N615   O617    1.301   .     A
N615   O616    1.300   .     A
N615   N967    1.385   .     S
N618   O619    1.300   .     A
N618   O620    1.301   .     A
O621   C625    1.293   .     A
O621   Cu633   1.965   .     S
O622   C626    1.293   .     A
O622   Cu634   1.965   .     S
O623   Cu634   1.964   .     S
O623   C625    1.298   .     A
O624   C626    1.298   .     A
O624   Cu633   1.964   .     S
C625   C655    1.438   .     S
C626   C656    1.438   .     S
O627   C631    1.299   .     A
O627   Cu633   1.962   .     S
O628   C632    1.299   .     A
O628   Cu634   1.962   .     S
O629   Cu634   1.949   .     S
O629   C631    1.298   .     A
O630   C632    1.298   .     A
O630   Cu633   1.949   .     S
C631   C638    1.448   .     S
C632   C637    1.448   .     S
Cu633  Cu634   2.707   .     S
Cu633  N658    2.034   .     S
Cu634  N657    2.034   .     S
C635   N659    1.436   .     S
C635   C645    1.414   .     A
C635   C637    1.409   .     A
C636   C638    1.409   .     A
C636   C646    1.414   .     A
C636   N662    1.436   .     S
C637   C639    1.390   .     A
C638   C640    1.390   .     A
C639   H651    1.086   .     S
C639   C641    1.388   .     A
C640   H652    1.086   .     S
C640   C642    1.388   .     A
C641   C647    1.396   .     A
C641   C643    1.410   .     A
C642   C648    1.396   .     A
C642   C644    1.410   .     A
C643   C645    1.422   .     A
C643   C706    1.405   .     S
C644   C646    1.422   .     A
C644   C705    1.405   1_455 S
C645   C650    1.422   .     A
C646   C649    1.422   .     A
C647   H653    1.085   .     S
C647   C711    1.396   .     S
C648   H654    1.085   .     S
C648   C712    1.396   1_455 S
C649   N665    1.439   .     S
C649   C709    1.396   1_455 S
C650   N668    1.439   .     S
C650   C710    1.396   .     S
C656   C407    1.358   1_565 S
C656   N426    1.445   1_565 S
N658   N1029   1.291   .     S
N658   N1052   1.385   .     S
N659   O661    1.301   .     A
N659   O660    1.299   .     A
N662   O664    1.301   .     A
N662   O663    1.299   .     A
N665   O666    1.301   .     A
O667   N417    1.301   1_565 S
N668   O670    1.301   .     A
N668   O421    1.301   1_565 S
N671   O673    1.302   .     A
N671   O672    1.301   .     A
N671   C407    1.445   1_565 S
N674   O675    1.301   .     A
N674   O676    1.302   .     A
N677   O679    1.301   .     A
N677   O678    1.300   .     A
N677   N1029   1.385   .     S
N680   O681    1.300   .     A
N680   O682    1.301   .     A
O683   C687    1.293   .     A
O683   Cu695   1.965   .     S
O684   C688    1.293   .     A
O684   Cu696   1.965   .     S
O685   Cu696   1.964   .     S
O685   C687    1.298   .     A
O686   C688    1.298   .     A
O686   Cu695   1.964   .     S
C687   C717    1.438   .     S
C688   C718    1.438   .     S
O689   C693    1.299   .     A
O689   Cu695   1.962   .     S
O690   C694    1.299   .     A
O690   Cu696   1.962   .     S
O691   Cu696   1.949   .     S
O691   C693    1.298   .     A
O692   C694    1.298   .     A
O692   Cu695   1.949   .     S
C693   C700    1.448   .     S
C694   C699    1.448   .     S
Cu695  Cu696   2.707   .     S
Cu695  N720    2.034   .     S
Cu696  N719    2.034   .     S
C697   N721    1.436   .     S
C697   C707    1.414   .     A
C697   C699    1.409   .     A
C698   C700    1.409   .     A
C698   C708    1.414   .     A
C698   N724    1.436   .     S
C699   C701    1.390   .     A
C700   C702    1.390   .     A
C701   H713    1.086   .     S
C701   C703    1.388   .     A
C702   H714    1.086   .     S
C702   C704    1.388   .     A
C703   C709    1.396   .     A
C703   C705    1.410   .     A
C704   C710    1.396   .     A
C704   C706    1.410   .     A
C705   C707    1.422   .     A
C705   C644    1.405   1_655 S
C706   C708    1.422   .     A
C707   C712    1.422   .     A
C708   C711    1.422   .     A
C709   H715    1.085   .     S
C709   C649    1.396   1_655 S
C710   H716    1.085   .     S
C711   N727    1.439   .     S
C712   N730    1.439   .     S
C712   C648    1.396   1_655 S
C718   C469    1.358   1_565 S
C718   N488    1.445   1_565 S
N720   N1091   1.291   .     S
N720   N1114   1.385   .     S
N721   O723    1.301   .     A
N721   O722    1.299   .     A
N724   O726    1.301   .     A
N724   O725    1.299   .     A
N727   O728    1.301   .     A
O729   N479    1.301   1_565 S
N730   O732    1.301   .     A
N730   O483    1.301   1_565 S
N733   O735    1.302   .     A
N733   O734    1.301   .     A
N733   C469    1.445   1_565 S
N736   O737    1.301   .     A
N736   O738    1.302   .     A
N739   O741    1.301   .     A
N739   O740    1.300   .     A
N739   N1091   1.385   .     S
N742   O743    1.300   .     A
N742   O744    1.301   .     A
O745   C749    1.293   .     A
O745   Cu757   1.965   .     S
O746   C750    1.293   .     A
O746   Cu758   1.965   .     S
O747   Cu758   1.964   .     S
O747   C749    1.298   .     A
O748   C750    1.298   .     A
O748   Cu757   1.964   .     S
C749   C779    1.438   .     S
C750   C780    1.438   .     S
O751   C755    1.299   .     A
O751   Cu757   1.962   .     S
O752   C756    1.299   .     A
O752   Cu758   1.962   .     S
O753   Cu758   1.949   .     S
O753   C755    1.298   .     A
O754   C756    1.298   .     A
O754   Cu757   1.949   .     S
C755   C762    1.448   .     S
C756   C761    1.448   .     S
Cu757  Cu758   2.707   .     S
Cu757  N782    2.034   .     S
Cu758  N781    2.034   .     S
C759   N783    1.436   .     S
C759   C769    1.414   .     A
C759   C761    1.409   .     A
C760   C762    1.409   .     A
C760   C770    1.414   .     A
C760   N786    1.436   .     S
C761   C763    1.390   .     A
C762   C764    1.390   .     A
C763   H775    1.086   .     S
C763   C765    1.388   .     A
C764   H776    1.086   .     S
C764   C766    1.388   .     A
C765   C771    1.396   .     A
C765   C767    1.410   .     A
C766   C772    1.396   .     A
C766   C768    1.410   .     A
C767   C769    1.422   .     A
C767   C830    1.405   .     S
C768   C770    1.422   .     A
C768   C829    1.405   1_455 S
C769   C774    1.422   .     A
C770   C773    1.422   .     A
C771   H777    1.085   .     S
C771   C835    1.396   .     S
C772   H778    1.085   .     S
C772   C836    1.396   1_455 S
C773   N789    1.439   .     S
C773   C833    1.396   1_455 S
C774   N792    1.439   .     S
C774   C834    1.396   .     S
C779   C1028   1.358   1_545 S
C779   N1043   1.445   1_545 S
C780   C903    1.358   .     S
C780   N922    1.445   .     S
N782   N37     1.291   1_556 S
N782   N60     1.385   1_556 S
N783   O785    1.301   .     A
N783   O784    1.299   .     A
N786   O788    1.301   .     A
N786   O787    1.299   .     A
N789   O790    1.301   .     A
N789   O1039   1.301   1_545 S
O791   N913    1.301   .     S
N792   O794    1.301   .     A
N792   O917    1.301   .     S
O793   N1040   1.301   1_545 S
N795   O797    1.302   .     A
N795   O796    1.301   .     A
N795   C903    1.445   .     S
N798   O799    1.301   .     A
N798   O800    1.302   .     A
N798   C1028   1.445   1_545 S
N801   O803    1.301   .     A
N801   O802    1.300   .     A
N801   N37     1.385   1_556 S
N804   O805    1.300   .     A
N804   O806    1.301   .     A
O807   C811    1.293   .     A
O807   Cu819   1.965   .     S
O808   C812    1.293   .     A
O808   Cu820   1.965   .     S
O809   Cu820   1.964   .     S
O809   C811    1.298   .     A
O810   C812    1.298   .     A
O810   Cu819   1.964   .     S
C811   C841    1.438   .     S
C812   C842    1.438   .     S
O813   C817    1.299   .     A
O813   Cu819   1.962   .     S
O814   C818    1.299   .     A
O814   Cu820   1.962   .     S
O815   Cu820   1.949   .     S
O815   C817    1.298   .     A
O816   C818    1.298   .     A
O816   Cu819   1.949   .     S
C817   C824    1.448   .     S
C818   C823    1.448   .     S
Cu819  Cu820   2.707   .     S
Cu819  N844    2.034   .     S
Cu820  N843    2.034   .     S
C821   N845    1.436   .     S
C821   C831    1.414   .     A
C821   C823    1.409   .     A
C822   C824    1.409   .     A
C822   C832    1.414   .     A
C822   N848    1.436   .     S
C823   C825    1.390   .     A
C824   C826    1.390   .     A
C825   H837    1.086   .     S
C825   C827    1.388   .     A
C826   H838    1.086   .     S
C826   C828    1.388   .     A
C827   C833    1.396   .     A
C827   C829    1.410   .     A
C828   C834    1.396   .     A
C828   C830    1.410   .     A
C829   C831    1.422   .     A
C829   C768    1.405   1_655 S
C830   C832    1.422   .     A
C831   C836    1.422   .     A
C832   C835    1.422   .     A
C833   H839    1.085   .     S
C833   C773    1.396   1_655 S
C834   H840    1.085   .     S
C835   N851    1.439   .     S
C836   N854    1.439   .     S
C836   C772    1.396   1_655 S
C841   C1090   1.358   1_545 S
C841   N1105   1.445   1_545 S
C842   C965    1.358   .     S
C842   N984    1.445   .     S
N844   N99     1.291   1_556 S
N844   N122    1.385   1_556 S
N845   O847    1.301   .     A
N845   O846    1.299   .     A
N848   O850    1.301   .     A
N848   O849    1.299   .     A
N851   O852    1.301   .     A
N851   O1101   1.301   1_545 S
O853   N975    1.301   .     S
N854   O856    1.301   .     A
N854   O979    1.301   .     S
O855   N1102   1.301   1_545 S
N857   O859    1.302   .     A
N857   O858    1.301   .     A
N857   C965    1.445   .     S
N860   O861    1.301   .     A
N860   O862    1.302   .     A
N860   C1090   1.445   1_545 S
N863   O865    1.301   .     A
N863   O864    1.300   .     A
N863   N99     1.385   1_556 S
N866   O867    1.300   .     A
N866   O868    1.301   .     A
O869   C873    1.293   .     A
O869   Cu881   1.965   .     S
O870   C874    1.293   .     A
O870   Cu882   1.965   .     S
O871   Cu882   1.964   .     S
O871   C873    1.298   .     A
O872   C874    1.298   .     A
O872   Cu881   1.964   .     S
C873   C903    1.438   .     S
C874   C904    1.438   .     S
O875   C879    1.299   .     A
O875   Cu881   1.962   .     S
O876   C880    1.299   .     A
O876   Cu882   1.962   .     S
O877   Cu882   1.949   .     S
O877   C879    1.298   .     A
O878   C880    1.298   .     A
O878   Cu881   1.949   .     S
C879   C886    1.448   .     S
C880   C885    1.448   .     S
Cu881  Cu882   2.707   .     S
Cu881  N906    2.034   .     S
Cu882  N905    2.034   .     S
C883   N907    1.436   .     S
C883   C893    1.414   .     A
C883   C885    1.409   .     A
C884   C886    1.409   .     A
C884   C894    1.414   .     A
C884   N910    1.436   .     S
C885   C887    1.390   .     A
C886   C888    1.390   .     A
C887   H899    1.086   .     S
C887   C889    1.388   .     A
C888   H900    1.086   .     S
C888   C890    1.388   .     A
C889   C895    1.396   .     A
C889   C891    1.410   .     A
C890   C896    1.396   .     A
C890   C892    1.410   .     A
C891   C893    1.422   .     A
C891   C954    1.405   .     S
C892   C894    1.422   .     A
C892   C953    1.405   1_455 S
C893   C898    1.422   .     A
C894   C897    1.422   .     A
C895   H901    1.085   .     S
C895   C959    1.396   .     S
C896   H902    1.085   .     S
C896   C960    1.396   1_455 S
C897   N913    1.439   .     S
C897   C957    1.396   1_455 S
C898   N916    1.439   .     S
C898   C958    1.396   .     S
C904   C1027   1.358   .     S
C904   N1046   1.445   .     S
N906   N161    1.291   1_556 S
N906   N184    1.385   1_556 S
N907   O909    1.301   .     A
N907   O908    1.299   .     A
N910   O912    1.301   .     A
N910   O911    1.299   .     A
N913   O914    1.301   .     A
O915   N1037   1.301   .     S
N916   O918    1.301   .     A
N916   O1041   1.301   .     S
N919   O921    1.302   .     A
N919   O920    1.301   .     A
N919   C1027   1.445   .     S
N922   O923    1.301   .     A
N922   O924    1.302   .     A
N925   O927    1.301   .     A
N925   O926    1.300   .     A
N925   N161    1.385   1_556 S
N928   O929    1.300   .     A
N928   O930    1.301   .     A
O931   C935    1.293   .     A
O931   Cu943   1.965   .     S
O932   C936    1.293   .     A
O932   Cu944   1.965   .     S
O933   Cu944   1.964   .     S
O933   C935    1.298   .     A
O934   C936    1.298   .     A
O934   Cu943   1.964   .     S
C935   C965    1.438   .     S
C936   C966    1.438   .     S
O937   C941    1.299   .     A
O937   Cu943   1.962   .     S
O938   C942    1.299   .     A
O938   Cu944   1.962   .     S
O939   Cu944   1.949   .     S
O939   C941    1.298   .     A
O940   C942    1.298   .     A
O940   Cu943   1.949   .     S
C941   C948    1.448   .     S
C942   C947    1.448   .     S
Cu943  Cu944   2.707   .     S
Cu943  N968    2.034   .     S
Cu944  N967    2.034   .     S
C945   N969    1.436   .     S
C945   C955    1.414   .     A
C945   C947    1.409   .     A
C946   C948    1.409   .     A
C946   C956    1.414   .     A
C946   N972    1.436   .     S
C947   C949    1.390   .     A
C948   C950    1.390   .     A
C949   H961    1.086   .     S
C949   C951    1.388   .     A
C950   H962    1.086   .     S
C950   C952    1.388   .     A
C951   C957    1.396   .     A
C951   C953    1.410   .     A
C952   C958    1.396   .     A
C952   C954    1.410   .     A
C953   C955    1.422   .     A
C953   C892    1.405   1_655 S
C954   C956    1.422   .     A
C955   C960    1.422   .     A
C956   C959    1.422   .     A
C957   H963    1.085   .     S
C957   C897    1.396   1_655 S
C958   H964    1.085   .     S
C959   N975    1.439   .     S
C960   N978    1.439   .     S
C960   C896    1.396   1_655 S
C966   C1089   1.358   .     S
C966   N1108   1.445   .     S
N968   N223    1.291   1_556 S
N968   N246    1.385   1_556 S
N969   O971    1.301   .     A
N969   O970    1.299   .     A
N972   O974    1.301   .     A
N972   O973    1.299   .     A
N975   O976    1.301   .     A
O977   N1099   1.301   .     S
N978   O980    1.301   .     A
N978   O1103   1.301   .     S
N981   O983    1.302   .     A
N981   O982    1.301   .     A
N981   C1089   1.445   .     S
N984   O985    1.301   .     A
N984   O986    1.302   .     A
N987   O989    1.301   .     A
N987   O988    1.300   .     A
N987   N223    1.385   1_556 S
N990   O991    1.300   .     A
N990   O992    1.301   .     A
O993   C997    1.293   .     A
O993   Cu1005  1.965   .     S
O994   C998    1.293   .     A
O994   Cu1006  1.965   .     S
O995   Cu1006  1.964   .     S
O995   C997    1.298   .     A
O996   C998    1.298   .     A
O996   Cu1005  1.964   .     S
C997   C1027   1.438   .     S
C998   C1028   1.438   .     S
O999   C1003   1.299   .     A
O999   Cu1005  1.962   .     S
O1000  C1004   1.299   .     A
O1000  Cu1006  1.962   .     S
O1001  Cu1006  1.949   .     S
O1001  C1003   1.298   .     A
O1002  C1004   1.298   .     A
O1002  Cu1005  1.949   .     S
C1003  C1010   1.448   .     S
C1004  C1009   1.448   .     S
Cu1005 Cu1006  2.707   .     S
Cu1005 N1030   2.034   .     S
Cu1006 N1029   2.034   .     S
C1007  N1031   1.436   .     S
C1007  C1017   1.414   .     A
C1007  C1009   1.409   .     A
C1008  C1010   1.409   .     A
C1008  C1018   1.414   .     A
C1008  N1034   1.436   .     S
C1009  C1011   1.390   .     A
C1010  C1012   1.390   .     A
C1011  H1023   1.086   .     S
C1011  C1013   1.388   .     A
C1012  H1024   1.086   .     S
C1012  C1014   1.388   .     A
C1013  C1019   1.396   .     A
C1013  C1015   1.410   .     A
C1014  C1020   1.396   .     A
C1014  C1016   1.410   .     A
C1015  C1017   1.422   .     A
C1015  C1078   1.405   .     S
C1016  C1018   1.422   .     A
C1016  C1077   1.405   1_455 S
C1017  C1022   1.422   .     A
C1018  C1021   1.422   .     A
C1019  H1025   1.085   .     S
C1019  C1083   1.396   .     S
C1020  H1026   1.085   .     S
C1020  C1084   1.396   1_455 S
C1021  N1037   1.439   .     S
C1021  C1081   1.396   1_455 S
C1022  N1040   1.439   .     S
C1022  C1082   1.396   .     S
C1028  C779    1.358   1_565 S
C1028  N798    1.445   1_565 S
N1030  N285    1.291   1_556 S
N1030  N308    1.385   1_556 S
N1031  O1033   1.301   .     A
N1031  O1032   1.299   .     A
N1034  O1036   1.301   .     A
N1034  O1035   1.299   .     A
N1037  O1038   1.301   .     A
O1039  N789    1.301   1_565 S
N1040  O1042   1.301   .     A
N1040  O793    1.301   1_565 S
N1043  O1045   1.302   .     A
N1043  O1044   1.301   .     A
N1043  C779    1.445   1_565 S
N1046  O1047   1.301   .     A
N1046  O1048   1.302   .     A
N1049  O1051   1.301   .     A
N1049  O1050   1.300   .     A
N1049  N285    1.385   1_556 S
N1052  O1053   1.300   .     A
N1052  O1054   1.301   .     A
O1055  C1059   1.293   .     A
O1055  Cu1067  1.965   .     S
O1056  C1060   1.293   .     A
O1056  Cu1068  1.965   .     S
O1057  Cu1068  1.964   .     S
O1057  C1059   1.298   .     A
O1058  C1060   1.298   .     A
O1058  Cu1067  1.964   .     S
C1059  C1089   1.438   .     S
C1060  C1090   1.438   .     S
O1061  C1065   1.299   .     A
O1061  Cu1067  1.962   .     S
O1062  C1066   1.299   .     A
O1062  Cu1068  1.962   .     S
O1063  Cu1068  1.949   .     S
O1063  C1065   1.298   .     A
O1064  C1066   1.298   .     A
O1064  Cu1067  1.949   .     S
C1065  C1072   1.448   .     S
C1066  C1071   1.448   .     S
Cu1067 Cu1068  2.707   .     S
Cu1067 N1092   2.034   .     S
Cu1068 N1091   2.034   .     S
C1069  N1093   1.436   .     S
C1069  C1079   1.414   .     A
C1069  C1071   1.409   .     A
C1070  C1072   1.409   .     A
C1070  C1080   1.414   .     A
C1070  N1096   1.436   .     S
C1071  C1073   1.390   .     A
C1072  C1074   1.390   .     A
C1073  H1085   1.086   .     S
C1073  C1075   1.388   .     A
C1074  H1086   1.086   .     S
C1074  C1076   1.388   .     A
C1075  C1081   1.396   .     A
C1075  C1077   1.410   .     A
C1076  C1082   1.396   .     A
C1076  C1078   1.410   .     A
C1077  C1079   1.422   .     A
C1077  C1016   1.405   1_655 S
C1078  C1080   1.422   .     A
C1079  C1084   1.422   .     A
C1080  C1083   1.422   .     A
C1081  H1087   1.085   .     S
C1081  C1021   1.396   1_655 S
C1082  H1088   1.085   .     S
C1083  N1099   1.439   .     S
C1084  N1102   1.439   .     S
C1084  C1020   1.396   1_655 S
C1090  C841    1.358   1_565 S
C1090  N860    1.445   1_565 S
N1092  N347    1.291   1_556 S
N1092  N370    1.385   1_556 S
N1093  O1095   1.301   .     A
N1093  O1094   1.299   .     A
N1096  O1098   1.301   .     A
N1096  O1097   1.299   .     A
N1099  O1100   1.301   .     A
O1101  N851    1.301   1_565 S
N1102  O1104   1.301   .     A
N1102  O855    1.301   1_565 S
N1105  O1107   1.302   .     A
N1105  O1106   1.301   .     A
N1105  C841    1.445   1_565 S
N1108  O1109   1.301   .     A
N1108  O1110   1.302   .     A
N1111  O1113   1.301   .     A
N1111  O1112   1.300   .     A
N1111  N347    1.385   1_556 S
N1114  O1115   1.300   .     A
N1114  O1116   1.301   .     A
