data_str_m2_o1_o16_pcu_sym.231
_audit_creation_date              2020-01-03
_audit_creation_method            'Materials Studio'
_symmetry_space_group_name_H-M    'P1'
_symmetry_Int_Tables_number       1
_symmetry_cell_setting            triclinic
loop_
_symmetry_equiv_pos_as_xyz
  x,y,z
_cell_length_a                    28.6612
_cell_length_b                    32.5186
_cell_length_c                    27.0230
_cell_angle_alpha                 90.9873
_cell_angle_beta                  73.2406
_cell_angle_gamma                 89.7278
loop_
_atom_site_label
_atom_site_type_symbol
_atom_site_fract_x
_atom_site_fract_y
_atom_site_fract_z
_atom_site_U_iso_or_equiv
_atom_site_adp_type
_atom_site_occupancy
C1     C     0.16685   0.24594   0.24853   0.00000  Uiso   1.00
C2     C     0.15278   0.17601   0.48472   0.00000  Uiso   1.00
C3     C     0.15931   0.15958   0.43439   0.00000  Uiso   1.00
C4     C     0.18565   0.16302   0.01202   0.00000  Uiso   1.00
C5     C     0.23120   0.14565   0.48513   0.00000  Uiso   1.00
C6     C     0.23576   0.12758   0.43647   0.00000  Uiso   1.00
C7     C     0.19870   0.13214   0.41324   0.00000  Uiso   1.00
C8     C     0.17171   0.16086   0.06578   0.00000  Uiso   1.00
C9     C     0.25721   0.15759   0.06229   0.00000  Uiso   1.00
C10    C     0.12713   0.17166   0.40609   0.00000  Uiso   1.00
C11    C     0.20432   0.31202   0.25920   0.00000  Uiso   1.00
C12    C     0.14090   0.16632   0.34976   0.00000  Uiso   1.00
C13    C     0.20460   0.02120   0.25993   0.00000  Uiso   1.00
C14    C     0.16738   0.04298   0.24776   0.00000  Uiso   1.00
C15    C     0.13063   0.02215   0.23337   0.00000  Uiso   1.00
C16    C     0.13015   0.31286   0.23206   0.00000  Uiso   1.00
C17    C     0.16684   0.29072   0.24633   0.00000  Uiso   1.00
C18    C     0.30043   0.19383   0.28077   0.00000  Uiso   1.00
C19    C     0.01679   0.19418   0.27989   0.00000  Uiso   1.00
C20    C     0.03273   0.13798   0.22204   0.00000  Uiso   1.00
C21    C     0.31701   0.13855   0.22072   0.00000  Uiso   1.00
C22    C     0.16689   0.08747   0.24946   0.00000  Uiso   1.00
C23    C     0.19268   0.16552   0.14977   0.00000  Uiso   1.00
C24    C     0.26861   0.14425   0.00982   0.00000  Uiso   1.00
C25    C     0.20761   0.16166   0.09222   0.00000  Uiso   1.00
C26    C     0.08672   0.19672   0.42965   0.00000  Uiso   1.00
C27    C     0.08049   0.21329   0.47878   0.00000  Uiso   1.00
C28    C     0.11492   0.20577   0.00524   0.00000  Uiso   1.00
Cu29   Cu    0.11978   0.16666   0.25000   0.00000  Uiso   1.00
Cu30   Cu    0.21355   0.16667   0.25000   0.00000  Uiso   1.00
H31    H     0.23352   0.03697   0.27074   0.00000  Uiso   1.00
H32    H     0.10246   0.03911   0.22259   0.00000  Uiso   1.00
H33    H     0.02922   0.21601   0.30395   0.00000  Uiso   1.00
H34    H     0.05768   0.11448   0.20073   0.00000  Uiso   1.00
H35    H     0.26629   0.10789   0.41723   0.00000  Uiso   1.00
H36    H     0.06206   0.20654   0.40829   0.00000  Uiso   1.00
H37    H     0.05091   0.23506   0.49422   0.00000  Uiso   1.00
H38    H     0.20211   0.11477   0.37786   0.00000  Uiso   1.00
H39    H     0.23325   0.29592   0.26940   0.00000  Uiso   1.00
N40    N     0.04931   0.16666   0.24999   0.00000  Uiso   1.00
N41    N     0.28402   0.16669   0.25000   0.00000  Uiso   1.00
O42    O     0.12708   0.22678   0.25001   0.00000  Uiso   1.00
O43    O     0.20627   0.22679   0.25001   0.00000  Uiso   1.00
O44    O     0.10775   0.16665   0.32549   0.00000  Uiso   1.00
O45    O     0.18694   0.16666   0.32549   0.00000  Uiso   1.00
O46    O     0.12706   0.10654   0.25000   0.00000  Uiso   1.00
O47    O     0.20625   0.10655   0.25000   0.00000  Uiso   1.00
O48    O     0.14640   0.16667   0.17451   0.00000  Uiso   1.00
O49    O     0.22559   0.16668   0.17451   0.00000  Uiso   1.00
C50    C     0.29619   0.16884   0.08377   0.00000  Uiso   1.00
N51    N     0.32726   0.17845   0.10081   0.00000  Uiso   1.00
C52    C     0.09235   0.29331   0.21458   0.00000  Uiso   1.00
N53    N     0.06206   0.27779   0.20054   0.00000  Uiso   1.00
C54    C     0.26733   0.22142   0.31644   0.00000  Uiso   1.00
N55    N     0.24094   0.24351   0.34557   0.00000  Uiso   1.00
C56    C     0.30272   0.10874   0.18807   0.00000  Uiso   1.00
N57    N     0.29164   0.08467   0.16157   0.00000  Uiso   1.00
C58    C     0.31899   0.13000   0.48141   0.00000  Uiso   1.00
O59    O     0.01015   0.11136   0.00417   0.00000  Uiso   1.00
O60    O     0.00503   0.13759   0.42872   0.00000  Uiso   1.00
H61    H     0.03806   0.12399   0.41335   0.00000  Uiso   1.00
C62    C     0.12208   0.14840   0.09009   0.00000  Uiso   1.00
N63    N     0.08244   0.13790   0.10796   0.00000  Uiso   1.00
C64    C     0.11335   0.23334   0.05037   0.00000  Uiso   1.00
O65    O     0.07430   0.24156   0.08193   0.00000  Uiso   1.00
O66    O     0.15553   0.25143   0.05665   0.00000  Uiso   1.00
H67    H     0.18532   0.24629   0.02611   0.00000  Uiso   1.00
C68    C     0.50018   0.24594   0.24853   0.00000  Uiso   1.00
C69    C     0.48612   0.17601   0.48472   0.00000  Uiso   1.00
C70    C     0.49264   0.15958   0.43439   0.00000  Uiso   1.00
C71    C     0.51898   0.16302   0.01202   0.00000  Uiso   1.00
C72    C     0.56454   0.14565   0.48513   0.00000  Uiso   1.00
C73    C     0.56910   0.12758   0.43647   0.00000  Uiso   1.00
C74    C     0.53203   0.13214   0.41324   0.00000  Uiso   1.00
C75    C     0.50505   0.16086   0.06578   0.00000  Uiso   1.00
C76    C     0.59054   0.15759   0.06229   0.00000  Uiso   1.00
C77    C     0.46047   0.17166   0.40609   0.00000  Uiso   1.00
C78    C     0.53765   0.31202   0.25920   0.00000  Uiso   1.00
C79    C     0.47423   0.16632   0.34976   0.00000  Uiso   1.00
C80    C     0.53794   0.02120   0.25993   0.00000  Uiso   1.00
C81    C     0.50072   0.04298   0.24776   0.00000  Uiso   1.00
C82    C     0.46396   0.02215   0.23337   0.00000  Uiso   1.00
C83    C     0.46349   0.31286   0.23206   0.00000  Uiso   1.00
C84    C     0.50018   0.29072   0.24633   0.00000  Uiso   1.00
C85    C     0.63376   0.19383   0.28077   0.00000  Uiso   1.00
C86    C     0.35012   0.19418   0.27989   0.00000  Uiso   1.00
C87    C     0.36607   0.13798   0.22204   0.00000  Uiso   1.00
C88    C     0.65034   0.13855   0.22072   0.00000  Uiso   1.00
C89    C     0.50023   0.08747   0.24946   0.00000  Uiso   1.00
C90    C     0.52602   0.16552   0.14977   0.00000  Uiso   1.00
C91    C     0.60194   0.14425   0.00982   0.00000  Uiso   1.00
C92    C     0.54095   0.16166   0.09222   0.00000  Uiso   1.00
C93    C     0.42005   0.19672   0.42965   0.00000  Uiso   1.00
C94    C     0.41383   0.21329   0.47878   0.00000  Uiso   1.00
C95    C     0.44826   0.20577   0.00524   0.00000  Uiso   1.00
Cu96   Cu    0.45311   0.16666   0.25000   0.00000  Uiso   1.00
Cu97   Cu    0.54689   0.16667   0.25000   0.00000  Uiso   1.00
H98    H     0.56686   0.03697   0.27074   0.00000  Uiso   1.00
H99    H     0.43580   0.03911   0.22259   0.00000  Uiso   1.00
H100   H     0.36255   0.21601   0.30395   0.00000  Uiso   1.00
H101   H     0.39101   0.11448   0.20073   0.00000  Uiso   1.00
H102   H     0.59962   0.10789   0.41723   0.00000  Uiso   1.00
H103   H     0.39540   0.20654   0.40829   0.00000  Uiso   1.00
H104   H     0.38424   0.23506   0.49422   0.00000  Uiso   1.00
H105   H     0.53545   0.11477   0.37786   0.00000  Uiso   1.00
H106   H     0.56658   0.29592   0.26940   0.00000  Uiso   1.00
N107   N     0.38265   0.16666   0.24999   0.00000  Uiso   1.00
N108   N     0.61735   0.16669   0.25000   0.00000  Uiso   1.00
O109   O     0.46042   0.22678   0.25001   0.00000  Uiso   1.00
O110   O     0.53961   0.22679   0.25001   0.00000  Uiso   1.00
O111   O     0.44108   0.16665   0.32549   0.00000  Uiso   1.00
O112   O     0.52027   0.16666   0.32549   0.00000  Uiso   1.00
O113   O     0.46039   0.10654   0.25000   0.00000  Uiso   1.00
O114   O     0.53958   0.10655   0.25000   0.00000  Uiso   1.00
O115   O     0.47973   0.16667   0.17451   0.00000  Uiso   1.00
O116   O     0.55892   0.16668   0.17451   0.00000  Uiso   1.00
C117   C     0.62953   0.16884   0.08377   0.00000  Uiso   1.00
N118   N     0.66059   0.17845   0.10081   0.00000  Uiso   1.00
C119   C     0.42568   0.29331   0.21458   0.00000  Uiso   1.00
N120   N     0.39539   0.27779   0.20054   0.00000  Uiso   1.00
C121   C     0.60066   0.22142   0.31644   0.00000  Uiso   1.00
N122   N     0.57428   0.24351   0.34557   0.00000  Uiso   1.00
C123   C     0.63605   0.10874   0.18807   0.00000  Uiso   1.00
N124   N     0.62498   0.08467   0.16157   0.00000  Uiso   1.00
C125   C     0.65232   0.13000   0.48141   0.00000  Uiso   1.00
O126   O     0.34348   0.11136   0.00417   0.00000  Uiso   1.00
O127   O     0.33836   0.13759   0.42872   0.00000  Uiso   1.00
H128   H     0.37140   0.12399   0.41335   0.00000  Uiso   1.00
C129   C     0.45541   0.14840   0.09009   0.00000  Uiso   1.00
N130   N     0.41578   0.13790   0.10796   0.00000  Uiso   1.00
C131   C     0.44669   0.23334   0.05037   0.00000  Uiso   1.00
O132   O     0.40763   0.24156   0.08193   0.00000  Uiso   1.00
O133   O     0.48886   0.25143   0.05665   0.00000  Uiso   1.00
H134   H     0.51865   0.24629   0.02611   0.00000  Uiso   1.00
C135   C     0.83351   0.24594   0.24853   0.00000  Uiso   1.00
C136   C     0.81945   0.17601   0.48472   0.00000  Uiso   1.00
C137   C     0.82598   0.15958   0.43439   0.00000  Uiso   1.00
C138   C     0.85232   0.16302   0.01202   0.00000  Uiso   1.00
C139   C     0.89787   0.14565   0.48513   0.00000  Uiso   1.00
C140   C     0.90243   0.12758   0.43647   0.00000  Uiso   1.00
C141   C     0.86536   0.13214   0.41324   0.00000  Uiso   1.00
C142   C     0.83838   0.16086   0.06578   0.00000  Uiso   1.00
C143   C     0.92387   0.15759   0.06229   0.00000  Uiso   1.00
C144   C     0.79380   0.17166   0.40609   0.00000  Uiso   1.00
C145   C     0.87099   0.31202   0.25920   0.00000  Uiso   1.00
C146   C     0.80757   0.16632   0.34976   0.00000  Uiso   1.00
C147   C     0.87127   0.02120   0.25993   0.00000  Uiso   1.00
C148   C     0.83405   0.04298   0.24776   0.00000  Uiso   1.00
C149   C     0.79729   0.02215   0.23337   0.00000  Uiso   1.00
C150   C     0.79682   0.31286   0.23206   0.00000  Uiso   1.00
C151   C     0.83351   0.29072   0.24633   0.00000  Uiso   1.00
C152   C     0.96710   0.19383   0.28077   0.00000  Uiso   1.00
C153   C     0.68346   0.19418   0.27989   0.00000  Uiso   1.00
C154   C     0.69940   0.13798   0.22204   0.00000  Uiso   1.00
C155   C     0.98368   0.13855   0.22072   0.00000  Uiso   1.00
C156   C     0.83356   0.08747   0.24946   0.00000  Uiso   1.00
C157   C     0.85935   0.16552   0.14977   0.00000  Uiso   1.00
C158   C     0.93527   0.14425   0.00982   0.00000  Uiso   1.00
C159   C     0.87428   0.16166   0.09222   0.00000  Uiso   1.00
C160   C     0.75339   0.19672   0.42965   0.00000  Uiso   1.00
C161   C     0.74716   0.21329   0.47878   0.00000  Uiso   1.00
C162   C     0.78159   0.20577   0.00524   0.00000  Uiso   1.00
Cu163  Cu    0.78645   0.16666   0.25000   0.00000  Uiso   1.00
Cu164  Cu    0.88022   0.16667   0.25000   0.00000  Uiso   1.00
H165   H     0.90019   0.03697   0.27074   0.00000  Uiso   1.00
H166   H     0.76913   0.03911   0.22259   0.00000  Uiso   1.00
H167   H     0.69588   0.21601   0.30395   0.00000  Uiso   1.00
H168   H     0.72435   0.11448   0.20073   0.00000  Uiso   1.00
H169   H     0.93295   0.10789   0.41723   0.00000  Uiso   1.00
H170   H     0.72873   0.20654   0.40829   0.00000  Uiso   1.00
H171   H     0.71757   0.23506   0.49422   0.00000  Uiso   1.00
H172   H     0.86878   0.11477   0.37786   0.00000  Uiso   1.00
H173   H     0.89992   0.29592   0.26940   0.00000  Uiso   1.00
N174   N     0.71598   0.16666   0.24999   0.00000  Uiso   1.00
N175   N     0.95069   0.16669   0.25000   0.00000  Uiso   1.00
O176   O     0.79375   0.22678   0.25001   0.00000  Uiso   1.00
O177   O     0.87294   0.22679   0.25001   0.00000  Uiso   1.00
O178   O     0.77441   0.16665   0.32549   0.00000  Uiso   1.00
O179   O     0.85360   0.16666   0.32549   0.00000  Uiso   1.00
O180   O     0.79373   0.10654   0.25000   0.00000  Uiso   1.00
O181   O     0.87292   0.10655   0.25000   0.00000  Uiso   1.00
O182   O     0.81306   0.16667   0.17451   0.00000  Uiso   1.00
O183   O     0.89225   0.16668   0.17451   0.00000  Uiso   1.00
C184   C     0.96286   0.16884   0.08377   0.00000  Uiso   1.00
N185   N     0.99392   0.17845   0.10081   0.00000  Uiso   1.00
C186   C     0.75901   0.29331   0.21458   0.00000  Uiso   1.00
N187   N     0.72872   0.27779   0.20054   0.00000  Uiso   1.00
C188   C     0.93400   0.22142   0.31644   0.00000  Uiso   1.00
N189   N     0.90761   0.24351   0.34557   0.00000  Uiso   1.00
C190   C     0.96939   0.10874   0.18807   0.00000  Uiso   1.00
N191   N     0.95831   0.08467   0.16157   0.00000  Uiso   1.00
C192   C     0.98565   0.13000   0.48141   0.00000  Uiso   1.00
O193   O     0.67682   0.11136   0.00417   0.00000  Uiso   1.00
O194   O     0.67170   0.13759   0.42872   0.00000  Uiso   1.00
H195   H     0.70473   0.12399   0.41335   0.00000  Uiso   1.00
C196   C     0.78875   0.14840   0.09009   0.00000  Uiso   1.00
N197   N     0.74911   0.13790   0.10796   0.00000  Uiso   1.00
C198   C     0.78002   0.23334   0.05037   0.00000  Uiso   1.00
O199   O     0.74096   0.24156   0.08193   0.00000  Uiso   1.00
O200   O     0.82220   0.25143   0.05665   0.00000  Uiso   1.00
H201   H     0.85199   0.24629   0.02611   0.00000  Uiso   1.00
C202   C     0.16685   0.57928   0.24853   0.00000  Uiso   1.00
C203   C     0.15278   0.50934   0.48472   0.00000  Uiso   1.00
C204   C     0.15931   0.49292   0.43439   0.00000  Uiso   1.00
C205   C     0.18565   0.49635   0.01202   0.00000  Uiso   1.00
C206   C     0.23120   0.47898   0.48513   0.00000  Uiso   1.00
C207   C     0.23576   0.46091   0.43647   0.00000  Uiso   1.00
C208   C     0.19870   0.46547   0.41324   0.00000  Uiso   1.00
C209   C     0.17171   0.49419   0.06578   0.00000  Uiso   1.00
C210   C     0.25721   0.49092   0.06229   0.00000  Uiso   1.00
C211   C     0.12713   0.50499   0.40609   0.00000  Uiso   1.00
C212   C     0.20432   0.64536   0.25920   0.00000  Uiso   1.00
C213   C     0.14090   0.49965   0.34976   0.00000  Uiso   1.00
C214   C     0.20460   0.35454   0.25993   0.00000  Uiso   1.00
C215   C     0.16738   0.37632   0.24776   0.00000  Uiso   1.00
C216   C     0.13063   0.35548   0.23337   0.00000  Uiso   1.00
C217   C     0.13015   0.64619   0.23206   0.00000  Uiso   1.00
C218   C     0.16684   0.62406   0.24633   0.00000  Uiso   1.00
C219   C     0.30043   0.52717   0.28077   0.00000  Uiso   1.00
C220   C     0.01679   0.52752   0.27989   0.00000  Uiso   1.00
C221   C     0.03273   0.47132   0.22204   0.00000  Uiso   1.00
C222   C     0.31701   0.47188   0.22072   0.00000  Uiso   1.00
C223   C     0.16689   0.42080   0.24946   0.00000  Uiso   1.00
C224   C     0.19268   0.49886   0.14977   0.00000  Uiso   1.00
C225   C     0.26861   0.47758   0.00982   0.00000  Uiso   1.00
C226   C     0.20761   0.49500   0.09222   0.00000  Uiso   1.00
C227   C     0.08672   0.53006   0.42965   0.00000  Uiso   1.00
C228   C     0.08049   0.54663   0.47878   0.00000  Uiso   1.00
C229   C     0.11492   0.53910   0.00524   0.00000  Uiso   1.00
Cu230  Cu    0.11978   0.49999   0.25000   0.00000  Uiso   1.00
Cu231  Cu    0.21355   0.50001   0.25000   0.00000  Uiso   1.00
H232   H     0.23352   0.37031   0.27074   0.00000  Uiso   1.00
H233   H     0.10246   0.37245   0.22259   0.00000  Uiso   1.00
H234   H     0.02922   0.54934   0.30395   0.00000  Uiso   1.00
H235   H     0.05768   0.44781   0.20073   0.00000  Uiso   1.00
H236   H     0.26629   0.44122   0.41723   0.00000  Uiso   1.00
H237   H     0.06206   0.53987   0.40829   0.00000  Uiso   1.00
H238   H     0.05091   0.56840   0.49422   0.00000  Uiso   1.00
H239   H     0.20211   0.44811   0.37786   0.00000  Uiso   1.00
H240   H     0.23325   0.62925   0.26940   0.00000  Uiso   1.00
N241   N     0.04931   0.49999   0.24999   0.00000  Uiso   1.00
N242   N     0.28402   0.50002   0.25000   0.00000  Uiso   1.00
O243   O     0.12708   0.56011   0.25001   0.00000  Uiso   1.00
O244   O     0.20627   0.56012   0.25001   0.00000  Uiso   1.00
O245   O     0.10775   0.49998   0.32549   0.00000  Uiso   1.00
O246   O     0.18694   0.49999   0.32549   0.00000  Uiso   1.00
O247   O     0.12706   0.43988   0.25000   0.00000  Uiso   1.00
O248   O     0.20625   0.43989   0.25000   0.00000  Uiso   1.00
O249   O     0.14640   0.50001   0.17451   0.00000  Uiso   1.00
O250   O     0.22559   0.50002   0.17451   0.00000  Uiso   1.00
C251   C     0.29619   0.50218   0.08377   0.00000  Uiso   1.00
N252   N     0.32726   0.51179   0.10081   0.00000  Uiso   1.00
C253   C     0.09235   0.62665   0.21458   0.00000  Uiso   1.00
N254   N     0.06206   0.61113   0.20054   0.00000  Uiso   1.00
C255   C     0.26733   0.55475   0.31644   0.00000  Uiso   1.00
N256   N     0.24094   0.57685   0.34557   0.00000  Uiso   1.00
C257   C     0.30272   0.44207   0.18807   0.00000  Uiso   1.00
N258   N     0.29164   0.41800   0.16157   0.00000  Uiso   1.00
C259   C     0.31899   0.46334   0.48141   0.00000  Uiso   1.00
O260   O     0.01015   0.44469   0.00417   0.00000  Uiso   1.00
O261   O     0.00503   0.47092   0.42872   0.00000  Uiso   1.00
H262   H     0.03806   0.45732   0.41335   0.00000  Uiso   1.00
C263   C     0.12208   0.48173   0.09009   0.00000  Uiso   1.00
N264   N     0.08244   0.47123   0.10796   0.00000  Uiso   1.00
C265   C     0.11335   0.56668   0.05037   0.00000  Uiso   1.00
O266   O     0.07430   0.57489   0.08193   0.00000  Uiso   1.00
O267   O     0.15553   0.58476   0.05665   0.00000  Uiso   1.00
H268   H     0.18532   0.57963   0.02611   0.00000  Uiso   1.00
C269   C     0.50018   0.57928   0.24853   0.00000  Uiso   1.00
C270   C     0.48612   0.50934   0.48472   0.00000  Uiso   1.00
C271   C     0.49264   0.49292   0.43439   0.00000  Uiso   1.00
C272   C     0.51898   0.49635   0.01202   0.00000  Uiso   1.00
C273   C     0.56454   0.47898   0.48513   0.00000  Uiso   1.00
C274   C     0.56910   0.46091   0.43647   0.00000  Uiso   1.00
C275   C     0.53203   0.46547   0.41324   0.00000  Uiso   1.00
C276   C     0.50505   0.49419   0.06578   0.00000  Uiso   1.00
C277   C     0.59054   0.49092   0.06229   0.00000  Uiso   1.00
C278   C     0.46047   0.50499   0.40609   0.00000  Uiso   1.00
C279   C     0.53765   0.64536   0.25920   0.00000  Uiso   1.00
C280   C     0.47423   0.49965   0.34976   0.00000  Uiso   1.00
C281   C     0.53794   0.35454   0.25993   0.00000  Uiso   1.00
C282   C     0.50072   0.37632   0.24776   0.00000  Uiso   1.00
C283   C     0.46396   0.35548   0.23337   0.00000  Uiso   1.00
C284   C     0.46349   0.64619   0.23206   0.00000  Uiso   1.00
C285   C     0.50018   0.62406   0.24633   0.00000  Uiso   1.00
C286   C     0.63376   0.52717   0.28077   0.00000  Uiso   1.00
C287   C     0.35012   0.52752   0.27989   0.00000  Uiso   1.00
C288   C     0.36607   0.47132   0.22204   0.00000  Uiso   1.00
C289   C     0.65034   0.47188   0.22072   0.00000  Uiso   1.00
C290   C     0.50023   0.42080   0.24946   0.00000  Uiso   1.00
C291   C     0.52602   0.49886   0.14977   0.00000  Uiso   1.00
C292   C     0.60194   0.47758   0.00982   0.00000  Uiso   1.00
C293   C     0.54095   0.49500   0.09222   0.00000  Uiso   1.00
C294   C     0.42005   0.53006   0.42965   0.00000  Uiso   1.00
C295   C     0.41383   0.54663   0.47878   0.00000  Uiso   1.00
C296   C     0.44826   0.53910   0.00524   0.00000  Uiso   1.00
Cu297  Cu    0.45311   0.49999   0.25000   0.00000  Uiso   1.00
Cu298  Cu    0.54689   0.50001   0.25000   0.00000  Uiso   1.00
H299   H     0.56686   0.37031   0.27074   0.00000  Uiso   1.00
H300   H     0.43580   0.37245   0.22259   0.00000  Uiso   1.00
H301   H     0.36255   0.54934   0.30395   0.00000  Uiso   1.00
H302   H     0.39101   0.44781   0.20073   0.00000  Uiso   1.00
H303   H     0.59962   0.44122   0.41723   0.00000  Uiso   1.00
H304   H     0.39540   0.53987   0.40829   0.00000  Uiso   1.00
H305   H     0.38424   0.56840   0.49422   0.00000  Uiso   1.00
H306   H     0.53545   0.44811   0.37786   0.00000  Uiso   1.00
H307   H     0.56658   0.62925   0.26940   0.00000  Uiso   1.00
N308   N     0.38265   0.49999   0.24999   0.00000  Uiso   1.00
N309   N     0.61735   0.50002   0.25000   0.00000  Uiso   1.00
O310   O     0.46042   0.56011   0.25001   0.00000  Uiso   1.00
O311   O     0.53961   0.56012   0.25001   0.00000  Uiso   1.00
O312   O     0.44108   0.49998   0.32549   0.00000  Uiso   1.00
O313   O     0.52027   0.49999   0.32549   0.00000  Uiso   1.00
O314   O     0.46039   0.43988   0.25000   0.00000  Uiso   1.00
O315   O     0.53958   0.43989   0.25000   0.00000  Uiso   1.00
O316   O     0.47973   0.50001   0.17451   0.00000  Uiso   1.00
O317   O     0.55892   0.50002   0.17451   0.00000  Uiso   1.00
C318   C     0.62953   0.50218   0.08377   0.00000  Uiso   1.00
N319   N     0.66059   0.51179   0.10081   0.00000  Uiso   1.00
C320   C     0.42568   0.62665   0.21458   0.00000  Uiso   1.00
N321   N     0.39539   0.61113   0.20054   0.00000  Uiso   1.00
C322   C     0.60066   0.55475   0.31644   0.00000  Uiso   1.00
N323   N     0.57428   0.57685   0.34557   0.00000  Uiso   1.00
C324   C     0.63605   0.44207   0.18807   0.00000  Uiso   1.00
N325   N     0.62498   0.41800   0.16157   0.00000  Uiso   1.00
C326   C     0.65232   0.46334   0.48141   0.00000  Uiso   1.00
O327   O     0.34348   0.44469   0.00417   0.00000  Uiso   1.00
O328   O     0.33836   0.47092   0.42872   0.00000  Uiso   1.00
H329   H     0.37140   0.45732   0.41335   0.00000  Uiso   1.00
C330   C     0.45541   0.48173   0.09009   0.00000  Uiso   1.00
N331   N     0.41578   0.47123   0.10796   0.00000  Uiso   1.00
C332   C     0.44669   0.56668   0.05037   0.00000  Uiso   1.00
O333   O     0.40763   0.57489   0.08193   0.00000  Uiso   1.00
O334   O     0.48886   0.58476   0.05665   0.00000  Uiso   1.00
H335   H     0.51865   0.57963   0.02611   0.00000  Uiso   1.00
C336   C     0.83351   0.57928   0.24853   0.00000  Uiso   1.00
C337   C     0.81945   0.50934   0.48472   0.00000  Uiso   1.00
C338   C     0.82598   0.49292   0.43439   0.00000  Uiso   1.00
C339   C     0.85232   0.49635   0.01202   0.00000  Uiso   1.00
C340   C     0.89787   0.47898   0.48513   0.00000  Uiso   1.00
C341   C     0.90243   0.46091   0.43647   0.00000  Uiso   1.00
C342   C     0.86536   0.46547   0.41324   0.00000  Uiso   1.00
C343   C     0.83838   0.49419   0.06578   0.00000  Uiso   1.00
C344   C     0.92387   0.49092   0.06229   0.00000  Uiso   1.00
C345   C     0.79380   0.50499   0.40609   0.00000  Uiso   1.00
C346   C     0.87099   0.64536   0.25920   0.00000  Uiso   1.00
C347   C     0.80757   0.49965   0.34976   0.00000  Uiso   1.00
C348   C     0.87127   0.35454   0.25993   0.00000  Uiso   1.00
C349   C     0.83405   0.37632   0.24776   0.00000  Uiso   1.00
C350   C     0.79729   0.35548   0.23337   0.00000  Uiso   1.00
C351   C     0.79682   0.64619   0.23206   0.00000  Uiso   1.00
C352   C     0.83351   0.62406   0.24633   0.00000  Uiso   1.00
C353   C     0.96710   0.52717   0.28077   0.00000  Uiso   1.00
C354   C     0.68346   0.52752   0.27989   0.00000  Uiso   1.00
C355   C     0.69940   0.47132   0.22204   0.00000  Uiso   1.00
C356   C     0.98368   0.47188   0.22072   0.00000  Uiso   1.00
C357   C     0.83356   0.42080   0.24946   0.00000  Uiso   1.00
C358   C     0.85935   0.49886   0.14977   0.00000  Uiso   1.00
C359   C     0.93527   0.47758   0.00982   0.00000  Uiso   1.00
C360   C     0.87428   0.49500   0.09222   0.00000  Uiso   1.00
C361   C     0.75339   0.53006   0.42965   0.00000  Uiso   1.00
C362   C     0.74716   0.54663   0.47878   0.00000  Uiso   1.00
C363   C     0.78159   0.53910   0.00524   0.00000  Uiso   1.00
Cu364  Cu    0.78645   0.49999   0.25000   0.00000  Uiso   1.00
Cu365  Cu    0.88022   0.50001   0.25000   0.00000  Uiso   1.00
H366   H     0.90019   0.37031   0.27074   0.00000  Uiso   1.00
H367   H     0.76913   0.37245   0.22259   0.00000  Uiso   1.00
H368   H     0.69588   0.54934   0.30395   0.00000  Uiso   1.00
H369   H     0.72435   0.44781   0.20073   0.00000  Uiso   1.00
H370   H     0.93295   0.44122   0.41723   0.00000  Uiso   1.00
H371   H     0.72873   0.53987   0.40829   0.00000  Uiso   1.00
H372   H     0.71757   0.56840   0.49422   0.00000  Uiso   1.00
H373   H     0.86878   0.44811   0.37786   0.00000  Uiso   1.00
H374   H     0.89992   0.62925   0.26940   0.00000  Uiso   1.00
N375   N     0.71598   0.49999   0.24999   0.00000  Uiso   1.00
N376   N     0.95069   0.50002   0.25000   0.00000  Uiso   1.00
O377   O     0.79375   0.56011   0.25001   0.00000  Uiso   1.00
O378   O     0.87294   0.56012   0.25001   0.00000  Uiso   1.00
O379   O     0.77441   0.49998   0.32549   0.00000  Uiso   1.00
O380   O     0.85360   0.49999   0.32549   0.00000  Uiso   1.00
O381   O     0.79373   0.43988   0.25000   0.00000  Uiso   1.00
O382   O     0.87292   0.43989   0.25000   0.00000  Uiso   1.00
O383   O     0.81306   0.50001   0.17451   0.00000  Uiso   1.00
O384   O     0.89225   0.50002   0.17451   0.00000  Uiso   1.00
C385   C     0.96286   0.50218   0.08377   0.00000  Uiso   1.00
N386   N     0.99392   0.51179   0.10081   0.00000  Uiso   1.00
C387   C     0.75901   0.62665   0.21458   0.00000  Uiso   1.00
N388   N     0.72872   0.61113   0.20054   0.00000  Uiso   1.00
C389   C     0.93400   0.55475   0.31644   0.00000  Uiso   1.00
N390   N     0.90761   0.57685   0.34557   0.00000  Uiso   1.00
C391   C     0.96939   0.44207   0.18807   0.00000  Uiso   1.00
N392   N     0.95831   0.41800   0.16157   0.00000  Uiso   1.00
C393   C     0.98565   0.46334   0.48141   0.00000  Uiso   1.00
O394   O     0.67682   0.44469   0.00417   0.00000  Uiso   1.00
O395   O     0.67170   0.47092   0.42872   0.00000  Uiso   1.00
H396   H     0.70473   0.45732   0.41335   0.00000  Uiso   1.00
C397   C     0.78875   0.48173   0.09009   0.00000  Uiso   1.00
N398   N     0.74911   0.47123   0.10796   0.00000  Uiso   1.00
C399   C     0.78002   0.56668   0.05037   0.00000  Uiso   1.00
O400   O     0.74096   0.57489   0.08193   0.00000  Uiso   1.00
O401   O     0.82220   0.58476   0.05665   0.00000  Uiso   1.00
H402   H     0.85199   0.57963   0.02611   0.00000  Uiso   1.00
C403   C     0.16685   0.91261   0.24853   0.00000  Uiso   1.00
C404   C     0.15278   0.84267   0.48472   0.00000  Uiso   1.00
C405   C     0.15931   0.82625   0.43439   0.00000  Uiso   1.00
C406   C     0.18565   0.82969   0.01202   0.00000  Uiso   1.00
C407   C     0.23120   0.81232   0.48513   0.00000  Uiso   1.00
C408   C     0.23576   0.79424   0.43647   0.00000  Uiso   1.00
C409   C     0.19870   0.79881   0.41324   0.00000  Uiso   1.00
C410   C     0.17171   0.82753   0.06578   0.00000  Uiso   1.00
C411   C     0.25721   0.82426   0.06229   0.00000  Uiso   1.00
C412   C     0.12713   0.83833   0.40609   0.00000  Uiso   1.00
C413   C     0.20432   0.97869   0.25920   0.00000  Uiso   1.00
C414   C     0.14090   0.83299   0.34976   0.00000  Uiso   1.00
C415   C     0.20460   0.68787   0.25993   0.00000  Uiso   1.00
C416   C     0.16738   0.70965   0.24776   0.00000  Uiso   1.00
C417   C     0.13063   0.68882   0.23337   0.00000  Uiso   1.00
C418   C     0.13015   0.97952   0.23206   0.00000  Uiso   1.00
C419   C     0.16684   0.95739   0.24633   0.00000  Uiso   1.00
C420   C     0.30043   0.86050   0.28077   0.00000  Uiso   1.00
C421   C     0.01679   0.86085   0.27989   0.00000  Uiso   1.00
C422   C     0.03273   0.80465   0.22204   0.00000  Uiso   1.00
C423   C     0.31701   0.80522   0.22072   0.00000  Uiso   1.00
C424   C     0.16689   0.75414   0.24946   0.00000  Uiso   1.00
C425   C     0.19268   0.83219   0.14977   0.00000  Uiso   1.00
C426   C     0.26861   0.81092   0.00982   0.00000  Uiso   1.00
C427   C     0.20761   0.82833   0.09222   0.00000  Uiso   1.00
C428   C     0.08672   0.86339   0.42965   0.00000  Uiso   1.00
C429   C     0.08049   0.87996   0.47878   0.00000  Uiso   1.00
C430   C     0.11492   0.87243   0.00524   0.00000  Uiso   1.00
Cu431  Cu    0.11978   0.83333   0.25000   0.00000  Uiso   1.00
Cu432  Cu    0.21355   0.83334   0.25000   0.00000  Uiso   1.00
H433   H     0.23352   0.70364   0.27074   0.00000  Uiso   1.00
H434   H     0.10246   0.70578   0.22259   0.00000  Uiso   1.00
H435   H     0.02922   0.88267   0.30395   0.00000  Uiso   1.00
H436   H     0.05768   0.78114   0.20073   0.00000  Uiso   1.00
H437   H     0.26629   0.77456   0.41723   0.00000  Uiso   1.00
H438   H     0.06206   0.87320   0.40829   0.00000  Uiso   1.00
H439   H     0.05091   0.90173   0.49422   0.00000  Uiso   1.00
H440   H     0.20211   0.78144   0.37786   0.00000  Uiso   1.00
H441   H     0.23325   0.96258   0.26940   0.00000  Uiso   1.00
N442   N     0.04931   0.83332   0.24999   0.00000  Uiso   1.00
N443   N     0.28402   0.83335   0.25000   0.00000  Uiso   1.00
O444   O     0.12708   0.89345   0.25001   0.00000  Uiso   1.00
O445   O     0.20627   0.89346   0.25001   0.00000  Uiso   1.00
O446   O     0.10775   0.83332   0.32549   0.00000  Uiso   1.00
O447   O     0.18694   0.83333   0.32549   0.00000  Uiso   1.00
O448   O     0.12706   0.77321   0.25000   0.00000  Uiso   1.00
O449   O     0.20625   0.77322   0.25000   0.00000  Uiso   1.00
O450   O     0.14640   0.83334   0.17451   0.00000  Uiso   1.00
O451   O     0.22559   0.83335   0.17451   0.00000  Uiso   1.00
C452   C     0.29619   0.83551   0.08377   0.00000  Uiso   1.00
N453   N     0.32726   0.84512   0.10081   0.00000  Uiso   1.00
C454   C     0.09235   0.95998   0.21458   0.00000  Uiso   1.00
N455   N     0.06206   0.94446   0.20054   0.00000  Uiso   1.00
C456   C     0.26733   0.88808   0.31644   0.00000  Uiso   1.00
N457   N     0.24094   0.91018   0.34557   0.00000  Uiso   1.00
C458   C     0.30272   0.77541   0.18807   0.00000  Uiso   1.00
N459   N     0.29164   0.75134   0.16157   0.00000  Uiso   1.00
C460   C     0.31899   0.79667   0.48141   0.00000  Uiso   1.00
O461   O     0.01015   0.77803   0.00417   0.00000  Uiso   1.00
O462   O     0.00503   0.80426   0.42872   0.00000  Uiso   1.00
H463   H     0.03806   0.79066   0.41335   0.00000  Uiso   1.00
C464   C     0.12208   0.81506   0.09009   0.00000  Uiso   1.00
N465   N     0.08244   0.80457   0.10796   0.00000  Uiso   1.00
C466   C     0.11335   0.90001   0.05037   0.00000  Uiso   1.00
O467   O     0.07430   0.90822   0.08193   0.00000  Uiso   1.00
O468   O     0.15553   0.91809   0.05665   0.00000  Uiso   1.00
H469   H     0.18532   0.91296   0.02611   0.00000  Uiso   1.00
C470   C     0.50018   0.91261   0.24853   0.00000  Uiso   1.00
C471   C     0.48612   0.84267   0.48472   0.00000  Uiso   1.00
C472   C     0.49264   0.82625   0.43439   0.00000  Uiso   1.00
C473   C     0.51898   0.82969   0.01202   0.00000  Uiso   1.00
C474   C     0.56454   0.81232   0.48513   0.00000  Uiso   1.00
C475   C     0.56910   0.79424   0.43647   0.00000  Uiso   1.00
C476   C     0.53203   0.79881   0.41324   0.00000  Uiso   1.00
C477   C     0.50505   0.82753   0.06578   0.00000  Uiso   1.00
C478   C     0.59054   0.82426   0.06229   0.00000  Uiso   1.00
C479   C     0.46047   0.83833   0.40609   0.00000  Uiso   1.00
C480   C     0.53765   0.97869   0.25920   0.00000  Uiso   1.00
C481   C     0.47423   0.83299   0.34976   0.00000  Uiso   1.00
C482   C     0.53794   0.68787   0.25993   0.00000  Uiso   1.00
C483   C     0.50072   0.70965   0.24776   0.00000  Uiso   1.00
C484   C     0.46396   0.68882   0.23337   0.00000  Uiso   1.00
C485   C     0.46349   0.97952   0.23206   0.00000  Uiso   1.00
C486   C     0.50018   0.95739   0.24633   0.00000  Uiso   1.00
C487   C     0.63376   0.86050   0.28077   0.00000  Uiso   1.00
C488   C     0.35012   0.86085   0.27989   0.00000  Uiso   1.00
C489   C     0.36607   0.80465   0.22204   0.00000  Uiso   1.00
C490   C     0.65034   0.80522   0.22072   0.00000  Uiso   1.00
C491   C     0.50023   0.75414   0.24946   0.00000  Uiso   1.00
C492   C     0.52602   0.83219   0.14977   0.00000  Uiso   1.00
C493   C     0.60194   0.81092   0.00982   0.00000  Uiso   1.00
C494   C     0.54095   0.82833   0.09222   0.00000  Uiso   1.00
C495   C     0.42005   0.86339   0.42965   0.00000  Uiso   1.00
C496   C     0.41383   0.87996   0.47878   0.00000  Uiso   1.00
C497   C     0.44826   0.87243   0.00524   0.00000  Uiso   1.00
Cu498  Cu    0.45311   0.83333   0.25000   0.00000  Uiso   1.00
Cu499  Cu    0.54689   0.83334   0.25000   0.00000  Uiso   1.00
H500   H     0.56686   0.70364   0.27074   0.00000  Uiso   1.00
H501   H     0.43580   0.70578   0.22259   0.00000  Uiso   1.00
H502   H     0.36255   0.88267   0.30395   0.00000  Uiso   1.00
H503   H     0.39101   0.78114   0.20073   0.00000  Uiso   1.00
H504   H     0.59962   0.77456   0.41723   0.00000  Uiso   1.00
H505   H     0.39540   0.87320   0.40829   0.00000  Uiso   1.00
H506   H     0.38424   0.90173   0.49422   0.00000  Uiso   1.00
H507   H     0.53545   0.78144   0.37786   0.00000  Uiso   1.00
H508   H     0.56658   0.96258   0.26940   0.00000  Uiso   1.00
N509   N     0.38265   0.83332   0.24999   0.00000  Uiso   1.00
N510   N     0.61735   0.83335   0.25000   0.00000  Uiso   1.00
O511   O     0.46042   0.89345   0.25001   0.00000  Uiso   1.00
O512   O     0.53961   0.89346   0.25001   0.00000  Uiso   1.00
O513   O     0.44108   0.83332   0.32549   0.00000  Uiso   1.00
O514   O     0.52027   0.83333   0.32549   0.00000  Uiso   1.00
O515   O     0.46039   0.77321   0.25000   0.00000  Uiso   1.00
O516   O     0.53958   0.77322   0.25000   0.00000  Uiso   1.00
O517   O     0.47973   0.83334   0.17451   0.00000  Uiso   1.00
O518   O     0.55892   0.83335   0.17451   0.00000  Uiso   1.00
C519   C     0.62953   0.83551   0.08377   0.00000  Uiso   1.00
N520   N     0.66059   0.84512   0.10081   0.00000  Uiso   1.00
C521   C     0.42568   0.95998   0.21458   0.00000  Uiso   1.00
N522   N     0.39539   0.94446   0.20054   0.00000  Uiso   1.00
C523   C     0.60066   0.88808   0.31644   0.00000  Uiso   1.00
N524   N     0.57428   0.91018   0.34557   0.00000  Uiso   1.00
C525   C     0.63605   0.77541   0.18807   0.00000  Uiso   1.00
N526   N     0.62498   0.75134   0.16157   0.00000  Uiso   1.00
C527   C     0.65232   0.79667   0.48141   0.00000  Uiso   1.00
O528   O     0.34348   0.77803   0.00417   0.00000  Uiso   1.00
O529   O     0.33836   0.80426   0.42872   0.00000  Uiso   1.00
H530   H     0.37140   0.79066   0.41335   0.00000  Uiso   1.00
C531   C     0.45541   0.81506   0.09009   0.00000  Uiso   1.00
N532   N     0.41578   0.80457   0.10796   0.00000  Uiso   1.00
C533   C     0.44669   0.90001   0.05037   0.00000  Uiso   1.00
O534   O     0.40763   0.90822   0.08193   0.00000  Uiso   1.00
O535   O     0.48886   0.91809   0.05665   0.00000  Uiso   1.00
H536   H     0.51865   0.91296   0.02611   0.00000  Uiso   1.00
C537   C     0.83351   0.91261   0.24853   0.00000  Uiso   1.00
C538   C     0.81945   0.84267   0.48472   0.00000  Uiso   1.00
C539   C     0.82598   0.82625   0.43439   0.00000  Uiso   1.00
C540   C     0.85232   0.82969   0.01202   0.00000  Uiso   1.00
C541   C     0.89787   0.81232   0.48513   0.00000  Uiso   1.00
C542   C     0.90243   0.79424   0.43647   0.00000  Uiso   1.00
C543   C     0.86536   0.79881   0.41324   0.00000  Uiso   1.00
C544   C     0.83838   0.82753   0.06578   0.00000  Uiso   1.00
C545   C     0.92387   0.82426   0.06229   0.00000  Uiso   1.00
C546   C     0.79380   0.83833   0.40609   0.00000  Uiso   1.00
C547   C     0.87099   0.97869   0.25920   0.00000  Uiso   1.00
C548   C     0.80757   0.83299   0.34976   0.00000  Uiso   1.00
C549   C     0.87127   0.68787   0.25993   0.00000  Uiso   1.00
C550   C     0.83405   0.70965   0.24776   0.00000  Uiso   1.00
C551   C     0.79729   0.68882   0.23337   0.00000  Uiso   1.00
C552   C     0.79682   0.97952   0.23206   0.00000  Uiso   1.00
C553   C     0.83351   0.95739   0.24633   0.00000  Uiso   1.00
C554   C     0.96710   0.86050   0.28077   0.00000  Uiso   1.00
C555   C     0.68346   0.86085   0.27989   0.00000  Uiso   1.00
C556   C     0.69940   0.80465   0.22204   0.00000  Uiso   1.00
C557   C     0.98368   0.80522   0.22072   0.00000  Uiso   1.00
C558   C     0.83356   0.75414   0.24946   0.00000  Uiso   1.00
C559   C     0.85935   0.83219   0.14977   0.00000  Uiso   1.00
C560   C     0.93527   0.81092   0.00982   0.00000  Uiso   1.00
C561   C     0.87428   0.82833   0.09222   0.00000  Uiso   1.00
C562   C     0.75339   0.86339   0.42965   0.00000  Uiso   1.00
C563   C     0.74716   0.87996   0.47878   0.00000  Uiso   1.00
C564   C     0.78159   0.87243   0.00524   0.00000  Uiso   1.00
Cu565  Cu    0.78645   0.83333   0.25000   0.00000  Uiso   1.00
Cu566  Cu    0.88022   0.83334   0.25000   0.00000  Uiso   1.00
H567   H     0.90019   0.70364   0.27074   0.00000  Uiso   1.00
H568   H     0.76913   0.70578   0.22259   0.00000  Uiso   1.00
H569   H     0.69588   0.88267   0.30395   0.00000  Uiso   1.00
H570   H     0.72435   0.78114   0.20073   0.00000  Uiso   1.00
H571   H     0.93295   0.77456   0.41723   0.00000  Uiso   1.00
H572   H     0.72873   0.87320   0.40829   0.00000  Uiso   1.00
H573   H     0.71757   0.90173   0.49422   0.00000  Uiso   1.00
H574   H     0.86878   0.78144   0.37786   0.00000  Uiso   1.00
H575   H     0.89992   0.96258   0.26940   0.00000  Uiso   1.00
N576   N     0.71598   0.83332   0.24999   0.00000  Uiso   1.00
N577   N     0.95069   0.83335   0.25000   0.00000  Uiso   1.00
O578   O     0.79375   0.89345   0.25001   0.00000  Uiso   1.00
O579   O     0.87294   0.89346   0.25001   0.00000  Uiso   1.00
O580   O     0.77441   0.83332   0.32549   0.00000  Uiso   1.00
O581   O     0.85360   0.83333   0.32549   0.00000  Uiso   1.00
O582   O     0.79373   0.77321   0.25000   0.00000  Uiso   1.00
O583   O     0.87292   0.77322   0.25000   0.00000  Uiso   1.00
O584   O     0.81306   0.83334   0.17451   0.00000  Uiso   1.00
O585   O     0.89225   0.83335   0.17451   0.00000  Uiso   1.00
C586   C     0.96286   0.83551   0.08377   0.00000  Uiso   1.00
N587   N     0.99392   0.84512   0.10081   0.00000  Uiso   1.00
C588   C     0.75901   0.95998   0.21458   0.00000  Uiso   1.00
N589   N     0.72872   0.94446   0.20054   0.00000  Uiso   1.00
C590   C     0.93400   0.88808   0.31644   0.00000  Uiso   1.00
N591   N     0.90761   0.91018   0.34557   0.00000  Uiso   1.00
C592   C     0.96939   0.77541   0.18807   0.00000  Uiso   1.00
N593   N     0.95831   0.75134   0.16157   0.00000  Uiso   1.00
C594   C     0.98565   0.79667   0.48141   0.00000  Uiso   1.00
O595   O     0.67682   0.77803   0.00417   0.00000  Uiso   1.00
O596   O     0.67170   0.80426   0.42872   0.00000  Uiso   1.00
H597   H     0.70473   0.79066   0.41335   0.00000  Uiso   1.00
C598   C     0.78875   0.81506   0.09009   0.00000  Uiso   1.00
N599   N     0.74911   0.80457   0.10796   0.00000  Uiso   1.00
C600   C     0.78002   0.90001   0.05037   0.00000  Uiso   1.00
O601   O     0.74096   0.90822   0.08193   0.00000  Uiso   1.00
O602   O     0.82220   0.91809   0.05665   0.00000  Uiso   1.00
H603   H     0.85199   0.91296   0.02611   0.00000  Uiso   1.00
C604   C     0.16685   0.24594   0.74853   0.00000  Uiso   1.00
C605   C     0.15278   0.17601   0.98472   0.00000  Uiso   1.00
C606   C     0.15931   0.15958   0.93439   0.00000  Uiso   1.00
C607   C     0.18565   0.16302   0.51202   0.00000  Uiso   1.00
C608   C     0.23120   0.14565   0.98513   0.00000  Uiso   1.00
C609   C     0.23576   0.12758   0.93647   0.00000  Uiso   1.00
C610   C     0.19870   0.13214   0.91324   0.00000  Uiso   1.00
C611   C     0.17171   0.16086   0.56578   0.00000  Uiso   1.00
C612   C     0.25721   0.15759   0.56229   0.00000  Uiso   1.00
C613   C     0.12713   0.17166   0.90609   0.00000  Uiso   1.00
C614   C     0.20432   0.31202   0.75920   0.00000  Uiso   1.00
C615   C     0.14090   0.16632   0.84976   0.00000  Uiso   1.00
C616   C     0.20460   0.02120   0.75993   0.00000  Uiso   1.00
C617   C     0.16738   0.04298   0.74776   0.00000  Uiso   1.00
C618   C     0.13063   0.02215   0.73337   0.00000  Uiso   1.00
C619   C     0.13015   0.31286   0.73206   0.00000  Uiso   1.00
C620   C     0.16684   0.29072   0.74633   0.00000  Uiso   1.00
C621   C     0.30043   0.19383   0.78077   0.00000  Uiso   1.00
C622   C     0.01679   0.19418   0.77989   0.00000  Uiso   1.00
C623   C     0.03273   0.13798   0.72204   0.00000  Uiso   1.00
C624   C     0.31701   0.13855   0.72072   0.00000  Uiso   1.00
C625   C     0.16689   0.08747   0.74946   0.00000  Uiso   1.00
C626   C     0.19268   0.16552   0.64977   0.00000  Uiso   1.00
C627   C     0.26861   0.14425   0.50982   0.00000  Uiso   1.00
C628   C     0.20761   0.16166   0.59222   0.00000  Uiso   1.00
C629   C     0.08672   0.19672   0.92965   0.00000  Uiso   1.00
C630   C     0.08049   0.21329   0.97878   0.00000  Uiso   1.00
C631   C     0.11492   0.20577   0.50524   0.00000  Uiso   1.00
Cu632  Cu    0.11978   0.16666   0.75000   0.00000  Uiso   1.00
Cu633  Cu    0.21355   0.16667   0.75000   0.00000  Uiso   1.00
H634   H     0.23352   0.03697   0.77074   0.00000  Uiso   1.00
H635   H     0.10246   0.03911   0.72259   0.00000  Uiso   1.00
H636   H     0.02922   0.21601   0.80395   0.00000  Uiso   1.00
H637   H     0.05768   0.11448   0.70073   0.00000  Uiso   1.00
H638   H     0.26629   0.10789   0.91723   0.00000  Uiso   1.00
H639   H     0.06206   0.20654   0.90829   0.00000  Uiso   1.00
H640   H     0.05091   0.23506   0.99422   0.00000  Uiso   1.00
H641   H     0.20211   0.11477   0.87786   0.00000  Uiso   1.00
H642   H     0.23325   0.29592   0.76940   0.00000  Uiso   1.00
N643   N     0.04931   0.16666   0.74999   0.00000  Uiso   1.00
N644   N     0.28402   0.16669   0.75000   0.00000  Uiso   1.00
O645   O     0.12708   0.22678   0.75001   0.00000  Uiso   1.00
O646   O     0.20627   0.22679   0.75001   0.00000  Uiso   1.00
O647   O     0.10775   0.16665   0.82549   0.00000  Uiso   1.00
O648   O     0.18694   0.16666   0.82549   0.00000  Uiso   1.00
O649   O     0.12706   0.10654   0.75000   0.00000  Uiso   1.00
O650   O     0.20625   0.10655   0.75000   0.00000  Uiso   1.00
O651   O     0.14640   0.16667   0.67451   0.00000  Uiso   1.00
O652   O     0.22559   0.16668   0.67451   0.00000  Uiso   1.00
C653   C     0.29619   0.16884   0.58377   0.00000  Uiso   1.00
N654   N     0.32726   0.17845   0.60081   0.00000  Uiso   1.00
C655   C     0.09235   0.29331   0.71458   0.00000  Uiso   1.00
N656   N     0.06206   0.27779   0.70054   0.00000  Uiso   1.00
C657   C     0.26733   0.22142   0.81644   0.00000  Uiso   1.00
N658   N     0.24094   0.24351   0.84557   0.00000  Uiso   1.00
C659   C     0.30272   0.10874   0.68807   0.00000  Uiso   1.00
N660   N     0.29164   0.08467   0.66157   0.00000  Uiso   1.00
C661   C     0.31899   0.13000   0.98141   0.00000  Uiso   1.00
O662   O     0.01015   0.11136   0.50417   0.00000  Uiso   1.00
O663   O     0.00503   0.13759   0.92872   0.00000  Uiso   1.00
H664   H     0.03806   0.12399   0.91335   0.00000  Uiso   1.00
C665   C     0.12208   0.14840   0.59009   0.00000  Uiso   1.00
N666   N     0.08244   0.13790   0.60796   0.00000  Uiso   1.00
C667   C     0.11335   0.23334   0.55037   0.00000  Uiso   1.00
O668   O     0.07430   0.24156   0.58193   0.00000  Uiso   1.00
O669   O     0.15553   0.25143   0.55665   0.00000  Uiso   1.00
H670   H     0.18532   0.24629   0.52611   0.00000  Uiso   1.00
C671   C     0.50018   0.24594   0.74853   0.00000  Uiso   1.00
C672   C     0.48612   0.17601   0.98472   0.00000  Uiso   1.00
C673   C     0.49264   0.15958   0.93439   0.00000  Uiso   1.00
C674   C     0.51898   0.16302   0.51202   0.00000  Uiso   1.00
C675   C     0.56454   0.14565   0.98513   0.00000  Uiso   1.00
C676   C     0.56910   0.12758   0.93647   0.00000  Uiso   1.00
C677   C     0.53203   0.13214   0.91324   0.00000  Uiso   1.00
C678   C     0.50505   0.16086   0.56578   0.00000  Uiso   1.00
C679   C     0.59054   0.15759   0.56229   0.00000  Uiso   1.00
C680   C     0.46047   0.17166   0.90609   0.00000  Uiso   1.00
C681   C     0.53765   0.31202   0.75920   0.00000  Uiso   1.00
C682   C     0.47423   0.16632   0.84976   0.00000  Uiso   1.00
C683   C     0.53794   0.02120   0.75993   0.00000  Uiso   1.00
C684   C     0.50072   0.04298   0.74776   0.00000  Uiso   1.00
C685   C     0.46396   0.02215   0.73337   0.00000  Uiso   1.00
C686   C     0.46349   0.31286   0.73206   0.00000  Uiso   1.00
C687   C     0.50018   0.29072   0.74633   0.00000  Uiso   1.00
C688   C     0.63376   0.19383   0.78077   0.00000  Uiso   1.00
C689   C     0.35012   0.19418   0.77989   0.00000  Uiso   1.00
C690   C     0.36607   0.13798   0.72204   0.00000  Uiso   1.00
C691   C     0.65034   0.13855   0.72072   0.00000  Uiso   1.00
C692   C     0.50023   0.08747   0.74946   0.00000  Uiso   1.00
C693   C     0.52602   0.16552   0.64977   0.00000  Uiso   1.00
C694   C     0.60194   0.14425   0.50982   0.00000  Uiso   1.00
C695   C     0.54095   0.16166   0.59222   0.00000  Uiso   1.00
C696   C     0.42005   0.19672   0.92965   0.00000  Uiso   1.00
C697   C     0.41383   0.21329   0.97878   0.00000  Uiso   1.00
C698   C     0.44826   0.20577   0.50524   0.00000  Uiso   1.00
Cu699  Cu    0.45311   0.16666   0.75000   0.00000  Uiso   1.00
Cu700  Cu    0.54689   0.16667   0.75000   0.00000  Uiso   1.00
H701   H     0.56686   0.03697   0.77074   0.00000  Uiso   1.00
H702   H     0.43580   0.03911   0.72259   0.00000  Uiso   1.00
H703   H     0.36255   0.21601   0.80395   0.00000  Uiso   1.00
H704   H     0.39101   0.11448   0.70073   0.00000  Uiso   1.00
H705   H     0.59962   0.10789   0.91723   0.00000  Uiso   1.00
H706   H     0.39540   0.20654   0.90829   0.00000  Uiso   1.00
H707   H     0.38424   0.23506   0.99422   0.00000  Uiso   1.00
H708   H     0.53545   0.11477   0.87786   0.00000  Uiso   1.00
H709   H     0.56658   0.29592   0.76940   0.00000  Uiso   1.00
N710   N     0.38265   0.16666   0.74999   0.00000  Uiso   1.00
N711   N     0.61735   0.16669   0.75000   0.00000  Uiso   1.00
O712   O     0.46042   0.22678   0.75001   0.00000  Uiso   1.00
O713   O     0.53961   0.22679   0.75001   0.00000  Uiso   1.00
O714   O     0.44108   0.16665   0.82549   0.00000  Uiso   1.00
O715   O     0.52027   0.16666   0.82549   0.00000  Uiso   1.00
O716   O     0.46039   0.10654   0.75000   0.00000  Uiso   1.00
O717   O     0.53958   0.10655   0.75000   0.00000  Uiso   1.00
O718   O     0.47973   0.16667   0.67451   0.00000  Uiso   1.00
O719   O     0.55892   0.16668   0.67451   0.00000  Uiso   1.00
C720   C     0.62953   0.16884   0.58377   0.00000  Uiso   1.00
N721   N     0.66059   0.17845   0.60081   0.00000  Uiso   1.00
C722   C     0.42568   0.29331   0.71458   0.00000  Uiso   1.00
N723   N     0.39539   0.27779   0.70054   0.00000  Uiso   1.00
C724   C     0.60066   0.22142   0.81644   0.00000  Uiso   1.00
N725   N     0.57428   0.24351   0.84557   0.00000  Uiso   1.00
C726   C     0.63605   0.10874   0.68807   0.00000  Uiso   1.00
N727   N     0.62498   0.08467   0.66157   0.00000  Uiso   1.00
C728   C     0.65232   0.13000   0.98141   0.00000  Uiso   1.00
O729   O     0.34348   0.11136   0.50417   0.00000  Uiso   1.00
O730   O     0.33836   0.13759   0.92872   0.00000  Uiso   1.00
H731   H     0.37140   0.12399   0.91335   0.00000  Uiso   1.00
C732   C     0.45541   0.14840   0.59009   0.00000  Uiso   1.00
N733   N     0.41578   0.13790   0.60796   0.00000  Uiso   1.00
C734   C     0.44669   0.23334   0.55037   0.00000  Uiso   1.00
O735   O     0.40763   0.24156   0.58193   0.00000  Uiso   1.00
O736   O     0.48886   0.25143   0.55665   0.00000  Uiso   1.00
H737   H     0.51865   0.24629   0.52611   0.00000  Uiso   1.00
C738   C     0.83351   0.24594   0.74853   0.00000  Uiso   1.00
C739   C     0.81945   0.17601   0.98472   0.00000  Uiso   1.00
C740   C     0.82598   0.15958   0.93439   0.00000  Uiso   1.00
C741   C     0.85232   0.16302   0.51202   0.00000  Uiso   1.00
C742   C     0.89787   0.14565   0.98513   0.00000  Uiso   1.00
C743   C     0.90243   0.12758   0.93647   0.00000  Uiso   1.00
C744   C     0.86536   0.13214   0.91324   0.00000  Uiso   1.00
C745   C     0.83838   0.16086   0.56578   0.00000  Uiso   1.00
C746   C     0.92387   0.15759   0.56229   0.00000  Uiso   1.00
C747   C     0.79380   0.17166   0.90609   0.00000  Uiso   1.00
C748   C     0.87099   0.31202   0.75920   0.00000  Uiso   1.00
C749   C     0.80757   0.16632   0.84976   0.00000  Uiso   1.00
C750   C     0.87127   0.02120   0.75993   0.00000  Uiso   1.00
C751   C     0.83405   0.04298   0.74776   0.00000  Uiso   1.00
C752   C     0.79729   0.02215   0.73337   0.00000  Uiso   1.00
C753   C     0.79682   0.31286   0.73206   0.00000  Uiso   1.00
C754   C     0.83351   0.29072   0.74633   0.00000  Uiso   1.00
C755   C     0.96710   0.19383   0.78077   0.00000  Uiso   1.00
C756   C     0.68346   0.19418   0.77989   0.00000  Uiso   1.00
C757   C     0.69940   0.13798   0.72204   0.00000  Uiso   1.00
C758   C     0.98368   0.13855   0.72072   0.00000  Uiso   1.00
C759   C     0.83356   0.08747   0.74946   0.00000  Uiso   1.00
C760   C     0.85935   0.16552   0.64977   0.00000  Uiso   1.00
C761   C     0.93527   0.14425   0.50982   0.00000  Uiso   1.00
C762   C     0.87428   0.16166   0.59222   0.00000  Uiso   1.00
C763   C     0.75339   0.19672   0.92965   0.00000  Uiso   1.00
C764   C     0.74716   0.21329   0.97878   0.00000  Uiso   1.00
C765   C     0.78159   0.20577   0.50524   0.00000  Uiso   1.00
Cu766  Cu    0.78645   0.16666   0.75000   0.00000  Uiso   1.00
Cu767  Cu    0.88022   0.16667   0.75000   0.00000  Uiso   1.00
H768   H     0.90019   0.03697   0.77074   0.00000  Uiso   1.00
H769   H     0.76913   0.03911   0.72259   0.00000  Uiso   1.00
H770   H     0.69588   0.21601   0.80395   0.00000  Uiso   1.00
H771   H     0.72435   0.11448   0.70073   0.00000  Uiso   1.00
H772   H     0.93295   0.10789   0.91723   0.00000  Uiso   1.00
H773   H     0.72873   0.20654   0.90829   0.00000  Uiso   1.00
H774   H     0.71757   0.23506   0.99422   0.00000  Uiso   1.00
H775   H     0.86878   0.11477   0.87786   0.00000  Uiso   1.00
H776   H     0.89992   0.29592   0.76940   0.00000  Uiso   1.00
N777   N     0.71598   0.16666   0.74999   0.00000  Uiso   1.00
N778   N     0.95069   0.16669   0.75000   0.00000  Uiso   1.00
O779   O     0.79375   0.22678   0.75001   0.00000  Uiso   1.00
O780   O     0.87294   0.22679   0.75001   0.00000  Uiso   1.00
O781   O     0.77441   0.16665   0.82549   0.00000  Uiso   1.00
O782   O     0.85360   0.16666   0.82549   0.00000  Uiso   1.00
O783   O     0.79373   0.10654   0.75000   0.00000  Uiso   1.00
O784   O     0.87292   0.10655   0.75000   0.00000  Uiso   1.00
O785   O     0.81306   0.16667   0.67451   0.00000  Uiso   1.00
O786   O     0.89225   0.16668   0.67451   0.00000  Uiso   1.00
C787   C     0.96286   0.16884   0.58377   0.00000  Uiso   1.00
N788   N     0.99392   0.17845   0.60081   0.00000  Uiso   1.00
C789   C     0.75901   0.29331   0.71458   0.00000  Uiso   1.00
N790   N     0.72872   0.27779   0.70054   0.00000  Uiso   1.00
C791   C     0.93400   0.22142   0.81644   0.00000  Uiso   1.00
N792   N     0.90761   0.24351   0.84557   0.00000  Uiso   1.00
C793   C     0.96939   0.10874   0.68807   0.00000  Uiso   1.00
N794   N     0.95831   0.08467   0.66157   0.00000  Uiso   1.00
C795   C     0.98565   0.13000   0.98141   0.00000  Uiso   1.00
O796   O     0.67682   0.11136   0.50417   0.00000  Uiso   1.00
O797   O     0.67170   0.13759   0.92872   0.00000  Uiso   1.00
H798   H     0.70473   0.12399   0.91335   0.00000  Uiso   1.00
C799   C     0.78875   0.14840   0.59009   0.00000  Uiso   1.00
N800   N     0.74911   0.13790   0.60796   0.00000  Uiso   1.00
C801   C     0.78002   0.23334   0.55037   0.00000  Uiso   1.00
O802   O     0.74096   0.24156   0.58193   0.00000  Uiso   1.00
O803   O     0.82220   0.25143   0.55665   0.00000  Uiso   1.00
H804   H     0.85199   0.24629   0.52611   0.00000  Uiso   1.00
C805   C     0.16685   0.57928   0.74853   0.00000  Uiso   1.00
C806   C     0.15278   0.50934   0.98472   0.00000  Uiso   1.00
C807   C     0.15931   0.49292   0.93439   0.00000  Uiso   1.00
C808   C     0.18565   0.49635   0.51202   0.00000  Uiso   1.00
C809   C     0.23120   0.47898   0.98513   0.00000  Uiso   1.00
C810   C     0.23576   0.46091   0.93647   0.00000  Uiso   1.00
C811   C     0.19870   0.46547   0.91324   0.00000  Uiso   1.00
C812   C     0.17171   0.49419   0.56578   0.00000  Uiso   1.00
C813   C     0.25721   0.49092   0.56229   0.00000  Uiso   1.00
C814   C     0.12713   0.50499   0.90609   0.00000  Uiso   1.00
C815   C     0.20432   0.64536   0.75920   0.00000  Uiso   1.00
C816   C     0.14090   0.49965   0.84976   0.00000  Uiso   1.00
C817   C     0.20460   0.35454   0.75993   0.00000  Uiso   1.00
C818   C     0.16738   0.37632   0.74776   0.00000  Uiso   1.00
C819   C     0.13063   0.35548   0.73337   0.00000  Uiso   1.00
C820   C     0.13015   0.64619   0.73206   0.00000  Uiso   1.00
C821   C     0.16684   0.62406   0.74633   0.00000  Uiso   1.00
C822   C     0.30043   0.52717   0.78077   0.00000  Uiso   1.00
C823   C     0.01679   0.52752   0.77989   0.00000  Uiso   1.00
C824   C     0.03273   0.47132   0.72204   0.00000  Uiso   1.00
C825   C     0.31701   0.47188   0.72072   0.00000  Uiso   1.00
C826   C     0.16689   0.42080   0.74946   0.00000  Uiso   1.00
C827   C     0.19268   0.49886   0.64977   0.00000  Uiso   1.00
C828   C     0.26861   0.47758   0.50982   0.00000  Uiso   1.00
C829   C     0.20761   0.49500   0.59222   0.00000  Uiso   1.00
C830   C     0.08672   0.53006   0.92965   0.00000  Uiso   1.00
C831   C     0.08049   0.54663   0.97878   0.00000  Uiso   1.00
C832   C     0.11492   0.53910   0.50524   0.00000  Uiso   1.00
Cu833  Cu    0.11978   0.49999   0.75000   0.00000  Uiso   1.00
Cu834  Cu    0.21355   0.50001   0.75000   0.00000  Uiso   1.00
H835   H     0.23352   0.37031   0.77074   0.00000  Uiso   1.00
H836   H     0.10246   0.37245   0.72259   0.00000  Uiso   1.00
H837   H     0.02922   0.54934   0.80395   0.00000  Uiso   1.00
H838   H     0.05768   0.44781   0.70073   0.00000  Uiso   1.00
H839   H     0.26629   0.44122   0.91723   0.00000  Uiso   1.00
H840   H     0.06206   0.53987   0.90829   0.00000  Uiso   1.00
H841   H     0.05091   0.56840   0.99422   0.00000  Uiso   1.00
H842   H     0.20211   0.44811   0.87786   0.00000  Uiso   1.00
H843   H     0.23325   0.62925   0.76940   0.00000  Uiso   1.00
N844   N     0.04931   0.49999   0.74999   0.00000  Uiso   1.00
N845   N     0.28402   0.50002   0.75000   0.00000  Uiso   1.00
O846   O     0.12708   0.56011   0.75001   0.00000  Uiso   1.00
O847   O     0.20627   0.56012   0.75001   0.00000  Uiso   1.00
O848   O     0.10775   0.49998   0.82549   0.00000  Uiso   1.00
O849   O     0.18694   0.49999   0.82549   0.00000  Uiso   1.00
O850   O     0.12706   0.43988   0.75000   0.00000  Uiso   1.00
O851   O     0.20625   0.43989   0.75000   0.00000  Uiso   1.00
O852   O     0.14640   0.50001   0.67451   0.00000  Uiso   1.00
O853   O     0.22559   0.50002   0.67451   0.00000  Uiso   1.00
C854   C     0.29619   0.50218   0.58377   0.00000  Uiso   1.00
N855   N     0.32726   0.51179   0.60081   0.00000  Uiso   1.00
C856   C     0.09235   0.62665   0.71458   0.00000  Uiso   1.00
N857   N     0.06206   0.61113   0.70054   0.00000  Uiso   1.00
C858   C     0.26733   0.55475   0.81644   0.00000  Uiso   1.00
N859   N     0.24094   0.57685   0.84557   0.00000  Uiso   1.00
C860   C     0.30272   0.44207   0.68807   0.00000  Uiso   1.00
N861   N     0.29164   0.41800   0.66157   0.00000  Uiso   1.00
C862   C     0.31899   0.46334   0.98141   0.00000  Uiso   1.00
O863   O     0.01015   0.44469   0.50417   0.00000  Uiso   1.00
O864   O     0.00503   0.47092   0.92872   0.00000  Uiso   1.00
H865   H     0.03806   0.45732   0.91335   0.00000  Uiso   1.00
C866   C     0.12208   0.48173   0.59009   0.00000  Uiso   1.00
N867   N     0.08244   0.47123   0.60796   0.00000  Uiso   1.00
C868   C     0.11335   0.56668   0.55037   0.00000  Uiso   1.00
O869   O     0.07430   0.57489   0.58193   0.00000  Uiso   1.00
O870   O     0.15553   0.58476   0.55665   0.00000  Uiso   1.00
H871   H     0.18532   0.57963   0.52611   0.00000  Uiso   1.00
C872   C     0.50018   0.57928   0.74853   0.00000  Uiso   1.00
C873   C     0.48612   0.50934   0.98472   0.00000  Uiso   1.00
C874   C     0.49264   0.49292   0.93439   0.00000  Uiso   1.00
C875   C     0.51898   0.49635   0.51202   0.00000  Uiso   1.00
C876   C     0.56454   0.47898   0.98513   0.00000  Uiso   1.00
C877   C     0.56910   0.46091   0.93647   0.00000  Uiso   1.00
C878   C     0.53203   0.46547   0.91324   0.00000  Uiso   1.00
C879   C     0.50505   0.49419   0.56578   0.00000  Uiso   1.00
C880   C     0.59054   0.49092   0.56229   0.00000  Uiso   1.00
C881   C     0.46047   0.50499   0.90609   0.00000  Uiso   1.00
C882   C     0.53765   0.64536   0.75920   0.00000  Uiso   1.00
C883   C     0.47423   0.49965   0.84976   0.00000  Uiso   1.00
C884   C     0.53794   0.35454   0.75993   0.00000  Uiso   1.00
C885   C     0.50072   0.37632   0.74776   0.00000  Uiso   1.00
C886   C     0.46396   0.35548   0.73337   0.00000  Uiso   1.00
C887   C     0.46349   0.64619   0.73206   0.00000  Uiso   1.00
C888   C     0.50018   0.62406   0.74633   0.00000  Uiso   1.00
C889   C     0.63376   0.52717   0.78077   0.00000  Uiso   1.00
C890   C     0.35012   0.52752   0.77989   0.00000  Uiso   1.00
C891   C     0.36607   0.47132   0.72204   0.00000  Uiso   1.00
C892   C     0.65034   0.47188   0.72072   0.00000  Uiso   1.00
C893   C     0.50023   0.42080   0.74946   0.00000  Uiso   1.00
C894   C     0.52602   0.49886   0.64977   0.00000  Uiso   1.00
C895   C     0.60194   0.47758   0.50982   0.00000  Uiso   1.00
C896   C     0.54095   0.49500   0.59222   0.00000  Uiso   1.00
C897   C     0.42005   0.53006   0.92965   0.00000  Uiso   1.00
C898   C     0.41383   0.54663   0.97878   0.00000  Uiso   1.00
C899   C     0.44826   0.53910   0.50524   0.00000  Uiso   1.00
Cu900  Cu    0.45311   0.49999   0.75000   0.00000  Uiso   1.00
Cu901  Cu    0.54689   0.50001   0.75000   0.00000  Uiso   1.00
H902   H     0.56686   0.37031   0.77074   0.00000  Uiso   1.00
H903   H     0.43580   0.37245   0.72259   0.00000  Uiso   1.00
H904   H     0.36255   0.54934   0.80395   0.00000  Uiso   1.00
H905   H     0.39101   0.44781   0.70073   0.00000  Uiso   1.00
H906   H     0.59962   0.44122   0.91723   0.00000  Uiso   1.00
H907   H     0.39540   0.53987   0.90829   0.00000  Uiso   1.00
H908   H     0.38424   0.56840   0.99422   0.00000  Uiso   1.00
H909   H     0.53545   0.44811   0.87786   0.00000  Uiso   1.00
H910   H     0.56658   0.62925   0.76940   0.00000  Uiso   1.00
N911   N     0.38265   0.49999   0.74999   0.00000  Uiso   1.00
N912   N     0.61735   0.50002   0.75000   0.00000  Uiso   1.00
O913   O     0.46042   0.56011   0.75001   0.00000  Uiso   1.00
O914   O     0.53961   0.56012   0.75001   0.00000  Uiso   1.00
O915   O     0.44108   0.49998   0.82549   0.00000  Uiso   1.00
O916   O     0.52027   0.49999   0.82549   0.00000  Uiso   1.00
O917   O     0.46039   0.43988   0.75000   0.00000  Uiso   1.00
O918   O     0.53958   0.43989   0.75000   0.00000  Uiso   1.00
O919   O     0.47973   0.50001   0.67451   0.00000  Uiso   1.00
O920   O     0.55892   0.50002   0.67451   0.00000  Uiso   1.00
C921   C     0.62953   0.50218   0.58377   0.00000  Uiso   1.00
N922   N     0.66059   0.51179   0.60081   0.00000  Uiso   1.00
C923   C     0.42568   0.62665   0.71458   0.00000  Uiso   1.00
N924   N     0.39539   0.61113   0.70054   0.00000  Uiso   1.00
C925   C     0.60066   0.55475   0.81644   0.00000  Uiso   1.00
N926   N     0.57428   0.57685   0.84557   0.00000  Uiso   1.00
C927   C     0.63605   0.44207   0.68807   0.00000  Uiso   1.00
N928   N     0.62498   0.41800   0.66157   0.00000  Uiso   1.00
C929   C     0.65232   0.46334   0.98141   0.00000  Uiso   1.00
O930   O     0.34348   0.44469   0.50417   0.00000  Uiso   1.00
O931   O     0.33836   0.47092   0.92872   0.00000  Uiso   1.00
H932   H     0.37140   0.45732   0.91335   0.00000  Uiso   1.00
C933   C     0.45541   0.48173   0.59009   0.00000  Uiso   1.00
N934   N     0.41578   0.47123   0.60796   0.00000  Uiso   1.00
C935   C     0.44669   0.56668   0.55037   0.00000  Uiso   1.00
O936   O     0.40763   0.57489   0.58193   0.00000  Uiso   1.00
O937   O     0.48886   0.58476   0.55665   0.00000  Uiso   1.00
H938   H     0.51865   0.57963   0.52611   0.00000  Uiso   1.00
C939   C     0.83351   0.57928   0.74853   0.00000  Uiso   1.00
C940   C     0.81945   0.50934   0.98472   0.00000  Uiso   1.00
C941   C     0.82598   0.49292   0.93439   0.00000  Uiso   1.00
C942   C     0.85232   0.49635   0.51202   0.00000  Uiso   1.00
C943   C     0.89787   0.47898   0.98513   0.00000  Uiso   1.00
C944   C     0.90243   0.46091   0.93647   0.00000  Uiso   1.00
C945   C     0.86536   0.46547   0.91324   0.00000  Uiso   1.00
C946   C     0.83838   0.49419   0.56578   0.00000  Uiso   1.00
C947   C     0.92387   0.49092   0.56229   0.00000  Uiso   1.00
C948   C     0.79380   0.50499   0.90609   0.00000  Uiso   1.00
C949   C     0.87099   0.64536   0.75920   0.00000  Uiso   1.00
C950   C     0.80757   0.49965   0.84976   0.00000  Uiso   1.00
C951   C     0.87127   0.35454   0.75993   0.00000  Uiso   1.00
C952   C     0.83405   0.37632   0.74776   0.00000  Uiso   1.00
C953   C     0.79729   0.35548   0.73337   0.00000  Uiso   1.00
C954   C     0.79682   0.64619   0.73206   0.00000  Uiso   1.00
C955   C     0.83351   0.62406   0.74633   0.00000  Uiso   1.00
C956   C     0.96710   0.52717   0.78077   0.00000  Uiso   1.00
C957   C     0.68346   0.52752   0.77989   0.00000  Uiso   1.00
C958   C     0.69940   0.47132   0.72204   0.00000  Uiso   1.00
C959   C     0.98368   0.47188   0.72072   0.00000  Uiso   1.00
C960   C     0.83356   0.42080   0.74946   0.00000  Uiso   1.00
C961   C     0.85935   0.49886   0.64977   0.00000  Uiso   1.00
C962   C     0.93527   0.47758   0.50982   0.00000  Uiso   1.00
C963   C     0.87428   0.49500   0.59222   0.00000  Uiso   1.00
C964   C     0.75339   0.53006   0.92965   0.00000  Uiso   1.00
C965   C     0.74716   0.54663   0.97878   0.00000  Uiso   1.00
C966   C     0.78159   0.53910   0.50524   0.00000  Uiso   1.00
Cu967  Cu    0.78645   0.49999   0.75000   0.00000  Uiso   1.00
Cu968  Cu    0.88022   0.50001   0.75000   0.00000  Uiso   1.00
H969   H     0.90019   0.37031   0.77074   0.00000  Uiso   1.00
H970   H     0.76913   0.37245   0.72259   0.00000  Uiso   1.00
H971   H     0.69588   0.54934   0.80395   0.00000  Uiso   1.00
H972   H     0.72435   0.44781   0.70073   0.00000  Uiso   1.00
H973   H     0.93295   0.44122   0.91723   0.00000  Uiso   1.00
H974   H     0.72873   0.53987   0.90829   0.00000  Uiso   1.00
H975   H     0.71757   0.56840   0.99422   0.00000  Uiso   1.00
H976   H     0.86878   0.44811   0.87786   0.00000  Uiso   1.00
H977   H     0.89992   0.62925   0.76940   0.00000  Uiso   1.00
N978   N     0.71598   0.49999   0.74999   0.00000  Uiso   1.00
N979   N     0.95069   0.50002   0.75000   0.00000  Uiso   1.00
O980   O     0.79375   0.56011   0.75001   0.00000  Uiso   1.00
O981   O     0.87294   0.56012   0.75001   0.00000  Uiso   1.00
O982   O     0.77441   0.49998   0.82549   0.00000  Uiso   1.00
O983   O     0.85360   0.49999   0.82549   0.00000  Uiso   1.00
O984   O     0.79373   0.43988   0.75000   0.00000  Uiso   1.00
O985   O     0.87292   0.43989   0.75000   0.00000  Uiso   1.00
O986   O     0.81306   0.50001   0.67451   0.00000  Uiso   1.00
O987   O     0.89225   0.50002   0.67451   0.00000  Uiso   1.00
C988   C     0.96286   0.50218   0.58377   0.00000  Uiso   1.00
N989   N     0.99392   0.51179   0.60081   0.00000  Uiso   1.00
C990   C     0.75901   0.62665   0.71458   0.00000  Uiso   1.00
N991   N     0.72872   0.61113   0.70054   0.00000  Uiso   1.00
C992   C     0.93400   0.55475   0.81644   0.00000  Uiso   1.00
N993   N     0.90761   0.57685   0.84557   0.00000  Uiso   1.00
C994   C     0.96939   0.44207   0.68807   0.00000  Uiso   1.00
N995   N     0.95831   0.41800   0.66157   0.00000  Uiso   1.00
C996   C     0.98565   0.46334   0.98141   0.00000  Uiso   1.00
O997   O     0.67682   0.44469   0.50417   0.00000  Uiso   1.00
O998   O     0.67170   0.47092   0.92872   0.00000  Uiso   1.00
H999   H     0.70473   0.45732   0.91335   0.00000  Uiso   1.00
C1000  C     0.78875   0.48173   0.59009   0.00000  Uiso   1.00
N1001  N     0.74911   0.47123   0.60796   0.00000  Uiso   1.00
C1002  C     0.78002   0.56668   0.55037   0.00000  Uiso   1.00
O1003  O     0.74096   0.57489   0.58193   0.00000  Uiso   1.00
O1004  O     0.82220   0.58476   0.55665   0.00000  Uiso   1.00
H1005  H     0.85199   0.57963   0.52611   0.00000  Uiso   1.00
C1006  C     0.16685   0.91261   0.74853   0.00000  Uiso   1.00
C1007  C     0.15278   0.84267   0.98472   0.00000  Uiso   1.00
C1008  C     0.15931   0.82625   0.93439   0.00000  Uiso   1.00
C1009  C     0.18565   0.82969   0.51202   0.00000  Uiso   1.00
C1010  C     0.23120   0.81232   0.98513   0.00000  Uiso   1.00
C1011  C     0.23576   0.79424   0.93647   0.00000  Uiso   1.00
C1012  C     0.19870   0.79881   0.91324   0.00000  Uiso   1.00
C1013  C     0.17171   0.82753   0.56578   0.00000  Uiso   1.00
C1014  C     0.25721   0.82426   0.56229   0.00000  Uiso   1.00
C1015  C     0.12713   0.83833   0.90609   0.00000  Uiso   1.00
C1016  C     0.20432   0.97869   0.75920   0.00000  Uiso   1.00
C1017  C     0.14090   0.83299   0.84976   0.00000  Uiso   1.00
C1018  C     0.20460   0.68787   0.75993   0.00000  Uiso   1.00
C1019  C     0.16738   0.70965   0.74776   0.00000  Uiso   1.00
C1020  C     0.13063   0.68882   0.73337   0.00000  Uiso   1.00
C1021  C     0.13015   0.97952   0.73206   0.00000  Uiso   1.00
C1022  C     0.16684   0.95739   0.74633   0.00000  Uiso   1.00
C1023  C     0.30043   0.86050   0.78077   0.00000  Uiso   1.00
C1024  C     0.01679   0.86085   0.77989   0.00000  Uiso   1.00
C1025  C     0.03273   0.80465   0.72204   0.00000  Uiso   1.00
C1026  C     0.31701   0.80522   0.72072   0.00000  Uiso   1.00
C1027  C     0.16689   0.75414   0.74946   0.00000  Uiso   1.00
C1028  C     0.19268   0.83219   0.64977   0.00000  Uiso   1.00
C1029  C     0.26861   0.81092   0.50982   0.00000  Uiso   1.00
C1030  C     0.20761   0.82833   0.59222   0.00000  Uiso   1.00
C1031  C     0.08672   0.86339   0.92965   0.00000  Uiso   1.00
C1032  C     0.08049   0.87996   0.97878   0.00000  Uiso   1.00
C1033  C     0.11492   0.87243   0.50524   0.00000  Uiso   1.00
Cu1034 Cu    0.11978   0.83333   0.75000   0.00000  Uiso   1.00
Cu1035 Cu    0.21355   0.83334   0.75000   0.00000  Uiso   1.00
H1036  H     0.23352   0.70364   0.77074   0.00000  Uiso   1.00
H1037  H     0.10246   0.70578   0.72259   0.00000  Uiso   1.00
H1038  H     0.02922   0.88267   0.80395   0.00000  Uiso   1.00
H1039  H     0.05768   0.78114   0.70073   0.00000  Uiso   1.00
H1040  H     0.26629   0.77456   0.91723   0.00000  Uiso   1.00
H1041  H     0.06206   0.87320   0.90829   0.00000  Uiso   1.00
H1042  H     0.05091   0.90173   0.99422   0.00000  Uiso   1.00
H1043  H     0.20211   0.78144   0.87786   0.00000  Uiso   1.00
H1044  H     0.23325   0.96258   0.76940   0.00000  Uiso   1.00
N1045  N     0.04931   0.83332   0.74999   0.00000  Uiso   1.00
N1046  N     0.28402   0.83335   0.75000   0.00000  Uiso   1.00
O1047  O     0.12708   0.89345   0.75001   0.00000  Uiso   1.00
O1048  O     0.20627   0.89346   0.75001   0.00000  Uiso   1.00
O1049  O     0.10775   0.83332   0.82549   0.00000  Uiso   1.00
O1050  O     0.18694   0.83333   0.82549   0.00000  Uiso   1.00
O1051  O     0.12706   0.77321   0.75000   0.00000  Uiso   1.00
O1052  O     0.20625   0.77322   0.75000   0.00000  Uiso   1.00
O1053  O     0.14640   0.83334   0.67451   0.00000  Uiso   1.00
O1054  O     0.22559   0.83335   0.67451   0.00000  Uiso   1.00
C1055  C     0.29619   0.83551   0.58377   0.00000  Uiso   1.00
N1056  N     0.32726   0.84512   0.60081   0.00000  Uiso   1.00
C1057  C     0.09235   0.95998   0.71458   0.00000  Uiso   1.00
N1058  N     0.06206   0.94446   0.70054   0.00000  Uiso   1.00
C1059  C     0.26733   0.88808   0.81644   0.00000  Uiso   1.00
N1060  N     0.24094   0.91018   0.84557   0.00000  Uiso   1.00
C1061  C     0.30272   0.77541   0.68807   0.00000  Uiso   1.00
N1062  N     0.29164   0.75134   0.66157   0.00000  Uiso   1.00
C1063  C     0.31899   0.79667   0.98141   0.00000  Uiso   1.00
O1064  O     0.01015   0.77803   0.50417   0.00000  Uiso   1.00
O1065  O     0.00503   0.80426   0.92872   0.00000  Uiso   1.00
H1066  H     0.03806   0.79066   0.91335   0.00000  Uiso   1.00
C1067  C     0.12208   0.81506   0.59009   0.00000  Uiso   1.00
N1068  N     0.08244   0.80457   0.60796   0.00000  Uiso   1.00
C1069  C     0.11335   0.90001   0.55037   0.00000  Uiso   1.00
O1070  O     0.07430   0.90822   0.58193   0.00000  Uiso   1.00
O1071  O     0.15553   0.91809   0.55665   0.00000  Uiso   1.00
H1072  H     0.18532   0.91296   0.52611   0.00000  Uiso   1.00
C1073  C     0.50018   0.91261   0.74853   0.00000  Uiso   1.00
C1074  C     0.48612   0.84267   0.98472   0.00000  Uiso   1.00
C1075  C     0.49264   0.82625   0.93439   0.00000  Uiso   1.00
C1076  C     0.51898   0.82969   0.51202   0.00000  Uiso   1.00
C1077  C     0.56454   0.81232   0.98513   0.00000  Uiso   1.00
C1078  C     0.56910   0.79424   0.93647   0.00000  Uiso   1.00
C1079  C     0.53203   0.79881   0.91324   0.00000  Uiso   1.00
C1080  C     0.50505   0.82753   0.56578   0.00000  Uiso   1.00
C1081  C     0.59054   0.82426   0.56229   0.00000  Uiso   1.00
C1082  C     0.46047   0.83833   0.90609   0.00000  Uiso   1.00
C1083  C     0.53765   0.97869   0.75920   0.00000  Uiso   1.00
C1084  C     0.47423   0.83299   0.84976   0.00000  Uiso   1.00
C1085  C     0.53794   0.68787   0.75993   0.00000  Uiso   1.00
C1086  C     0.50072   0.70965   0.74776   0.00000  Uiso   1.00
C1087  C     0.46396   0.68882   0.73337   0.00000  Uiso   1.00
C1088  C     0.46349   0.97952   0.73206   0.00000  Uiso   1.00
C1089  C     0.50018   0.95739   0.74633   0.00000  Uiso   1.00
C1090  C     0.63376   0.86050   0.78077   0.00000  Uiso   1.00
C1091  C     0.35012   0.86085   0.77989   0.00000  Uiso   1.00
C1092  C     0.36607   0.80465   0.72204   0.00000  Uiso   1.00
C1093  C     0.65034   0.80522   0.72072   0.00000  Uiso   1.00
C1094  C     0.50023   0.75414   0.74946   0.00000  Uiso   1.00
C1095  C     0.52602   0.83219   0.64977   0.00000  Uiso   1.00
C1096  C     0.60194   0.81092   0.50982   0.00000  Uiso   1.00
C1097  C     0.54095   0.82833   0.59222   0.00000  Uiso   1.00
C1098  C     0.42005   0.86339   0.92965   0.00000  Uiso   1.00
C1099  C     0.41383   0.87996   0.97878   0.00000  Uiso   1.00
C1100  C     0.44826   0.87243   0.50524   0.00000  Uiso   1.00
Cu1101 Cu    0.45311   0.83333   0.75000   0.00000  Uiso   1.00
Cu1102 Cu    0.54689   0.83334   0.75000   0.00000  Uiso   1.00
H1103  H     0.56686   0.70364   0.77074   0.00000  Uiso   1.00
H1104  H     0.43580   0.70578   0.72259   0.00000  Uiso   1.00
H1105  H     0.36255   0.88267   0.80395   0.00000  Uiso   1.00
H1106  H     0.39101   0.78114   0.70073   0.00000  Uiso   1.00
H1107  H     0.59962   0.77456   0.91723   0.00000  Uiso   1.00
H1108  H     0.39540   0.87320   0.90829   0.00000  Uiso   1.00
H1109  H     0.38424   0.90173   0.99422   0.00000  Uiso   1.00
H1110  H     0.53545   0.78144   0.87786   0.00000  Uiso   1.00
H1111  H     0.56658   0.96258   0.76940   0.00000  Uiso   1.00
N1112  N     0.38265   0.83332   0.74999   0.00000  Uiso   1.00
N1113  N     0.61735   0.83335   0.75000   0.00000  Uiso   1.00
O1114  O     0.46042   0.89345   0.75001   0.00000  Uiso   1.00
O1115  O     0.53961   0.89346   0.75001   0.00000  Uiso   1.00
O1116  O     0.44108   0.83332   0.82549   0.00000  Uiso   1.00
O1117  O     0.52027   0.83333   0.82549   0.00000  Uiso   1.00
O1118  O     0.46039   0.77321   0.75000   0.00000  Uiso   1.00
O1119  O     0.53958   0.77322   0.75000   0.00000  Uiso   1.00
O1120  O     0.47973   0.83334   0.67451   0.00000  Uiso   1.00
O1121  O     0.55892   0.83335   0.67451   0.00000  Uiso   1.00
C1122  C     0.62953   0.83551   0.58377   0.00000  Uiso   1.00
N1123  N     0.66059   0.84512   0.60081   0.00000  Uiso   1.00
C1124  C     0.42568   0.95998   0.71458   0.00000  Uiso   1.00
N1125  N     0.39539   0.94446   0.70054   0.00000  Uiso   1.00
C1126  C     0.60066   0.88808   0.81644   0.00000  Uiso   1.00
N1127  N     0.57428   0.91018   0.84557   0.00000  Uiso   1.00
C1128  C     0.63605   0.77541   0.68807   0.00000  Uiso   1.00
N1129  N     0.62498   0.75134   0.66157   0.00000  Uiso   1.00
C1130  C     0.65232   0.79667   0.98141   0.00000  Uiso   1.00
O1131  O     0.34348   0.77803   0.50417   0.00000  Uiso   1.00
O1132  O     0.33836   0.80426   0.92872   0.00000  Uiso   1.00
H1133  H     0.37140   0.79066   0.91335   0.00000  Uiso   1.00
C1134  C     0.45541   0.81506   0.59009   0.00000  Uiso   1.00
N1135  N     0.41578   0.80457   0.60796   0.00000  Uiso   1.00
C1136  C     0.44669   0.90001   0.55037   0.00000  Uiso   1.00
O1137  O     0.40763   0.90822   0.58193   0.00000  Uiso   1.00
O1138  O     0.48886   0.91809   0.55665   0.00000  Uiso   1.00
H1139  H     0.51865   0.91296   0.52611   0.00000  Uiso   1.00
C1140  C     0.83351   0.91261   0.74853   0.00000  Uiso   1.00
C1141  C     0.81945   0.84267   0.98472   0.00000  Uiso   1.00
C1142  C     0.82598   0.82625   0.93439   0.00000  Uiso   1.00
C1143  C     0.85232   0.82969   0.51202   0.00000  Uiso   1.00
C1144  C     0.89787   0.81232   0.98513   0.00000  Uiso   1.00
C1145  C     0.90243   0.79424   0.93647   0.00000  Uiso   1.00
C1146  C     0.86536   0.79881   0.91324   0.00000  Uiso   1.00
C1147  C     0.83838   0.82753   0.56578   0.00000  Uiso   1.00
C1148  C     0.92387   0.82426   0.56229   0.00000  Uiso   1.00
C1149  C     0.79380   0.83833   0.90609   0.00000  Uiso   1.00
C1150  C     0.87099   0.97869   0.75920   0.00000  Uiso   1.00
C1151  C     0.80757   0.83299   0.84976   0.00000  Uiso   1.00
C1152  C     0.87127   0.68787   0.75993   0.00000  Uiso   1.00
C1153  C     0.83405   0.70965   0.74776   0.00000  Uiso   1.00
C1154  C     0.79729   0.68882   0.73337   0.00000  Uiso   1.00
C1155  C     0.79682   0.97952   0.73206   0.00000  Uiso   1.00
C1156  C     0.83351   0.95739   0.74633   0.00000  Uiso   1.00
C1157  C     0.96710   0.86050   0.78077   0.00000  Uiso   1.00
C1158  C     0.68346   0.86085   0.77989   0.00000  Uiso   1.00
C1159  C     0.69940   0.80465   0.72204   0.00000  Uiso   1.00
C1160  C     0.98368   0.80522   0.72072   0.00000  Uiso   1.00
C1161  C     0.83356   0.75414   0.74946   0.00000  Uiso   1.00
C1162  C     0.85935   0.83219   0.64977   0.00000  Uiso   1.00
C1163  C     0.93527   0.81092   0.50982   0.00000  Uiso   1.00
C1164  C     0.87428   0.82833   0.59222   0.00000  Uiso   1.00
C1165  C     0.75339   0.86339   0.92965   0.00000  Uiso   1.00
C1166  C     0.74716   0.87996   0.97878   0.00000  Uiso   1.00
C1167  C     0.78159   0.87243   0.50524   0.00000  Uiso   1.00
Cu1168 Cu    0.78645   0.83333   0.75000   0.00000  Uiso   1.00
Cu1169 Cu    0.88022   0.83334   0.75000   0.00000  Uiso   1.00
H1170  H     0.90019   0.70364   0.77074   0.00000  Uiso   1.00
H1171  H     0.76913   0.70578   0.72259   0.00000  Uiso   1.00
H1172  H     0.69588   0.88267   0.80395   0.00000  Uiso   1.00
H1173  H     0.72435   0.78114   0.70073   0.00000  Uiso   1.00
H1174  H     0.93295   0.77456   0.91723   0.00000  Uiso   1.00
H1175  H     0.72873   0.87320   0.90829   0.00000  Uiso   1.00
H1176  H     0.71757   0.90173   0.99422   0.00000  Uiso   1.00
H1177  H     0.86878   0.78144   0.87786   0.00000  Uiso   1.00
H1178  H     0.89992   0.96258   0.76940   0.00000  Uiso   1.00
N1179  N     0.71598   0.83332   0.74999   0.00000  Uiso   1.00
N1180  N     0.95069   0.83335   0.75000   0.00000  Uiso   1.00
O1181  O     0.79375   0.89345   0.75001   0.00000  Uiso   1.00
O1182  O     0.87294   0.89346   0.75001   0.00000  Uiso   1.00
O1183  O     0.77441   0.83332   0.82549   0.00000  Uiso   1.00
O1184  O     0.85360   0.83333   0.82549   0.00000  Uiso   1.00
O1185  O     0.79373   0.77321   0.75000   0.00000  Uiso   1.00
O1186  O     0.87292   0.77322   0.75000   0.00000  Uiso   1.00
O1187  O     0.81306   0.83334   0.67451   0.00000  Uiso   1.00
O1188  O     0.89225   0.83335   0.67451   0.00000  Uiso   1.00
C1189  C     0.96286   0.83551   0.58377   0.00000  Uiso   1.00
N1190  N     0.99392   0.84512   0.60081   0.00000  Uiso   1.00
C1191  C     0.75901   0.95998   0.71458   0.00000  Uiso   1.00
N1192  N     0.72872   0.94446   0.70054   0.00000  Uiso   1.00
C1193  C     0.93400   0.88808   0.81644   0.00000  Uiso   1.00
N1194  N     0.90761   0.91018   0.84557   0.00000  Uiso   1.00
C1195  C     0.96939   0.77541   0.68807   0.00000  Uiso   1.00
N1196  N     0.95831   0.75134   0.66157   0.00000  Uiso   1.00
C1197  C     0.98565   0.79667   0.98141   0.00000  Uiso   1.00
O1198  O     0.67682   0.77803   0.50417   0.00000  Uiso   1.00
O1199  O     0.67170   0.80426   0.92872   0.00000  Uiso   1.00
H1200  H     0.70473   0.79066   0.91335   0.00000  Uiso   1.00
C1201  C     0.78875   0.81506   0.59009   0.00000  Uiso   1.00
N1202  N     0.74911   0.80457   0.60796   0.00000  Uiso   1.00
C1203  C     0.78002   0.90001   0.55037   0.00000  Uiso   1.00
O1204  O     0.74096   0.90822   0.58193   0.00000  Uiso   1.00
O1205  O     0.82220   0.91809   0.55665   0.00000  Uiso   1.00
H1206  H     0.85199   0.91296   0.52611   0.00000  Uiso   1.00
loop_
_geom_bond_atom_site_label_1
_geom_bond_atom_site_label_2
_geom_bond_distance
_geom_bond_site_symmetry_2
_ccdc_geom_bond_type
C1     O42     1.292   .     A
C1     C17     1.458   .     S
C1     O43     1.299   .     A
C2     C3      1.413   .     A
C2     C607    1.420   .     S
C2     C631    1.430   .     S
C3     C10     1.415   .     A
C3     C7      1.414   .     A
C4     C8      1.394   .     A
C4     C605    1.420   1_554 S
C4     C608    1.408   1_554 S
C5     C6      1.402   .     A
C5     C607    1.408   .     S
C5     C627    1.418   .     S
C6     C7      1.390   .     A
C6     H35     1.080   .     S
C7     H38     1.081   .     S
C8     C25     1.412   .     A
C8     C62     1.447   .     S
C9     C25     1.423   .     A
C9     C24     1.420   .     A
C9     C50     1.446   .     S
C10    C26     1.400   .     A
C10    C12     1.465   .     S
C11    H39     1.082   .     S
C11    C17     1.403   .     A
C11    C214    1.382   .     S
C12    O45     1.293   .     A
C12    O44     1.301   .     A
C13    C14     1.397   .     A
C13    H31     1.083   .     S
C13    C413    1.382   1_545 S
C14    C22     1.446   .     S
C14    C15     1.398   .     A
C15    H32     1.085   .     S
C15    C418    1.386   1_545 S
C16    C52     1.447   .     S
C16    C17     1.417   .     A
C16    C216    1.386   .     S
C18    C54     1.438   .     S
C18    N41     1.377   .     A
C18    C86     1.418   .     S
C19    N40     1.362   .     A
C19    H33     1.083   .     S
C19    C152    1.418   1_455 S
C20    H34     1.081   .     S
C20    N40     1.361   .     A
C20    C155    1.417   1_455 S
C21    C56     1.438   .     S
C21    N41     1.376   .     A
C21    C87     1.417   .     S
C22    O47     1.294   .     A
C22    O46     1.293   .     A
C23    C25     1.492   .     S
C23    O49     1.304   .     A
C23    O48     1.302   .     A
C24    C608    1.418   1_554 S
C24    C661    1.494   1_554 S
C26    C27     1.387   .     A
C26    H36     1.084   .     S
C27    H37     1.084   .     S
C27    C631    1.398   .     S
C28    C64     1.491   .     S
C28    C605    1.430   1_554 S
C28    C630    1.398   1_554 S
Cu29   O42     1.967   .     S
Cu29   Cu30    2.688   .     S
Cu29   O46     1.965   .     S
Cu29   N40     2.020   .     S
Cu29   O44     1.968   .     S
Cu29   O48     1.961   .     S
Cu30   N41     2.020   .     S
Cu30   O45     1.961   .     S
Cu30   O49     1.968   .     S
Cu30   O43     1.965   .     S
Cu30   O47     1.967   .     S
C50    N51     1.156   .     T
C52    N53     1.158   .     T
C54    N55     1.158   .     T
C56    N57     1.158   .     T
C58    C627    1.494   .     S
C58    O729    1.223   .     S
C58    O127    1.398   .     S
O59    C795    1.223   1_454 S
O60    H61     1.014   .     S
O60    C192    1.398   1_455 S
C62    N63     1.155   .     T
C64    O65     1.221   .     D
C64    O66     1.399   .     S
O66    H67     1.013   .     S
C68    O109    1.292   .     A
C68    C84     1.458   .     S
C68    O110    1.299   .     A
C69    C70     1.413   .     A
C69    C674    1.420   .     S
C69    C698    1.430   .     S
C70    C77     1.415   .     A
C70    C74     1.414   .     A
C71    C75     1.394   .     A
C71    C672    1.420   1_554 S
C71    C675    1.408   1_554 S
C72    C73     1.402   .     A
C72    C674    1.408   .     S
C72    C694    1.418   .     S
C73    C74     1.390   .     A
C73    H102    1.080   .     S
C74    H105    1.081   .     S
C75    C92     1.412   .     A
C75    C129    1.447   .     S
C76    C92     1.423   .     A
C76    C91     1.420   .     A
C76    C117    1.446   .     S
C77    C93     1.400   .     A
C77    C79     1.465   .     S
C78    H106    1.082   .     S
C78    C84     1.403   .     A
C78    C281    1.382   .     S
C79    O112    1.293   .     A
C79    O111    1.301   .     A
C80    C81     1.397   .     A
C80    H98     1.083   .     S
C80    C480    1.382   1_545 S
C81    C89     1.446   .     S
C81    C82     1.398   .     A
C82    H99     1.085   .     S
C82    C485    1.386   1_545 S
C83    C119    1.447   .     S
C83    C84     1.417   .     A
C83    C283    1.386   .     S
C85    C121    1.438   .     S
C85    N108    1.377   .     A
C85    C153    1.418   .     S
C86    N107    1.362   .     A
C86    H100    1.083   .     S
C87    H101    1.081   .     S
C87    N107    1.361   .     A
C88    C123    1.438   .     S
C88    N108    1.376   .     A
C88    C154    1.417   .     S
C89    O114    1.294   .     A
C89    O113    1.293   .     A
C90    C92     1.492   .     S
C90    O116    1.304   .     A
C90    O115    1.302   .     A
C91    C675    1.418   1_554 S
C91    C728    1.494   1_554 S
C93    C94     1.387   .     A
C93    H103    1.084   .     S
C94    H104    1.084   .     S
C94    C698    1.398   .     S
C95    C131    1.491   .     S
C95    C672    1.430   1_554 S
C95    C697    1.398   1_554 S
Cu96   O109    1.967   .     S
Cu96   Cu97    2.688   .     S
Cu96   O113    1.965   .     S
Cu96   N107    2.020   .     S
Cu96   O111    1.968   .     S
Cu96   O115    1.961   .     S
Cu97   N108    2.020   .     S
Cu97   O112    1.961   .     S
Cu97   O116    1.968   .     S
Cu97   O110    1.965   .     S
Cu97   O114    1.967   .     S
C117   N118    1.156   .     T
C119   N120    1.158   .     T
C121   N122    1.158   .     T
C123   N124    1.158   .     T
C125   C694    1.494   .     S
C125   O796    1.223   .     S
C125   O194    1.398   .     S
O126   C661    1.223   1_554 S
O127   H128    1.014   .     S
C129   N130    1.155   .     T
C131   O132    1.221   .     D
C131   O133    1.399   .     S
O133   H134    1.013   .     S
C135   O176    1.292   .     A
C135   C151    1.458   .     S
C135   O177    1.299   .     A
C136   C137    1.413   .     A
C136   C741    1.420   .     S
C136   C765    1.430   .     S
C137   C144    1.415   .     A
C137   C141    1.414   .     A
C138   C142    1.394   .     A
C138   C739    1.420   1_554 S
C138   C742    1.408   1_554 S
C139   C140    1.402   .     A
C139   C741    1.408   .     S
C139   C761    1.418   .     S
C140   C141    1.390   .     A
C140   H169    1.080   .     S
C141   H172    1.081   .     S
C142   C159    1.412   .     A
C142   C196    1.447   .     S
C143   C159    1.423   .     A
C143   C158    1.420   .     A
C143   C184    1.446   .     S
C144   C160    1.400   .     A
C144   C146    1.465   .     S
C145   H173    1.082   .     S
C145   C151    1.403   .     A
C145   C348    1.382   .     S
C146   O179    1.293   .     A
C146   O178    1.301   .     A
C147   C148    1.397   .     A
C147   H165    1.083   .     S
C147   C547    1.382   1_545 S
C148   C156    1.446   .     S
C148   C149    1.398   .     A
C149   H166    1.085   .     S
C149   C552    1.386   1_545 S
C150   C186    1.447   .     S
C150   C151    1.417   .     A
C150   C350    1.386   .     S
C152   C188    1.438   .     S
C152   N175    1.377   .     A
C152   C19     1.418   1_655 S
C153   N174    1.362   .     A
C153   H167    1.083   .     S
C154   H168    1.081   .     S
C154   N174    1.361   .     A
C155   C190    1.438   .     S
C155   N175    1.376   .     A
C155   C20     1.417   1_655 S
C156   O181    1.294   .     A
C156   O180    1.293   .     A
C157   C159    1.492   .     S
C157   O183    1.304   .     A
C157   O182    1.302   .     A
C158   C742    1.418   1_554 S
C158   C795    1.494   1_554 S
C160   C161    1.387   .     A
C160   H170    1.084   .     S
C161   H171    1.084   .     S
C161   C765    1.398   .     S
C162   C198    1.491   .     S
C162   C739    1.430   1_554 S
C162   C764    1.398   1_554 S
Cu163  O176    1.967   .     S
Cu163  Cu164   2.688   .     S
Cu163  O180    1.965   .     S
Cu163  N174    2.020   .     S
Cu163  O178    1.968   .     S
Cu163  O182    1.961   .     S
Cu164  N175    2.020   .     S
Cu164  O179    1.961   .     S
Cu164  O183    1.968   .     S
Cu164  O177    1.965   .     S
Cu164  O181    1.967   .     S
C184   N185    1.156   .     T
C186   N187    1.158   .     T
C188   N189    1.158   .     T
C190   N191    1.158   .     T
C192   C761    1.494   .     S
C192   O662    1.223   1_655 S
C192   O60     1.398   1_655 S
O193   C728    1.223   1_554 S
O194   H195    1.014   .     S
C196   N197    1.155   .     T
C198   O199    1.221   .     D
C198   O200    1.399   .     S
O200   H201    1.013   .     S
C202   O243    1.292   .     A
C202   C218    1.458   .     S
C202   O244    1.299   .     A
C203   C204    1.413   .     A
C203   C808    1.420   .     S
C203   C832    1.430   .     S
C204   C211    1.415   .     A
C204   C208    1.414   .     A
C205   C209    1.394   .     A
C205   C806    1.420   1_554 S
C205   C809    1.408   1_554 S
C206   C207    1.402   .     A
C206   C808    1.408   .     S
C206   C828    1.418   .     S
C207   C208    1.390   .     A
C207   H236    1.080   .     S
C208   H239    1.081   .     S
C209   C226    1.412   .     A
C209   C263    1.447   .     S
C210   C226    1.423   .     A
C210   C225    1.420   .     A
C210   C251    1.446   .     S
C211   C227    1.400   .     A
C211   C213    1.465   .     S
C212   H240    1.082   .     S
C212   C218    1.403   .     A
C212   C415    1.382   .     S
C213   O246    1.293   .     A
C213   O245    1.301   .     A
C214   C215    1.397   .     A
C214   H232    1.083   .     S
C215   C223    1.446   .     S
C215   C216    1.398   .     A
C216   H233    1.085   .     S
C217   C253    1.447   .     S
C217   C218    1.417   .     A
C217   C417    1.386   .     S
C219   C255    1.438   .     S
C219   N242    1.377   .     A
C219   C287    1.418   .     S
C220   N241    1.362   .     A
C220   H234    1.083   .     S
C220   C353    1.418   1_455 S
C221   H235    1.081   .     S
C221   N241    1.361   .     A
C221   C356    1.417   1_455 S
C222   C257    1.438   .     S
C222   N242    1.376   .     A
C222   C288    1.417   .     S
C223   O248    1.294   .     A
C223   O247    1.293   .     A
C224   C226    1.492   .     S
C224   O250    1.304   .     A
C224   O249    1.302   .     A
C225   C809    1.418   1_554 S
C225   C862    1.494   1_554 S
C227   C228    1.387   .     A
C227   H237    1.084   .     S
C228   H238    1.084   .     S
C228   C832    1.398   .     S
C229   C265    1.491   .     S
C229   C806    1.430   1_554 S
C229   C831    1.398   1_554 S
Cu230  O243    1.967   .     S
Cu230  Cu231   2.688   .     S
Cu230  O247    1.965   .     S
Cu230  N241    2.020   .     S
Cu230  O245    1.968   .     S
Cu230  O249    1.961   .     S
Cu231  N242    2.020   .     S
Cu231  O246    1.961   .     S
Cu231  O250    1.968   .     S
Cu231  O244    1.965   .     S
Cu231  O248    1.967   .     S
C251   N252    1.156   .     T
C253   N254    1.158   .     T
C255   N256    1.158   .     T
C257   N258    1.158   .     T
C259   C828    1.494   .     S
C259   O930    1.223   .     S
C259   O328    1.398   .     S
O260   C996    1.223   1_454 S
O261   H262    1.014   .     S
O261   C393    1.398   1_455 S
C263   N264    1.155   .     T
C265   O266    1.221   .     D
C265   O267    1.399   .     S
O267   H268    1.013   .     S
C269   O310    1.292   .     A
C269   C285    1.458   .     S
C269   O311    1.299   .     A
C270   C271    1.413   .     A
C270   C875    1.420   .     S
C270   C899    1.430   .     S
C271   C278    1.415   .     A
C271   C275    1.414   .     A
C272   C276    1.394   .     A
C272   C873    1.420   1_554 S
C272   C876    1.408   1_554 S
C273   C274    1.402   .     A
C273   C875    1.408   .     S
C273   C895    1.418   .     S
C274   C275    1.390   .     A
C274   H303    1.080   .     S
C275   H306    1.081   .     S
C276   C293    1.412   .     A
C276   C330    1.447   .     S
C277   C293    1.423   .     A
C277   C292    1.420   .     A
C277   C318    1.446   .     S
C278   C294    1.400   .     A
C278   C280    1.465   .     S
C279   H307    1.082   .     S
C279   C285    1.403   .     A
C279   C482    1.382   .     S
C280   O313    1.293   .     A
C280   O312    1.301   .     A
C281   C282    1.397   .     A
C281   H299    1.083   .     S
C282   C290    1.446   .     S
C282   C283    1.398   .     A
C283   H300    1.085   .     S
C284   C320    1.447   .     S
C284   C285    1.417   .     A
C284   C484    1.386   .     S
C286   C322    1.438   .     S
C286   N309    1.377   .     A
C286   C354    1.418   .     S
C287   N308    1.362   .     A
C287   H301    1.083   .     S
C288   H302    1.081   .     S
C288   N308    1.361   .     A
C289   C324    1.438   .     S
C289   N309    1.376   .     A
C289   C355    1.417   .     S
C290   O315    1.294   .     A
C290   O314    1.293   .     A
C291   C293    1.492   .     S
C291   O317    1.304   .     A
C291   O316    1.302   .     A
C292   C876    1.418   1_554 S
C292   C929    1.494   1_554 S
C294   C295    1.387   .     A
C294   H304    1.084   .     S
C295   H305    1.084   .     S
C295   C899    1.398   .     S
C296   C332    1.491   .     S
C296   C873    1.430   1_554 S
C296   C898    1.398   1_554 S
Cu297  O310    1.967   .     S
Cu297  Cu298   2.688   .     S
Cu297  O314    1.965   .     S
Cu297  N308    2.020   .     S
Cu297  O312    1.968   .     S
Cu297  O316    1.961   .     S
Cu298  N309    2.020   .     S
Cu298  O313    1.961   .     S
Cu298  O317    1.968   .     S
Cu298  O311    1.965   .     S
Cu298  O315    1.967   .     S
C318   N319    1.156   .     T
C320   N321    1.158   .     T
C322   N323    1.158   .     T
C324   N325    1.158   .     T
C326   C895    1.494   .     S
C326   O997    1.223   .     S
C326   O395    1.398   .     S
O327   C862    1.223   1_554 S
O328   H329    1.014   .     S
C330   N331    1.155   .     T
C332   O333    1.221   .     D
C332   O334    1.399   .     S
O334   H335    1.013   .     S
C336   O377    1.292   .     A
C336   C352    1.458   .     S
C336   O378    1.299   .     A
C337   C338    1.413   .     A
C337   C942    1.420   .     S
C337   C966    1.430   .     S
C338   C345    1.415   .     A
C338   C342    1.414   .     A
C339   C343    1.394   .     A
C339   C940    1.420   1_554 S
C339   C943    1.408   1_554 S
C340   C341    1.402   .     A
C340   C942    1.408   .     S
C340   C962    1.418   .     S
C341   C342    1.390   .     A
C341   H370    1.080   .     S
C342   H373    1.081   .     S
C343   C360    1.412   .     A
C343   C397    1.447   .     S
C344   C360    1.423   .     A
C344   C359    1.420   .     A
C344   C385    1.446   .     S
C345   C361    1.400   .     A
C345   C347    1.465   .     S
C346   H374    1.082   .     S
C346   C352    1.403   .     A
C346   C549    1.382   .     S
C347   O380    1.293   .     A
C347   O379    1.301   .     A
C348   C349    1.397   .     A
C348   H366    1.083   .     S
C349   C357    1.446   .     S
C349   C350    1.398   .     A
C350   H367    1.085   .     S
C351   C387    1.447   .     S
C351   C352    1.417   .     A
C351   C551    1.386   .     S
C353   C389    1.438   .     S
C353   N376    1.377   .     A
C353   C220    1.418   1_655 S
C354   N375    1.362   .     A
C354   H368    1.083   .     S
C355   H369    1.081   .     S
C355   N375    1.361   .     A
C356   C391    1.438   .     S
C356   N376    1.376   .     A
C356   C221    1.417   1_655 S
C357   O382    1.294   .     A
C357   O381    1.293   .     A
C358   C360    1.492   .     S
C358   O384    1.304   .     A
C358   O383    1.302   .     A
C359   C943    1.418   1_554 S
C359   C996    1.494   1_554 S
C361   C362    1.387   .     A
C361   H371    1.084   .     S
C362   H372    1.084   .     S
C362   C966    1.398   .     S
C363   C399    1.491   .     S
C363   C940    1.430   1_554 S
C363   C965    1.398   1_554 S
Cu364  O377    1.967   .     S
Cu364  Cu365   2.688   .     S
Cu364  O381    1.965   .     S
Cu364  N375    2.020   .     S
Cu364  O379    1.968   .     S
Cu364  O383    1.961   .     S
Cu365  N376    2.020   .     S
Cu365  O380    1.961   .     S
Cu365  O384    1.968   .     S
Cu365  O378    1.965   .     S
Cu365  O382    1.967   .     S
C385   N386    1.156   .     T
C387   N388    1.158   .     T
C389   N390    1.158   .     T
C391   N392    1.158   .     T
C393   C962    1.494   .     S
C393   O863    1.223   1_655 S
C393   O261    1.398   1_655 S
O394   C929    1.223   1_554 S
O395   H396    1.014   .     S
C397   N398    1.155   .     T
C399   O400    1.221   .     D
C399   O401    1.399   .     S
O401   H402    1.013   .     S
C403   O444    1.292   .     A
C403   C419    1.458   .     S
C403   O445    1.299   .     A
C404   C405    1.413   .     A
C404   C1009   1.420   .     S
C404   C1033   1.430   .     S
C405   C412    1.415   .     A
C405   C409    1.414   .     A
C406   C410    1.394   .     A
C406   C1007   1.420   1_554 S
C406   C1010   1.408   1_554 S
C407   C408    1.402   .     A
C407   C1009   1.408   .     S
C407   C1029   1.418   .     S
C408   C409    1.390   .     A
C408   H437    1.080   .     S
C409   H440    1.081   .     S
C410   C427    1.412   .     A
C410   C464    1.447   .     S
C411   C427    1.423   .     A
C411   C426    1.420   .     A
C411   C452    1.446   .     S
C412   C428    1.400   .     A
C412   C414    1.465   .     S
C413   H441    1.082   .     S
C413   C419    1.403   .     A
C413   C13     1.382   1_565 S
C414   O447    1.293   .     A
C414   O446    1.301   .     A
C415   C416    1.397   .     A
C415   H433    1.083   .     S
C416   C424    1.446   .     S
C416   C417    1.398   .     A
C417   H434    1.085   .     S
C418   C454    1.447   .     S
C418   C419    1.417   .     A
C418   C15     1.386   1_565 S
C420   C456    1.438   .     S
C420   N443    1.377   .     A
C420   C488    1.418   .     S
C421   N442    1.362   .     A
C421   H435    1.083   .     S
C421   C554    1.418   1_455 S
C422   H436    1.081   .     S
C422   N442    1.361   .     A
C422   C557    1.417   1_455 S
C423   C458    1.438   .     S
C423   N443    1.376   .     A
C423   C489    1.417   .     S
C424   O449    1.294   .     A
C424   O448    1.293   .     A
C425   C427    1.492   .     S
C425   O451    1.304   .     A
C425   O450    1.302   .     A
C426   C1010   1.418   1_554 S
C426   C1063   1.494   1_554 S
C428   C429    1.387   .     A
C428   H438    1.084   .     S
C429   H439    1.084   .     S
C429   C1033   1.398   .     S
C430   C466    1.491   .     S
C430   C1007   1.430   1_554 S
C430   C1032   1.398   1_554 S
Cu431  O444    1.967   .     S
Cu431  Cu432   2.688   .     S
Cu431  O448    1.965   .     S
Cu431  N442    2.020   .     S
Cu431  O446    1.968   .     S
Cu431  O450    1.961   .     S
Cu432  N443    2.020   .     S
Cu432  O447    1.961   .     S
Cu432  O451    1.968   .     S
Cu432  O445    1.965   .     S
Cu432  O449    1.967   .     S
C452   N453    1.156   .     T
C454   N455    1.158   .     T
C456   N457    1.158   .     T
C458   N459    1.158   .     T
C460   C1029   1.494   .     S
C460   O1131   1.223   .     S
C460   O529    1.398   .     S
O461   C1197   1.223   1_454 S
O462   H463    1.014   .     S
O462   C594    1.398   1_455 S
C464   N465    1.155   .     T
C466   O467    1.221   .     D
C466   O468    1.399   .     S
O468   H469    1.013   .     S
C470   O511    1.292   .     A
C470   C486    1.458   .     S
C470   O512    1.299   .     A
C471   C472    1.413   .     A
C471   C1076   1.420   .     S
C471   C1100   1.430   .     S
C472   C479    1.415   .     A
C472   C476    1.414   .     A
C473   C477    1.394   .     A
C473   C1074   1.420   1_554 S
C473   C1077   1.408   1_554 S
C474   C475    1.402   .     A
C474   C1076   1.408   .     S
C474   C1096   1.418   .     S
C475   C476    1.390   .     A
C475   H504    1.080   .     S
C476   H507    1.081   .     S
C477   C494    1.412   .     A
C477   C531    1.447   .     S
C478   C494    1.423   .     A
C478   C493    1.420   .     A
C478   C519    1.446   .     S
C479   C495    1.400   .     A
C479   C481    1.465   .     S
C480   H508    1.082   .     S
C480   C486    1.403   .     A
C480   C80     1.382   1_565 S
C481   O514    1.293   .     A
C481   O513    1.301   .     A
C482   C483    1.397   .     A
C482   H500    1.083   .     S
C483   C491    1.446   .     S
C483   C484    1.398   .     A
C484   H501    1.085   .     S
C485   C521    1.447   .     S
C485   C486    1.417   .     A
C485   C82     1.386   1_565 S
C487   C523    1.438   .     S
C487   N510    1.377   .     A
C487   C555    1.418   .     S
C488   N509    1.362   .     A
C488   H502    1.083   .     S
C489   H503    1.081   .     S
C489   N509    1.361   .     A
C490   C525    1.438   .     S
C490   N510    1.376   .     A
C490   C556    1.417   .     S
C491   O516    1.294   .     A
C491   O515    1.293   .     A
C492   C494    1.492   .     S
C492   O518    1.304   .     A
C492   O517    1.302   .     A
C493   C1077   1.418   1_554 S
C493   C1130   1.494   1_554 S
C495   C496    1.387   .     A
C495   H505    1.084   .     S
C496   H506    1.084   .     S
C496   C1100   1.398   .     S
C497   C533    1.491   .     S
C497   C1074   1.430   1_554 S
C497   C1099   1.398   1_554 S
Cu498  O511    1.967   .     S
Cu498  Cu499   2.688   .     S
Cu498  O515    1.965   .     S
Cu498  N509    2.020   .     S
Cu498  O513    1.968   .     S
Cu498  O517    1.961   .     S
Cu499  N510    2.020   .     S
Cu499  O514    1.961   .     S
Cu499  O518    1.968   .     S
Cu499  O512    1.965   .     S
Cu499  O516    1.967   .     S
C519   N520    1.156   .     T
C521   N522    1.158   .     T
C523   N524    1.158   .     T
C525   N526    1.158   .     T
C527   C1096   1.494   .     S
C527   O1198   1.223   .     S
C527   O596    1.398   .     S
O528   C1063   1.223   1_554 S
O529   H530    1.014   .     S
C531   N532    1.155   .     T
C533   O534    1.221   .     D
C533   O535    1.399   .     S
O535   H536    1.013   .     S
C537   O578    1.292   .     A
C537   C553    1.458   .     S
C537   O579    1.299   .     A
C538   C539    1.413   .     A
C538   C1143   1.420   .     S
C538   C1167   1.430   .     S
C539   C546    1.415   .     A
C539   C543    1.414   .     A
C540   C544    1.394   .     A
C540   C1141   1.420   1_554 S
C540   C1144   1.408   1_554 S
C541   C542    1.402   .     A
C541   C1143   1.408   .     S
C541   C1163   1.418   .     S
C542   C543    1.390   .     A
C542   H571    1.080   .     S
C543   H574    1.081   .     S
C544   C561    1.412   .     A
C544   C598    1.447   .     S
C545   C561    1.423   .     A
C545   C560    1.420   .     A
C545   C586    1.446   .     S
C546   C562    1.400   .     A
C546   C548    1.465   .     S
C547   H575    1.082   .     S
C547   C553    1.403   .     A
C547   C147    1.382   1_565 S
C548   O581    1.293   .     A
C548   O580    1.301   .     A
C549   C550    1.397   .     A
C549   H567    1.083   .     S
C550   C558    1.446   .     S
C550   C551    1.398   .     A
C551   H568    1.085   .     S
C552   C588    1.447   .     S
C552   C553    1.417   .     A
C552   C149    1.386   1_565 S
C554   C590    1.438   .     S
C554   N577    1.377   .     A
C554   C421    1.418   1_655 S
C555   N576    1.362   .     A
C555   H569    1.083   .     S
C556   H570    1.081   .     S
C556   N576    1.361   .     A
C557   C592    1.438   .     S
C557   N577    1.376   .     A
C557   C422    1.417   1_655 S
C558   O583    1.294   .     A
C558   O582    1.293   .     A
C559   C561    1.492   .     S
C559   O585    1.304   .     A
C559   O584    1.302   .     A
C560   C1144   1.418   1_554 S
C560   C1197   1.494   1_554 S
C562   C563    1.387   .     A
C562   H572    1.084   .     S
C563   H573    1.084   .     S
C563   C1167   1.398   .     S
C564   C600    1.491   .     S
C564   C1141   1.430   1_554 S
C564   C1166   1.398   1_554 S
Cu565  O578    1.967   .     S
Cu565  Cu566   2.688   .     S
Cu565  O582    1.965   .     S
Cu565  N576    2.020   .     S
Cu565  O580    1.968   .     S
Cu565  O584    1.961   .     S
Cu566  N577    2.020   .     S
Cu566  O581    1.961   .     S
Cu566  O585    1.968   .     S
Cu566  O579    1.965   .     S
Cu566  O583    1.967   .     S
C586   N587    1.156   .     T
C588   N589    1.158   .     T
C590   N591    1.158   .     T
C592   N593    1.158   .     T
C594   C1163   1.494   .     S
C594   O1064   1.223   1_655 S
C594   O462    1.398   1_655 S
O595   C1130   1.223   1_554 S
O596   H597    1.014   .     S
C598   N599    1.155   .     T
C600   O601    1.221   .     D
C600   O602    1.399   .     S
O602   H603    1.013   .     S
C604   O645    1.292   .     A
C604   C620    1.458   .     S
C604   O646    1.299   .     A
C605   C606    1.413   .     A
C605   C4      1.420   1_556 S
C605   C28     1.430   1_556 S
C606   C613    1.415   .     A
C606   C610    1.414   .     A
C607   C611    1.394   .     A
C608   C609    1.402   .     A
C608   C4      1.408   1_556 S
C608   C24     1.418   1_556 S
C609   C610    1.390   .     A
C609   H638    1.080   .     S
C610   H641    1.081   .     S
C611   C628    1.412   .     A
C611   C665    1.447   .     S
C612   C628    1.423   .     A
C612   C627    1.420   .     A
C612   C653    1.446   .     S
C613   C629    1.400   .     A
C613   C615    1.465   .     S
C614   H642    1.082   .     S
C614   C620    1.403   .     A
C614   C817    1.382   .     S
C615   O648    1.293   .     A
C615   O647    1.301   .     A
C616   C617    1.397   .     A
C616   H634    1.083   .     S
C616   C1016   1.382   1_545 S
C617   C625    1.446   .     S
C617   C618    1.398   .     A
C618   H635    1.085   .     S
C618   C1021   1.386   1_545 S
C619   C655    1.447   .     S
C619   C620    1.417   .     A
C619   C819    1.386   .     S
C621   C657    1.438   .     S
C621   N644    1.377   .     A
C621   C689    1.418   .     S
C622   N643    1.362   .     A
C622   H636    1.083   .     S
C622   C755    1.418   1_455 S
C623   H637    1.081   .     S
C623   N643    1.361   .     A
C623   C758    1.417   1_455 S
C624   C659    1.438   .     S
C624   N644    1.376   .     A
C624   C690    1.417   .     S
C625   O650    1.294   .     A
C625   O649    1.293   .     A
C626   C628    1.492   .     S
C626   O652    1.304   .     A
C626   O651    1.302   .     A
C629   C630    1.387   .     A
C629   H639    1.084   .     S
C630   H640    1.084   .     S
C630   C28     1.398   1_556 S
C631   C667    1.491   .     S
Cu632  O645    1.967   .     S
Cu632  Cu633   2.688   .     S
Cu632  O649    1.965   .     S
Cu632  N643    2.020   .     S
Cu632  O647    1.968   .     S
Cu632  O651    1.961   .     S
Cu633  N644    2.020   .     S
Cu633  O648    1.961   .     S
Cu633  O652    1.968   .     S
Cu633  O646    1.965   .     S
Cu633  O650    1.967   .     S
C653   N654    1.156   .     T
C655   N656    1.158   .     T
C657   N658    1.158   .     T
C659   N660    1.158   .     T
C661   C24     1.494   1_556 S
C661   O126    1.223   1_556 S
C661   O730    1.398   .     S
O662   C192    1.223   1_455 S
O663   H664    1.014   .     S
O663   C795    1.398   1_455 S
C665   N666    1.155   .     T
C667   O668    1.221   .     D
C667   O669    1.399   .     S
O669   H670    1.013   .     S
C671   O712    1.292   .     A
C671   C687    1.458   .     S
C671   O713    1.299   .     A
C672   C673    1.413   .     A
C672   C71     1.420   1_556 S
C672   C95     1.430   1_556 S
C673   C680    1.415   .     A
C673   C677    1.414   .     A
C674   C678    1.394   .     A
C675   C676    1.402   .     A
C675   C71     1.408   1_556 S
C675   C91     1.418   1_556 S
C676   C677    1.390   .     A
C676   H705    1.080   .     S
C677   H708    1.081   .     S
C678   C695    1.412   .     A
C678   C732    1.447   .     S
C679   C695    1.423   .     A
C679   C694    1.420   .     A
C679   C720    1.446   .     S
C680   C696    1.400   .     A
C680   C682    1.465   .     S
C681   H709    1.082   .     S
C681   C687    1.403   .     A
C681   C884    1.382   .     S
C682   O715    1.293   .     A
C682   O714    1.301   .     A
C683   C684    1.397   .     A
C683   H701    1.083   .     S
C683   C1083   1.382   1_545 S
C684   C692    1.446   .     S
C684   C685    1.398   .     A
C685   H702    1.085   .     S
C685   C1088   1.386   1_545 S
C686   C722    1.447   .     S
C686   C687    1.417   .     A
C686   C886    1.386   .     S
C688   C724    1.438   .     S
C688   N711    1.377   .     A
C688   C756    1.418   .     S
C689   N710    1.362   .     A
C689   H703    1.083   .     S
C690   H704    1.081   .     S
C690   N710    1.361   .     A
C691   C726    1.438   .     S
C691   N711    1.376   .     A
C691   C757    1.417   .     S
C692   O717    1.294   .     A
C692   O716    1.293   .     A
C693   C695    1.492   .     S
C693   O719    1.304   .     A
C693   O718    1.302   .     A
C696   C697    1.387   .     A
C696   H706    1.084   .     S
C697   H707    1.084   .     S
C697   C95     1.398   1_556 S
C698   C734    1.491   .     S
Cu699  O712    1.967   .     S
Cu699  Cu700   2.688   .     S
Cu699  O716    1.965   .     S
Cu699  N710    2.020   .     S
Cu699  O714    1.968   .     S
Cu699  O718    1.961   .     S
Cu700  N711    2.020   .     S
Cu700  O715    1.961   .     S
Cu700  O719    1.968   .     S
Cu700  O713    1.965   .     S
Cu700  O717    1.967   .     S
C720   N721    1.156   .     T
C722   N723    1.158   .     T
C724   N725    1.158   .     T
C726   N727    1.158   .     T
C728   C91     1.494   1_556 S
C728   O193    1.223   1_556 S
C728   O797    1.398   .     S
O730   H731    1.014   .     S
C732   N733    1.155   .     T
C734   O735    1.221   .     D
C734   O736    1.399   .     S
O736   H737    1.013   .     S
C738   O779    1.292   .     A
C738   C754    1.458   .     S
C738   O780    1.299   .     A
C739   C740    1.413   .     A
C739   C138    1.420   1_556 S
C739   C162    1.430   1_556 S
C740   C747    1.415   .     A
C740   C744    1.414   .     A
C741   C745    1.394   .     A
C742   C743    1.402   .     A
C742   C138    1.408   1_556 S
C742   C158    1.418   1_556 S
C743   C744    1.390   .     A
C743   H772    1.080   .     S
C744   H775    1.081   .     S
C745   C762    1.412   .     A
C745   C799    1.447   .     S
C746   C762    1.423   .     A
C746   C761    1.420   .     A
C746   C787    1.446   .     S
C747   C763    1.400   .     A
C747   C749    1.465   .     S
C748   H776    1.082   .     S
C748   C754    1.403   .     A
C748   C951    1.382   .     S
C749   O782    1.293   .     A
C749   O781    1.301   .     A
C750   C751    1.397   .     A
C750   H768    1.083   .     S
C750   C1150   1.382   1_545 S
C751   C759    1.446   .     S
C751   C752    1.398   .     A
C752   H769    1.085   .     S
C752   C1155   1.386   1_545 S
C753   C789    1.447   .     S
C753   C754    1.417   .     A
C753   C953    1.386   .     S
C755   C791    1.438   .     S
C755   N778    1.377   .     A
C755   C622    1.418   1_655 S
C756   N777    1.362   .     A
C756   H770    1.083   .     S
C757   H771    1.081   .     S
C757   N777    1.361   .     A
C758   C793    1.438   .     S
C758   N778    1.376   .     A
C758   C623    1.417   1_655 S
C759   O784    1.294   .     A
C759   O783    1.293   .     A
C760   C762    1.492   .     S
C760   O786    1.304   .     A
C760   O785    1.302   .     A
C763   C764    1.387   .     A
C763   H773    1.084   .     S
C764   H774    1.084   .     S
C764   C162    1.398   1_556 S
C765   C801    1.491   .     S
Cu766  O779    1.967   .     S
Cu766  Cu767   2.688   .     S
Cu766  O783    1.965   .     S
Cu766  N777    2.020   .     S
Cu766  O781    1.968   .     S
Cu766  O785    1.961   .     S
Cu767  N778    2.020   .     S
Cu767  O782    1.961   .     S
Cu767  O786    1.968   .     S
Cu767  O780    1.965   .     S
Cu767  O784    1.967   .     S
C787   N788    1.156   .     T
C789   N790    1.158   .     T
C791   N792    1.158   .     T
C793   N794    1.158   .     T
C795   C158    1.494   1_556 S
C795   O59     1.223   1_656 S
C795   O663    1.398   1_655 S
O797   H798    1.014   .     S
C799   N800    1.155   .     T
C801   O802    1.221   .     D
C801   O803    1.399   .     S
O803   H804    1.013   .     S
C805   O846    1.292   .     A
C805   C821    1.458   .     S
C805   O847    1.299   .     A
C806   C807    1.413   .     A
C806   C205    1.420   1_556 S
C806   C229    1.430   1_556 S
C807   C814    1.415   .     A
C807   C811    1.414   .     A
C808   C812    1.394   .     A
C809   C810    1.402   .     A
C809   C205    1.408   1_556 S
C809   C225    1.418   1_556 S
C810   C811    1.390   .     A
C810   H839    1.080   .     S
C811   H842    1.081   .     S
C812   C829    1.412   .     A
C812   C866    1.447   .     S
C813   C829    1.423   .     A
C813   C828    1.420   .     A
C813   C854    1.446   .     S
C814   C830    1.400   .     A
C814   C816    1.465   .     S
C815   H843    1.082   .     S
C815   C821    1.403   .     A
C815   C1018   1.382   .     S
C816   O849    1.293   .     A
C816   O848    1.301   .     A
C817   C818    1.397   .     A
C817   H835    1.083   .     S
C818   C826    1.446   .     S
C818   C819    1.398   .     A
C819   H836    1.085   .     S
C820   C856    1.447   .     S
C820   C821    1.417   .     A
C820   C1020   1.386   .     S
C822   C858    1.438   .     S
C822   N845    1.377   .     A
C822   C890    1.418   .     S
C823   N844    1.362   .     A
C823   H837    1.083   .     S
C823   C956    1.418   1_455 S
C824   H838    1.081   .     S
C824   N844    1.361   .     A
C824   C959    1.417   1_455 S
C825   C860    1.438   .     S
C825   N845    1.376   .     A
C825   C891    1.417   .     S
C826   O851    1.294   .     A
C826   O850    1.293   .     A
C827   C829    1.492   .     S
C827   O853    1.304   .     A
C827   O852    1.302   .     A
C830   C831    1.387   .     A
C830   H840    1.084   .     S
C831   H841    1.084   .     S
C831   C229    1.398   1_556 S
C832   C868    1.491   .     S
Cu833  O846    1.967   .     S
Cu833  Cu834   2.688   .     S
Cu833  O850    1.965   .     S
Cu833  N844    2.020   .     S
Cu833  O848    1.968   .     S
Cu833  O852    1.961   .     S
Cu834  N845    2.020   .     S
Cu834  O849    1.961   .     S
Cu834  O853    1.968   .     S
Cu834  O847    1.965   .     S
Cu834  O851    1.967   .     S
C854   N855    1.156   .     T
C856   N857    1.158   .     T
C858   N859    1.158   .     T
C860   N861    1.158   .     T
C862   C225    1.494   1_556 S
C862   O327    1.223   1_556 S
C862   O931    1.398   .     S
O863   C393    1.223   1_455 S
O864   H865    1.014   .     S
O864   C996    1.398   1_455 S
C866   N867    1.155   .     T
C868   O869    1.221   .     D
C868   O870    1.399   .     S
O870   H871    1.013   .     S
C872   O913    1.292   .     A
C872   C888    1.458   .     S
C872   O914    1.299   .     A
C873   C874    1.413   .     A
C873   C272    1.420   1_556 S
C873   C296    1.430   1_556 S
C874   C881    1.415   .     A
C874   C878    1.414   .     A
C875   C879    1.394   .     A
C876   C877    1.402   .     A
C876   C272    1.408   1_556 S
C876   C292    1.418   1_556 S
C877   C878    1.390   .     A
C877   H906    1.080   .     S
C878   H909    1.081   .     S
C879   C896    1.412   .     A
C879   C933    1.447   .     S
C880   C896    1.423   .     A
C880   C895    1.420   .     A
C880   C921    1.446   .     S
C881   C897    1.400   .     A
C881   C883    1.465   .     S
C882   H910    1.082   .     S
C882   C888    1.403   .     A
C882   C1085   1.382   .     S
C883   O916    1.293   .     A
C883   O915    1.301   .     A
C884   C885    1.397   .     A
C884   H902    1.083   .     S
C885   C893    1.446   .     S
C885   C886    1.398   .     A
C886   H903    1.085   .     S
C887   C923    1.447   .     S
C887   C888    1.417   .     A
C887   C1087   1.386   .     S
C889   C925    1.438   .     S
C889   N912    1.377   .     A
C889   C957    1.418   .     S
C890   N911    1.362   .     A
C890   H904    1.083   .     S
C891   H905    1.081   .     S
C891   N911    1.361   .     A
C892   C927    1.438   .     S
C892   N912    1.376   .     A
C892   C958    1.417   .     S
C893   O918    1.294   .     A
C893   O917    1.293   .     A
C894   C896    1.492   .     S
C894   O920    1.304   .     A
C894   O919    1.302   .     A
C897   C898    1.387   .     A
C897   H907    1.084   .     S
C898   H908    1.084   .     S
C898   C296    1.398   1_556 S
C899   C935    1.491   .     S
Cu900  O913    1.967   .     S
Cu900  Cu901   2.688   .     S
Cu900  O917    1.965   .     S
Cu900  N911    2.020   .     S
Cu900  O915    1.968   .     S
Cu900  O919    1.961   .     S
Cu901  N912    2.020   .     S
Cu901  O916    1.961   .     S
Cu901  O920    1.968   .     S
Cu901  O914    1.965   .     S
Cu901  O918    1.967   .     S
C921   N922    1.156   .     T
C923   N924    1.158   .     T
C925   N926    1.158   .     T
C927   N928    1.158   .     T
C929   C292    1.494   1_556 S
C929   O394    1.223   1_556 S
C929   O998    1.398   .     S
O931   H932    1.014   .     S
C933   N934    1.155   .     T
C935   O936    1.221   .     D
C935   O937    1.399   .     S
O937   H938    1.013   .     S
C939   O980    1.292   .     A
C939   C955    1.458   .     S
C939   O981    1.299   .     A
C940   C941    1.413   .     A
C940   C339    1.420   1_556 S
C940   C363    1.430   1_556 S
C941   C948    1.415   .     A
C941   C945    1.414   .     A
C942   C946    1.394   .     A
C943   C944    1.402   .     A
C943   C339    1.408   1_556 S
C943   C359    1.418   1_556 S
C944   C945    1.390   .     A
C944   H973    1.080   .     S
C945   H976    1.081   .     S
C946   C963    1.412   .     A
C946   C1000   1.447   .     S
C947   C963    1.423   .     A
C947   C962    1.420   .     A
C947   C988    1.446   .     S
C948   C964    1.400   .     A
C948   C950    1.465   .     S
C949   H977    1.082   .     S
C949   C955    1.403   .     A
C949   C1152   1.382   .     S
C950   O983    1.293   .     A
C950   O982    1.301   .     A
C951   C952    1.397   .     A
C951   H969    1.083   .     S
C952   C960    1.446   .     S
C952   C953    1.398   .     A
C953   H970    1.085   .     S
C954   C990    1.447   .     S
C954   C955    1.417   .     A
C954   C1154   1.386   .     S
C956   C992    1.438   .     S
C956   N979    1.377   .     A
C956   C823    1.418   1_655 S
C957   N978    1.362   .     A
C957   H971    1.083   .     S
C958   H972    1.081   .     S
C958   N978    1.361   .     A
C959   C994    1.438   .     S
C959   N979    1.376   .     A
C959   C824    1.417   1_655 S
C960   O985    1.294   .     A
C960   O984    1.293   .     A
C961   C963    1.492   .     S
C961   O987    1.304   .     A
C961   O986    1.302   .     A
C964   C965    1.387   .     A
C964   H974    1.084   .     S
C965   H975    1.084   .     S
C965   C363    1.398   1_556 S
C966   C1002   1.491   .     S
Cu967  O980    1.967   .     S
Cu967  Cu968   2.688   .     S
Cu967  O984    1.965   .     S
Cu967  N978    2.020   .     S
Cu967  O982    1.968   .     S
Cu967  O986    1.961   .     S
Cu968  N979    2.020   .     S
Cu968  O983    1.961   .     S
Cu968  O987    1.968   .     S
Cu968  O981    1.965   .     S
Cu968  O985    1.967   .     S
C988   N989    1.156   .     T
C990   N991    1.158   .     T
C992   N993    1.158   .     T
C994   N995    1.158   .     T
C996   C359    1.494   1_556 S
C996   O260    1.223   1_656 S
C996   O864    1.398   1_655 S
O998   H999    1.014   .     S
C1000  N1001   1.155   .     T
C1002  O1003   1.221   .     D
C1002  O1004   1.399   .     S
O1004  H1005   1.013   .     S
C1006  O1047   1.292   .     A
C1006  C1022   1.458   .     S
C1006  O1048   1.299   .     A
C1007  C1008   1.413   .     A
C1007  C406    1.420   1_556 S
C1007  C430    1.430   1_556 S
C1008  C1015   1.415   .     A
C1008  C1012   1.414   .     A
C1009  C1013   1.394   .     A
C1010  C1011   1.402   .     A
C1010  C406    1.408   1_556 S
C1010  C426    1.418   1_556 S
C1011  C1012   1.390   .     A
C1011  H1040   1.080   .     S
C1012  H1043   1.081   .     S
C1013  C1030   1.412   .     A
C1013  C1067   1.447   .     S
C1014  C1030   1.423   .     A
C1014  C1029   1.420   .     A
C1014  C1055   1.446   .     S
C1015  C1031   1.400   .     A
C1015  C1017   1.465   .     S
C1016  H1044   1.082   .     S
C1016  C1022   1.403   .     A
C1016  C616    1.382   1_565 S
C1017  O1050   1.293   .     A
C1017  O1049   1.301   .     A
C1018  C1019   1.397   .     A
C1018  H1036   1.083   .     S
C1019  C1027   1.446   .     S
C1019  C1020   1.398   .     A
C1020  H1037   1.085   .     S
C1021  C1057   1.447   .     S
C1021  C1022   1.417   .     A
C1021  C618    1.386   1_565 S
C1023  C1059   1.438   .     S
C1023  N1046   1.377   .     A
C1023  C1091   1.418   .     S
C1024  N1045   1.362   .     A
C1024  H1038   1.083   .     S
C1024  C1157   1.418   1_455 S
C1025  H1039   1.081   .     S
C1025  N1045   1.361   .     A
C1025  C1160   1.417   1_455 S
C1026  C1061   1.438   .     S
C1026  N1046   1.376   .     A
C1026  C1092   1.417   .     S
C1027  O1052   1.294   .     A
C1027  O1051   1.293   .     A
C1028  C1030   1.492   .     S
C1028  O1054   1.304   .     A
C1028  O1053   1.302   .     A
C1031  C1032   1.387   .     A
C1031  H1041   1.084   .     S
C1032  H1042   1.084   .     S
C1032  C430    1.398   1_556 S
C1033  C1069   1.491   .     S
Cu1034 O1047   1.967   .     S
Cu1034 Cu1035  2.688   .     S
Cu1034 O1051   1.965   .     S
Cu1034 N1045   2.020   .     S
Cu1034 O1049   1.968   .     S
Cu1034 O1053   1.961   .     S
Cu1035 N1046   2.020   .     S
Cu1035 O1050   1.961   .     S
Cu1035 O1054   1.968   .     S
Cu1035 O1048   1.965   .     S
Cu1035 O1052   1.967   .     S
C1055  N1056   1.156   .     T
C1057  N1058   1.158   .     T
C1059  N1060   1.158   .     T
C1061  N1062   1.158   .     T
C1063  C426    1.494   1_556 S
C1063  O528    1.223   1_556 S
C1063  O1132   1.398   .     S
O1064  C594    1.223   1_455 S
O1065  H1066   1.014   .     S
O1065  C1197   1.398   1_455 S
C1067  N1068   1.155   .     T
C1069  O1070   1.221   .     D
C1069  O1071   1.399   .     S
O1071  H1072   1.013   .     S
C1073  O1114   1.292   .     A
C1073  C1089   1.458   .     S
C1073  O1115   1.299   .     A
C1074  C1075   1.413   .     A
C1074  C473    1.420   1_556 S
C1074  C497    1.430   1_556 S
C1075  C1082   1.415   .     A
C1075  C1079   1.414   .     A
C1076  C1080   1.394   .     A
C1077  C1078   1.402   .     A
C1077  C473    1.408   1_556 S
C1077  C493    1.418   1_556 S
C1078  C1079   1.390   .     A
C1078  H1107   1.080   .     S
C1079  H1110   1.081   .     S
C1080  C1097   1.412   .     A
C1080  C1134   1.447   .     S
C1081  C1097   1.423   .     A
C1081  C1096   1.420   .     A
C1081  C1122   1.446   .     S
C1082  C1098   1.400   .     A
C1082  C1084   1.465   .     S
C1083  H1111   1.082   .     S
C1083  C1089   1.403   .     A
C1083  C683    1.382   1_565 S
C1084  O1117   1.293   .     A
C1084  O1116   1.301   .     A
C1085  C1086   1.397   .     A
C1085  H1103   1.083   .     S
C1086  C1094   1.446   .     S
C1086  C1087   1.398   .     A
C1087  H1104   1.085   .     S
C1088  C1124   1.447   .     S
C1088  C1089   1.417   .     A
C1088  C685    1.386   1_565 S
C1090  C1126   1.438   .     S
C1090  N1113   1.377   .     A
C1090  C1158   1.418   .     S
C1091  N1112   1.362   .     A
C1091  H1105   1.083   .     S
C1092  H1106   1.081   .     S
C1092  N1112   1.361   .     A
C1093  C1128   1.438   .     S
C1093  N1113   1.376   .     A
C1093  C1159   1.417   .     S
C1094  O1119   1.294   .     A
C1094  O1118   1.293   .     A
C1095  C1097   1.492   .     S
C1095  O1121   1.304   .     A
C1095  O1120   1.302   .     A
C1098  C1099   1.387   .     A
C1098  H1108   1.084   .     S
C1099  H1109   1.084   .     S
C1099  C497    1.398   1_556 S
C1100  C1136   1.491   .     S
Cu1101 O1114   1.967   .     S
Cu1101 Cu1102  2.688   .     S
Cu1101 O1118   1.965   .     S
Cu1101 N1112   2.020   .     S
Cu1101 O1116   1.968   .     S
Cu1101 O1120   1.961   .     S
Cu1102 N1113   2.020   .     S
Cu1102 O1117   1.961   .     S
Cu1102 O1121   1.968   .     S
Cu1102 O1115   1.965   .     S
Cu1102 O1119   1.967   .     S
C1122  N1123   1.156   .     T
C1124  N1125   1.158   .     T
C1126  N1127   1.158   .     T
C1128  N1129   1.158   .     T
C1130  C493    1.494   1_556 S
C1130  O595    1.223   1_556 S
C1130  O1199   1.398   .     S
O1132  H1133   1.014   .     S
C1134  N1135   1.155   .     T
C1136  O1137   1.221   .     D
C1136  O1138   1.399   .     S
O1138  H1139   1.013   .     S
C1140  O1181   1.292   .     A
C1140  C1156   1.458   .     S
C1140  O1182   1.299   .     A
C1141  C1142   1.413   .     A
C1141  C540    1.420   1_556 S
C1141  C564    1.430   1_556 S
C1142  C1149   1.415   .     A
C1142  C1146   1.414   .     A
C1143  C1147   1.394   .     A
C1144  C1145   1.402   .     A
C1144  C540    1.408   1_556 S
C1144  C560    1.418   1_556 S
C1145  C1146   1.390   .     A
C1145  H1174   1.080   .     S
C1146  H1177   1.081   .     S
C1147  C1164   1.412   .     A
C1147  C1201   1.447   .     S
C1148  C1164   1.423   .     A
C1148  C1163   1.420   .     A
C1148  C1189   1.446   .     S
C1149  C1165   1.400   .     A
C1149  C1151   1.465   .     S
C1150  H1178   1.082   .     S
C1150  C1156   1.403   .     A
C1150  C750    1.382   1_565 S
C1151  O1184   1.293   .     A
C1151  O1183   1.301   .     A
C1152  C1153   1.397   .     A
C1152  H1170   1.083   .     S
C1153  C1161   1.446   .     S
C1153  C1154   1.398   .     A
C1154  H1171   1.085   .     S
C1155  C1191   1.447   .     S
C1155  C1156   1.417   .     A
C1155  C752    1.386   1_565 S
C1157  C1193   1.438   .     S
C1157  N1180   1.377   .     A
C1157  C1024   1.418   1_655 S
C1158  N1179   1.362   .     A
C1158  H1172   1.083   .     S
C1159  H1173   1.081   .     S
C1159  N1179   1.361   .     A
C1160  C1195   1.438   .     S
C1160  N1180   1.376   .     A
C1160  C1025   1.417   1_655 S
C1161  O1186   1.294   .     A
C1161  O1185   1.293   .     A
C1162  C1164   1.492   .     S
C1162  O1188   1.304   .     A
C1162  O1187   1.302   .     A
C1165  C1166   1.387   .     A
C1165  H1175   1.084   .     S
C1166  H1176   1.084   .     S
C1166  C564    1.398   1_556 S
C1167  C1203   1.491   .     S
Cu1168 O1181   1.967   .     S
Cu1168 Cu1169  2.688   .     S
Cu1168 O1185   1.965   .     S
Cu1168 N1179   2.020   .     S
Cu1168 O1183   1.968   .     S
Cu1168 O1187   1.961   .     S
Cu1169 N1180   2.020   .     S
Cu1169 O1184   1.961   .     S
Cu1169 O1188   1.968   .     S
Cu1169 O1182   1.965   .     S
Cu1169 O1186   1.967   .     S
C1189  N1190   1.156   .     T
C1191  N1192   1.158   .     T
C1193  N1194   1.158   .     T
C1195  N1196   1.158   .     T
C1197  C560    1.494   1_556 S
C1197  O461    1.223   1_656 S
C1197  O1065   1.398   1_655 S
O1199  H1200   1.014   .     S
C1201  N1202   1.155   .     T
C1203  O1204   1.221   .     D
C1203  O1205   1.399   .     S
O1205  H1206   1.013   .     S
