data_str_m2_o10_o16_pcu_sym.87
_audit_creation_date              2020-01-03
_audit_creation_method            'Materials Studio'
_symmetry_space_group_name_H-M    'P1'
_symmetry_Int_Tables_number       1
_symmetry_cell_setting            triclinic
loop_
_symmetry_equiv_pos_as_xyz
  x,y,z
_cell_length_a                    22.9182
_cell_length_b                    26.2185
_cell_length_c                    26.9554
_cell_angle_alpha                 95.9692
_cell_angle_beta                  79.4570
_cell_angle_gamma                 102.8607
loop_
_atom_site_label
_atom_site_type_symbol
_atom_site_fract_x
_atom_site_fract_y
_atom_site_fract_z
_atom_site_U_iso_or_equiv
_atom_site_adp_type
_atom_site_occupancy
C1     C     0.18115   0.26638   0.25234   0.00000  Uiso   1.00
C2     C     0.11809   0.14275   0.39919   0.00000  Uiso   1.00
C3     C     0.18652   0.32229   0.25652   0.00000  Uiso   1.00
C4     C     0.13439   0.15818   0.34578   0.00000  Uiso   1.00
C5     C     0.14973   0.01125   0.23610   0.00000  Uiso   1.00
C6     C     0.15289   0.06694   0.24577   0.00000  Uiso   1.00
C7     C     0.19916   0.17323   0.15401   0.00000  Uiso   1.00
C8     C     0.28640   0.22119   0.02795   0.00000  Uiso   1.00
C9     C     0.21558   0.18354   0.09998   0.00000  Uiso   1.00
C10    C     0.06124   0.11285   0.41666   0.00000  Uiso   1.00
C11    C     0.03747   0.11527   0.46865   0.00000  Uiso   1.00
C12    C     0.14036   0.15430   0.48513   0.00000  Uiso   1.00
C13    C     0.07701   0.14075   0.00325   0.00000  Uiso   1.00
C14    C     0.15244   0.31049   0.15486   0.00000  Uiso   1.00
C15    C     0.02364   0.28724   0.48944   0.00000  Uiso   1.00
C16    C     0.05290   0.04035   0.36234   0.00000  Uiso   1.00
C17    C     0.00867   0.12810   0.07880   0.00000  Uiso   1.00
C18    C     0.28215   0.05317   0.48435   0.00000  Uiso   1.00
C19    C     0.16038   0.15329   0.43259   0.00000  Uiso   1.00
C20    C     0.18506   0.17136   0.01716   0.00000  Uiso   1.00
C21    C     0.24500   0.19529   0.49589   0.00000  Uiso   1.00
C22    C     0.26419   0.18444   0.44414   0.00000  Uiso   1.00
C23    C     0.22205   0.15624   0.41505   0.00000  Uiso   1.00
C24    C     0.17646   0.15662   0.06691   0.00000  Uiso   1.00
C25    C     0.26820   0.21990   0.08063   0.00000  Uiso   1.00
Cu26   Cu    0.10710   0.16105   0.24435   0.00000  Uiso   1.00
Cu27   Cu    0.22623   0.17228   0.25564   0.00000  Uiso   1.00
H28    H     0.31201   0.19057   0.42850   0.00000  Uiso   1.00
H29    H     0.10173   0.05142   0.34606   0.00000  Uiso   1.00
H30    H     0.02885   0.02106   0.33111   0.00000  Uiso   1.00
H31    H     0.01568   0.08743   0.07664   0.00000  Uiso   1.00
H32    H     0.29784   0.12757   0.06823   0.00000  Uiso   1.00
H33    H     0.00546   0.14459   0.11819   0.00000  Uiso   1.00
H34    H     0.29004   0.03760   0.01857   0.00000  Uiso   1.00
H35    H     0.29713   0.02982   0.44975   0.00000  Uiso   1.00
H36    H     0.23239   0.04849   0.48730   0.00000  Uiso   1.00
H37    H     0.21930   0.01193   0.27875   0.00000  Uiso   1.00
H38    H     0.18600   0.01372   0.14414   0.00000  Uiso   1.00
H39    H     0.12464   0.29871   0.12448   0.00000  Uiso   1.00
H40    H     0.17683   0.27863   0.15575   0.00000  Uiso   1.00
H41    H     0.07055   0.29645   0.46818   0.00000  Uiso   1.00
H42    H     0.02012   0.31784   0.02085   0.00000  Uiso   1.00
H43    H     0.32571   0.28784   0.46262   0.00000  Uiso   1.00
H44    H     0.04695   0.01175   0.39142   0.00000  Uiso   1.00
I45    I     0.32457   0.26905   0.12840   0.00000  Uiso   1.00
I46    I     0.01219   0.23868   0.31747   0.00000  Uiso   1.00
I47    I     0.31960   0.08155   0.19784   0.00000  Uiso   1.00
I48    I     0.13429   0.07698   0.08068   0.00000  Uiso   1.00
I49    I     0.24301   0.09182   0.36557   0.00000  Uiso   1.00
N50    N     0.31574   0.18074   0.26416   0.00000  Uiso   1.00
N51    N     0.01759   0.15259   0.23584   0.00000  Uiso   1.00
O52    O     0.12797   0.23807   0.24633   0.00000  Uiso   1.00
O53    O     0.01401   0.23785   0.00887   0.00000  Uiso   1.00
O54    O     0.02742   0.08387   0.38253   0.00000  Uiso   1.00
O55    O     0.05644   0.16226   0.05078   0.00000  Uiso   1.00
O56    O     0.30848   0.10696   0.48267   0.00000  Uiso   1.00
O57    O     0.22858   0.24755   0.25586   0.00000  Uiso   1.00
O58    O     0.09181   0.15960   0.31839   0.00000  Uiso   1.00
O59    O     0.19242   0.16908   0.32793   0.00000  Uiso   1.00
O60    O     0.10476   0.08578   0.24413   0.00000  Uiso   1.00
O61    O     0.20536   0.09526   0.25367   0.00000  Uiso   1.00
O62    O     0.14092   0.16425   0.17207   0.00000  Uiso   1.00
O63    O     0.24152   0.17373   0.18160   0.00000  Uiso   1.00
O64    O     0.11406   0.31745   0.20150   0.00000  Uiso   1.00
C65    C     0.51448   0.26638   0.25234   0.00000  Uiso   1.00
C66    C     0.45142   0.14275   0.39919   0.00000  Uiso   1.00
C67    C     0.51985   0.32229   0.25652   0.00000  Uiso   1.00
C68    C     0.46773   0.15818   0.34578   0.00000  Uiso   1.00
C69    C     0.48306   0.01125   0.23610   0.00000  Uiso   1.00
C70    C     0.48622   0.06694   0.24577   0.00000  Uiso   1.00
C71    C     0.53249   0.17323   0.15401   0.00000  Uiso   1.00
C72    C     0.61973   0.22119   0.02795   0.00000  Uiso   1.00
C73    C     0.54891   0.18354   0.09998   0.00000  Uiso   1.00
C74    C     0.39458   0.11285   0.41666   0.00000  Uiso   1.00
C75    C     0.37081   0.11527   0.46865   0.00000  Uiso   1.00
C76    C     0.47369   0.15430   0.48513   0.00000  Uiso   1.00
C77    C     0.41035   0.14075   0.00325   0.00000  Uiso   1.00
C78    C     0.48577   0.31049   0.15486   0.00000  Uiso   1.00
C79    C     0.35698   0.28724   0.48944   0.00000  Uiso   1.00
C80    C     0.38623   0.04035   0.36234   0.00000  Uiso   1.00
C81    C     0.34200   0.12810   0.07880   0.00000  Uiso   1.00
C82    C     0.61549   0.05317   0.48435   0.00000  Uiso   1.00
C83    C     0.49371   0.15329   0.43259   0.00000  Uiso   1.00
C84    C     0.51840   0.17136   0.01716   0.00000  Uiso   1.00
C85    C     0.57834   0.19529   0.49589   0.00000  Uiso   1.00
C86    C     0.59753   0.18444   0.44414   0.00000  Uiso   1.00
C87    C     0.55538   0.15624   0.41505   0.00000  Uiso   1.00
C88    C     0.50979   0.15662   0.06691   0.00000  Uiso   1.00
C89    C     0.60153   0.21990   0.08063   0.00000  Uiso   1.00
Cu90   Cu    0.44043   0.16105   0.24435   0.00000  Uiso   1.00
Cu91   Cu    0.55957   0.17228   0.25564   0.00000  Uiso   1.00
H92    H     0.64534   0.19057   0.42850   0.00000  Uiso   1.00
H93    H     0.43507   0.05142   0.34606   0.00000  Uiso   1.00
H94    H     0.36218   0.02106   0.33111   0.00000  Uiso   1.00
H95    H     0.34901   0.08743   0.07664   0.00000  Uiso   1.00
H96    H     0.63117   0.12757   0.06823   0.00000  Uiso   1.00
H97    H     0.33879   0.14459   0.11819   0.00000  Uiso   1.00
H98    H     0.62337   0.03760   0.01857   0.00000  Uiso   1.00
H99    H     0.63047   0.02982   0.44975   0.00000  Uiso   1.00
H100   H     0.56573   0.04849   0.48730   0.00000  Uiso   1.00
H101   H     0.55263   0.01193   0.27875   0.00000  Uiso   1.00
H102   H     0.51934   0.01372   0.14414   0.00000  Uiso   1.00
H103   H     0.45798   0.29871   0.12448   0.00000  Uiso   1.00
H104   H     0.51016   0.27863   0.15575   0.00000  Uiso   1.00
H105   H     0.40388   0.29645   0.46818   0.00000  Uiso   1.00
H106   H     0.35346   0.31784   0.02085   0.00000  Uiso   1.00
H107   H     0.65904   0.28784   0.46262   0.00000  Uiso   1.00
H108   H     0.38029   0.01175   0.39142   0.00000  Uiso   1.00
I109   I     0.65790   0.26905   0.12840   0.00000  Uiso   1.00
I110   I     0.34553   0.23868   0.31747   0.00000  Uiso   1.00
I111   I     0.65294   0.08155   0.19784   0.00000  Uiso   1.00
I112   I     0.46762   0.07698   0.08068   0.00000  Uiso   1.00
I113   I     0.57634   0.09182   0.36557   0.00000  Uiso   1.00
N114   N     0.64908   0.18074   0.26416   0.00000  Uiso   1.00
N115   N     0.35092   0.15259   0.23584   0.00000  Uiso   1.00
O116   O     0.46131   0.23807   0.24633   0.00000  Uiso   1.00
O117   O     0.34734   0.23785   0.00887   0.00000  Uiso   1.00
O118   O     0.36075   0.08387   0.38253   0.00000  Uiso   1.00
O119   O     0.38978   0.16226   0.05078   0.00000  Uiso   1.00
O120   O     0.64181   0.10696   0.48267   0.00000  Uiso   1.00
O121   O     0.56191   0.24755   0.25586   0.00000  Uiso   1.00
O122   O     0.42515   0.15960   0.31839   0.00000  Uiso   1.00
O123   O     0.52575   0.16908   0.32793   0.00000  Uiso   1.00
O124   O     0.43809   0.08578   0.24413   0.00000  Uiso   1.00
O125   O     0.53869   0.09526   0.25367   0.00000  Uiso   1.00
O126   O     0.47425   0.16425   0.17207   0.00000  Uiso   1.00
O127   O     0.57485   0.17373   0.18160   0.00000  Uiso   1.00
O128   O     0.44739   0.31745   0.20150   0.00000  Uiso   1.00
C129   C     0.84781   0.26638   0.25234   0.00000  Uiso   1.00
C130   C     0.78475   0.14275   0.39919   0.00000  Uiso   1.00
C131   C     0.85318   0.32229   0.25652   0.00000  Uiso   1.00
C132   C     0.80106   0.15818   0.34578   0.00000  Uiso   1.00
C133   C     0.81640   0.01125   0.23610   0.00000  Uiso   1.00
C134   C     0.81955   0.06694   0.24577   0.00000  Uiso   1.00
C135   C     0.86583   0.17323   0.15401   0.00000  Uiso   1.00
C136   C     0.95307   0.22119   0.02795   0.00000  Uiso   1.00
C137   C     0.88224   0.18354   0.09998   0.00000  Uiso   1.00
C138   C     0.72791   0.11285   0.41666   0.00000  Uiso   1.00
C139   C     0.70414   0.11527   0.46865   0.00000  Uiso   1.00
C140   C     0.80703   0.15430   0.48513   0.00000  Uiso   1.00
C141   C     0.74368   0.14075   0.00325   0.00000  Uiso   1.00
C142   C     0.81911   0.31049   0.15486   0.00000  Uiso   1.00
C143   C     0.69031   0.28724   0.48944   0.00000  Uiso   1.00
C144   C     0.71956   0.04035   0.36234   0.00000  Uiso   1.00
C145   C     0.67533   0.12810   0.07880   0.00000  Uiso   1.00
C146   C     0.94882   0.05317   0.48435   0.00000  Uiso   1.00
C147   C     0.82704   0.15329   0.43259   0.00000  Uiso   1.00
C148   C     0.85173   0.17136   0.01716   0.00000  Uiso   1.00
C149   C     0.91167   0.19529   0.49589   0.00000  Uiso   1.00
C150   C     0.93086   0.18444   0.44414   0.00000  Uiso   1.00
C151   C     0.88872   0.15624   0.41505   0.00000  Uiso   1.00
C152   C     0.84313   0.15662   0.06691   0.00000  Uiso   1.00
C153   C     0.93487   0.21990   0.08063   0.00000  Uiso   1.00
Cu154  Cu    0.77377   0.16105   0.24435   0.00000  Uiso   1.00
Cu155  Cu    0.89290   0.17228   0.25564   0.00000  Uiso   1.00
H156   H     0.97868   0.19057   0.42850   0.00000  Uiso   1.00
H157   H     0.76840   0.05142   0.34606   0.00000  Uiso   1.00
H158   H     0.69551   0.02106   0.33111   0.00000  Uiso   1.00
H159   H     0.68234   0.08743   0.07664   0.00000  Uiso   1.00
H160   H     0.96451   0.12757   0.06823   0.00000  Uiso   1.00
H161   H     0.67212   0.14459   0.11819   0.00000  Uiso   1.00
H162   H     0.95671   0.03760   0.01857   0.00000  Uiso   1.00
H163   H     0.96380   0.02982   0.44975   0.00000  Uiso   1.00
H164   H     0.89906   0.04849   0.48730   0.00000  Uiso   1.00
H165   H     0.88597   0.01193   0.27875   0.00000  Uiso   1.00
H166   H     0.85267   0.01372   0.14414   0.00000  Uiso   1.00
H167   H     0.79131   0.29871   0.12448   0.00000  Uiso   1.00
H168   H     0.84349   0.27863   0.15575   0.00000  Uiso   1.00
H169   H     0.73722   0.29645   0.46818   0.00000  Uiso   1.00
H170   H     0.68679   0.31784   0.02085   0.00000  Uiso   1.00
H171   H     0.99238   0.28784   0.46262   0.00000  Uiso   1.00
H172   H     0.71362   0.01175   0.39142   0.00000  Uiso   1.00
I173   I     0.99123   0.26905   0.12840   0.00000  Uiso   1.00
I174   I     0.67886   0.23868   0.31747   0.00000  Uiso   1.00
I175   I     0.98627   0.08155   0.19784   0.00000  Uiso   1.00
I176   I     0.80096   0.07698   0.08068   0.00000  Uiso   1.00
I177   I     0.90968   0.09182   0.36557   0.00000  Uiso   1.00
N178   N     0.98241   0.18074   0.26416   0.00000  Uiso   1.00
N179   N     0.68426   0.15259   0.23584   0.00000  Uiso   1.00
O180   O     0.79464   0.23807   0.24633   0.00000  Uiso   1.00
O181   O     0.68067   0.23785   0.00887   0.00000  Uiso   1.00
O182   O     0.69408   0.08387   0.38253   0.00000  Uiso   1.00
O183   O     0.72311   0.16226   0.05078   0.00000  Uiso   1.00
O184   O     0.97515   0.10696   0.48267   0.00000  Uiso   1.00
O185   O     0.89524   0.24755   0.25586   0.00000  Uiso   1.00
O186   O     0.75848   0.15960   0.31839   0.00000  Uiso   1.00
O187   O     0.85908   0.16908   0.32793   0.00000  Uiso   1.00
O188   O     0.77142   0.08578   0.24413   0.00000  Uiso   1.00
O189   O     0.87203   0.09526   0.25367   0.00000  Uiso   1.00
O190   O     0.80758   0.16425   0.17207   0.00000  Uiso   1.00
O191   O     0.90819   0.17373   0.18160   0.00000  Uiso   1.00
O192   O     0.78072   0.31745   0.20150   0.00000  Uiso   1.00
C193   C     0.18115   0.59971   0.25234   0.00000  Uiso   1.00
C194   C     0.11809   0.47608   0.39919   0.00000  Uiso   1.00
C195   C     0.18652   0.65562   0.25652   0.00000  Uiso   1.00
C196   C     0.13439   0.49151   0.34578   0.00000  Uiso   1.00
C197   C     0.14973   0.34459   0.23610   0.00000  Uiso   1.00
C198   C     0.15289   0.40027   0.24577   0.00000  Uiso   1.00
C199   C     0.19916   0.50657   0.15401   0.00000  Uiso   1.00
C200   C     0.28640   0.55453   0.02795   0.00000  Uiso   1.00
C201   C     0.21558   0.51688   0.09998   0.00000  Uiso   1.00
C202   C     0.06124   0.44618   0.41666   0.00000  Uiso   1.00
C203   C     0.03747   0.44860   0.46865   0.00000  Uiso   1.00
C204   C     0.14036   0.48764   0.48513   0.00000  Uiso   1.00
C205   C     0.07701   0.47409   0.00325   0.00000  Uiso   1.00
C206   C     0.15244   0.64383   0.15486   0.00000  Uiso   1.00
C207   C     0.02364   0.62057   0.48944   0.00000  Uiso   1.00
C208   C     0.05290   0.37369   0.36234   0.00000  Uiso   1.00
C209   C     0.00867   0.46144   0.07880   0.00000  Uiso   1.00
C210   C     0.28215   0.38650   0.48435   0.00000  Uiso   1.00
C211   C     0.16038   0.48662   0.43259   0.00000  Uiso   1.00
C212   C     0.18506   0.50470   0.01716   0.00000  Uiso   1.00
C213   C     0.24500   0.52862   0.49589   0.00000  Uiso   1.00
C214   C     0.26419   0.51777   0.44414   0.00000  Uiso   1.00
C215   C     0.22205   0.48957   0.41505   0.00000  Uiso   1.00
C216   C     0.17646   0.48995   0.06691   0.00000  Uiso   1.00
C217   C     0.26820   0.55323   0.08063   0.00000  Uiso   1.00
Cu218  Cu    0.10710   0.49439   0.24435   0.00000  Uiso   1.00
Cu219  Cu    0.22623   0.50561   0.25564   0.00000  Uiso   1.00
H220   H     0.31201   0.52390   0.42850   0.00000  Uiso   1.00
H221   H     0.10173   0.38476   0.34606   0.00000  Uiso   1.00
H222   H     0.02885   0.35440   0.33111   0.00000  Uiso   1.00
H223   H     0.01568   0.42077   0.07664   0.00000  Uiso   1.00
H224   H     0.29784   0.46090   0.06823   0.00000  Uiso   1.00
H225   H     0.00546   0.47793   0.11819   0.00000  Uiso   1.00
H226   H     0.29004   0.37094   0.01857   0.00000  Uiso   1.00
H227   H     0.29713   0.36315   0.44975   0.00000  Uiso   1.00
H228   H     0.23239   0.38182   0.48730   0.00000  Uiso   1.00
H229   H     0.21930   0.34526   0.27875   0.00000  Uiso   1.00
H230   H     0.18600   0.34706   0.14414   0.00000  Uiso   1.00
H231   H     0.12464   0.63204   0.12448   0.00000  Uiso   1.00
H232   H     0.17683   0.61197   0.15575   0.00000  Uiso   1.00
H233   H     0.07055   0.62978   0.46818   0.00000  Uiso   1.00
H234   H     0.02012   0.65117   0.02085   0.00000  Uiso   1.00
H235   H     0.32571   0.62117   0.46262   0.00000  Uiso   1.00
H236   H     0.04695   0.34508   0.39142   0.00000  Uiso   1.00
I237   I     0.32457   0.60238   0.12840   0.00000  Uiso   1.00
I238   I     0.01219   0.57201   0.31747   0.00000  Uiso   1.00
I239   I     0.31960   0.41488   0.19784   0.00000  Uiso   1.00
I240   I     0.13429   0.41031   0.08068   0.00000  Uiso   1.00
I241   I     0.24301   0.42515   0.36557   0.00000  Uiso   1.00
N242   N     0.31574   0.51407   0.26416   0.00000  Uiso   1.00
N243   N     0.01759   0.48593   0.23584   0.00000  Uiso   1.00
O244   O     0.12797   0.57141   0.24633   0.00000  Uiso   1.00
O245   O     0.01401   0.57119   0.00887   0.00000  Uiso   1.00
O246   O     0.02742   0.41721   0.38253   0.00000  Uiso   1.00
O247   O     0.05644   0.49560   0.05078   0.00000  Uiso   1.00
O248   O     0.30848   0.44029   0.48267   0.00000  Uiso   1.00
O249   O     0.22858   0.58089   0.25586   0.00000  Uiso   1.00
O250   O     0.09181   0.49293   0.31839   0.00000  Uiso   1.00
O251   O     0.19242   0.50241   0.32793   0.00000  Uiso   1.00
O252   O     0.10476   0.41911   0.24413   0.00000  Uiso   1.00
O253   O     0.20536   0.42859   0.25367   0.00000  Uiso   1.00
O254   O     0.14092   0.49759   0.17207   0.00000  Uiso   1.00
O255   O     0.24152   0.50707   0.18160   0.00000  Uiso   1.00
O256   O     0.11406   0.65078   0.20150   0.00000  Uiso   1.00
C257   C     0.51448   0.59971   0.25234   0.00000  Uiso   1.00
C258   C     0.45142   0.47608   0.39919   0.00000  Uiso   1.00
C259   C     0.51985   0.65562   0.25652   0.00000  Uiso   1.00
C260   C     0.46773   0.49151   0.34578   0.00000  Uiso   1.00
C261   C     0.48306   0.34459   0.23610   0.00000  Uiso   1.00
C262   C     0.48622   0.40027   0.24577   0.00000  Uiso   1.00
C263   C     0.53249   0.50657   0.15401   0.00000  Uiso   1.00
C264   C     0.61973   0.55453   0.02795   0.00000  Uiso   1.00
C265   C     0.54891   0.51688   0.09998   0.00000  Uiso   1.00
C266   C     0.39458   0.44618   0.41666   0.00000  Uiso   1.00
C267   C     0.37081   0.44860   0.46865   0.00000  Uiso   1.00
C268   C     0.47369   0.48764   0.48513   0.00000  Uiso   1.00
C269   C     0.41035   0.47409   0.00325   0.00000  Uiso   1.00
C270   C     0.48577   0.64383   0.15486   0.00000  Uiso   1.00
C271   C     0.35698   0.62057   0.48944   0.00000  Uiso   1.00
C272   C     0.38623   0.37369   0.36234   0.00000  Uiso   1.00
C273   C     0.34200   0.46144   0.07880   0.00000  Uiso   1.00
C274   C     0.61549   0.38650   0.48435   0.00000  Uiso   1.00
C275   C     0.49371   0.48662   0.43259   0.00000  Uiso   1.00
C276   C     0.51840   0.50470   0.01716   0.00000  Uiso   1.00
C277   C     0.57834   0.52862   0.49589   0.00000  Uiso   1.00
C278   C     0.59753   0.51777   0.44414   0.00000  Uiso   1.00
C279   C     0.55538   0.48957   0.41505   0.00000  Uiso   1.00
C280   C     0.50979   0.48995   0.06691   0.00000  Uiso   1.00
C281   C     0.60153   0.55323   0.08063   0.00000  Uiso   1.00
Cu282  Cu    0.44043   0.49439   0.24435   0.00000  Uiso   1.00
Cu283  Cu    0.55957   0.50561   0.25564   0.00000  Uiso   1.00
H284   H     0.64534   0.52390   0.42850   0.00000  Uiso   1.00
H285   H     0.43507   0.38476   0.34606   0.00000  Uiso   1.00
H286   H     0.36218   0.35440   0.33111   0.00000  Uiso   1.00
H287   H     0.34901   0.42077   0.07664   0.00000  Uiso   1.00
H288   H     0.63117   0.46090   0.06823   0.00000  Uiso   1.00
H289   H     0.33879   0.47793   0.11819   0.00000  Uiso   1.00
H290   H     0.62337   0.37094   0.01857   0.00000  Uiso   1.00
H291   H     0.63047   0.36315   0.44975   0.00000  Uiso   1.00
H292   H     0.56573   0.38182   0.48730   0.00000  Uiso   1.00
H293   H     0.55263   0.34526   0.27875   0.00000  Uiso   1.00
H294   H     0.51934   0.34706   0.14414   0.00000  Uiso   1.00
H295   H     0.45798   0.63204   0.12448   0.00000  Uiso   1.00
H296   H     0.51016   0.61197   0.15575   0.00000  Uiso   1.00
H297   H     0.40388   0.62978   0.46818   0.00000  Uiso   1.00
H298   H     0.35346   0.65117   0.02085   0.00000  Uiso   1.00
H299   H     0.65904   0.62117   0.46262   0.00000  Uiso   1.00
H300   H     0.38029   0.34508   0.39142   0.00000  Uiso   1.00
I301   I     0.65790   0.60238   0.12840   0.00000  Uiso   1.00
I302   I     0.34553   0.57201   0.31747   0.00000  Uiso   1.00
I303   I     0.65294   0.41488   0.19784   0.00000  Uiso   1.00
I304   I     0.46762   0.41031   0.08068   0.00000  Uiso   1.00
I305   I     0.57634   0.42515   0.36557   0.00000  Uiso   1.00
N306   N     0.64908   0.51407   0.26416   0.00000  Uiso   1.00
N307   N     0.35092   0.48593   0.23584   0.00000  Uiso   1.00
O308   O     0.46131   0.57141   0.24633   0.00000  Uiso   1.00
O309   O     0.34734   0.57119   0.00887   0.00000  Uiso   1.00
O310   O     0.36075   0.41721   0.38253   0.00000  Uiso   1.00
O311   O     0.38978   0.49560   0.05078   0.00000  Uiso   1.00
O312   O     0.64181   0.44029   0.48267   0.00000  Uiso   1.00
O313   O     0.56191   0.58089   0.25586   0.00000  Uiso   1.00
O314   O     0.42515   0.49293   0.31839   0.00000  Uiso   1.00
O315   O     0.52575   0.50241   0.32793   0.00000  Uiso   1.00
O316   O     0.43809   0.41911   0.24413   0.00000  Uiso   1.00
O317   O     0.53869   0.42859   0.25367   0.00000  Uiso   1.00
O318   O     0.47425   0.49759   0.17207   0.00000  Uiso   1.00
O319   O     0.57485   0.50707   0.18160   0.00000  Uiso   1.00
O320   O     0.44739   0.65078   0.20150   0.00000  Uiso   1.00
C321   C     0.84781   0.59971   0.25234   0.00000  Uiso   1.00
C322   C     0.78475   0.47608   0.39919   0.00000  Uiso   1.00
C323   C     0.85318   0.65562   0.25652   0.00000  Uiso   1.00
C324   C     0.80106   0.49151   0.34578   0.00000  Uiso   1.00
C325   C     0.81640   0.34459   0.23610   0.00000  Uiso   1.00
C326   C     0.81955   0.40027   0.24577   0.00000  Uiso   1.00
C327   C     0.86583   0.50657   0.15401   0.00000  Uiso   1.00
C328   C     0.95307   0.55453   0.02795   0.00000  Uiso   1.00
C329   C     0.88224   0.51688   0.09998   0.00000  Uiso   1.00
C330   C     0.72791   0.44618   0.41666   0.00000  Uiso   1.00
C331   C     0.70414   0.44860   0.46865   0.00000  Uiso   1.00
C332   C     0.80703   0.48764   0.48513   0.00000  Uiso   1.00
C333   C     0.74368   0.47409   0.00325   0.00000  Uiso   1.00
C334   C     0.81911   0.64383   0.15486   0.00000  Uiso   1.00
C335   C     0.69031   0.62057   0.48944   0.00000  Uiso   1.00
C336   C     0.71956   0.37369   0.36234   0.00000  Uiso   1.00
C337   C     0.67533   0.46144   0.07880   0.00000  Uiso   1.00
C338   C     0.94882   0.38650   0.48435   0.00000  Uiso   1.00
C339   C     0.82704   0.48662   0.43259   0.00000  Uiso   1.00
C340   C     0.85173   0.50470   0.01716   0.00000  Uiso   1.00
C341   C     0.91167   0.52862   0.49589   0.00000  Uiso   1.00
C342   C     0.93086   0.51777   0.44414   0.00000  Uiso   1.00
C343   C     0.88872   0.48957   0.41505   0.00000  Uiso   1.00
C344   C     0.84313   0.48995   0.06691   0.00000  Uiso   1.00
C345   C     0.93487   0.55323   0.08063   0.00000  Uiso   1.00
Cu346  Cu    0.77377   0.49439   0.24435   0.00000  Uiso   1.00
Cu347  Cu    0.89290   0.50561   0.25564   0.00000  Uiso   1.00
H348   H     0.97868   0.52390   0.42850   0.00000  Uiso   1.00
H349   H     0.76840   0.38476   0.34606   0.00000  Uiso   1.00
H350   H     0.69551   0.35440   0.33111   0.00000  Uiso   1.00
H351   H     0.68234   0.42077   0.07664   0.00000  Uiso   1.00
H352   H     0.96451   0.46090   0.06823   0.00000  Uiso   1.00
H353   H     0.67212   0.47793   0.11819   0.00000  Uiso   1.00
H354   H     0.95671   0.37094   0.01857   0.00000  Uiso   1.00
H355   H     0.96380   0.36315   0.44975   0.00000  Uiso   1.00
H356   H     0.89906   0.38182   0.48730   0.00000  Uiso   1.00
H357   H     0.88597   0.34526   0.27875   0.00000  Uiso   1.00
H358   H     0.85267   0.34706   0.14414   0.00000  Uiso   1.00
H359   H     0.79131   0.63204   0.12448   0.00000  Uiso   1.00
H360   H     0.84349   0.61197   0.15575   0.00000  Uiso   1.00
H361   H     0.73722   0.62978   0.46818   0.00000  Uiso   1.00
H362   H     0.68679   0.65117   0.02085   0.00000  Uiso   1.00
H363   H     0.99238   0.62117   0.46262   0.00000  Uiso   1.00
H364   H     0.71362   0.34508   0.39142   0.00000  Uiso   1.00
I365   I     0.99123   0.60238   0.12840   0.00000  Uiso   1.00
I366   I     0.67886   0.57201   0.31747   0.00000  Uiso   1.00
I367   I     0.98627   0.41488   0.19784   0.00000  Uiso   1.00
I368   I     0.80096   0.41031   0.08068   0.00000  Uiso   1.00
I369   I     0.90968   0.42515   0.36557   0.00000  Uiso   1.00
N370   N     0.98241   0.51407   0.26416   0.00000  Uiso   1.00
N371   N     0.68426   0.48593   0.23584   0.00000  Uiso   1.00
O372   O     0.79464   0.57141   0.24633   0.00000  Uiso   1.00
O373   O     0.68067   0.57119   0.00887   0.00000  Uiso   1.00
O374   O     0.69408   0.41721   0.38253   0.00000  Uiso   1.00
O375   O     0.72311   0.49560   0.05078   0.00000  Uiso   1.00
O376   O     0.97515   0.44029   0.48267   0.00000  Uiso   1.00
O377   O     0.89524   0.58089   0.25586   0.00000  Uiso   1.00
O378   O     0.75848   0.49293   0.31839   0.00000  Uiso   1.00
O379   O     0.85908   0.50241   0.32793   0.00000  Uiso   1.00
O380   O     0.77142   0.41911   0.24413   0.00000  Uiso   1.00
O381   O     0.87203   0.42859   0.25367   0.00000  Uiso   1.00
O382   O     0.80758   0.49759   0.17207   0.00000  Uiso   1.00
O383   O     0.90819   0.50707   0.18160   0.00000  Uiso   1.00
O384   O     0.78072   0.65078   0.20150   0.00000  Uiso   1.00
C385   C     0.18115   0.93305   0.25234   0.00000  Uiso   1.00
C386   C     0.11809   0.80941   0.39919   0.00000  Uiso   1.00
C387   C     0.18652   0.98895   0.25652   0.00000  Uiso   1.00
C388   C     0.13439   0.82484   0.34578   0.00000  Uiso   1.00
C389   C     0.14973   0.67792   0.23610   0.00000  Uiso   1.00
C390   C     0.15289   0.73360   0.24577   0.00000  Uiso   1.00
C391   C     0.19916   0.83990   0.15401   0.00000  Uiso   1.00
C392   C     0.28640   0.88786   0.02795   0.00000  Uiso   1.00
C393   C     0.21558   0.85021   0.09998   0.00000  Uiso   1.00
C394   C     0.06124   0.77952   0.41666   0.00000  Uiso   1.00
C395   C     0.03747   0.78193   0.46865   0.00000  Uiso   1.00
C396   C     0.14036   0.82097   0.48513   0.00000  Uiso   1.00
C397   C     0.07701   0.80742   0.00325   0.00000  Uiso   1.00
C398   C     0.15244   0.97716   0.15486   0.00000  Uiso   1.00
C399   C     0.02364   0.95391   0.48944   0.00000  Uiso   1.00
C400   C     0.05290   0.70702   0.36234   0.00000  Uiso   1.00
C401   C     0.00867   0.79477   0.07880   0.00000  Uiso   1.00
C402   C     0.28215   0.71984   0.48435   0.00000  Uiso   1.00
C403   C     0.16038   0.81996   0.43259   0.00000  Uiso   1.00
C404   C     0.18506   0.83803   0.01716   0.00000  Uiso   1.00
C405   C     0.24500   0.86196   0.49589   0.00000  Uiso   1.00
C406   C     0.26419   0.85110   0.44414   0.00000  Uiso   1.00
C407   C     0.22205   0.82290   0.41505   0.00000  Uiso   1.00
C408   C     0.17646   0.82329   0.06691   0.00000  Uiso   1.00
C409   C     0.26820   0.88656   0.08063   0.00000  Uiso   1.00
Cu410  Cu    0.10710   0.82772   0.24435   0.00000  Uiso   1.00
Cu411  Cu    0.22623   0.83895   0.25564   0.00000  Uiso   1.00
H412   H     0.31201   0.85724   0.42850   0.00000  Uiso   1.00
H413   H     0.10173   0.71809   0.34606   0.00000  Uiso   1.00
H414   H     0.02885   0.68773   0.33111   0.00000  Uiso   1.00
H415   H     0.01568   0.75410   0.07664   0.00000  Uiso   1.00
H416   H     0.29784   0.79424   0.06823   0.00000  Uiso   1.00
H417   H     0.00546   0.81126   0.11819   0.00000  Uiso   1.00
H418   H     0.29004   0.70427   0.01857   0.00000  Uiso   1.00
H419   H     0.29713   0.69648   0.44975   0.00000  Uiso   1.00
H420   H     0.23239   0.71516   0.48730   0.00000  Uiso   1.00
H421   H     0.21930   0.67860   0.27875   0.00000  Uiso   1.00
H422   H     0.18600   0.68039   0.14414   0.00000  Uiso   1.00
H423   H     0.12464   0.96537   0.12448   0.00000  Uiso   1.00
H424   H     0.17683   0.94530   0.15575   0.00000  Uiso   1.00
H425   H     0.07055   0.96312   0.46818   0.00000  Uiso   1.00
H426   H     0.02012   0.98450   0.02085   0.00000  Uiso   1.00
H427   H     0.32571   0.95450   0.46262   0.00000  Uiso   1.00
H428   H     0.04695   0.67842   0.39142   0.00000  Uiso   1.00
I429   I     0.32457   0.93571   0.12840   0.00000  Uiso   1.00
I430   I     0.01219   0.90535   0.31747   0.00000  Uiso   1.00
I431   I     0.31960   0.74822   0.19784   0.00000  Uiso   1.00
I432   I     0.13429   0.74364   0.08068   0.00000  Uiso   1.00
I433   I     0.24301   0.75848   0.36557   0.00000  Uiso   1.00
N434   N     0.31574   0.84741   0.26416   0.00000  Uiso   1.00
N435   N     0.01759   0.81926   0.23584   0.00000  Uiso   1.00
O436   O     0.12797   0.90474   0.24633   0.00000  Uiso   1.00
O437   O     0.01401   0.90452   0.00887   0.00000  Uiso   1.00
O438   O     0.02742   0.75054   0.38253   0.00000  Uiso   1.00
O439   O     0.05644   0.82893   0.05078   0.00000  Uiso   1.00
O440   O     0.30848   0.77363   0.48267   0.00000  Uiso   1.00
O441   O     0.22858   0.91422   0.25586   0.00000  Uiso   1.00
O442   O     0.09181   0.82627   0.31839   0.00000  Uiso   1.00
O443   O     0.19242   0.83575   0.32793   0.00000  Uiso   1.00
O444   O     0.10476   0.75245   0.24413   0.00000  Uiso   1.00
O445   O     0.20536   0.76193   0.25367   0.00000  Uiso   1.00
O446   O     0.14092   0.83092   0.17207   0.00000  Uiso   1.00
O447   O     0.24152   0.84040   0.18160   0.00000  Uiso   1.00
O448   O     0.11406   0.98412   0.20150   0.00000  Uiso   1.00
C449   C     0.51448   0.93305   0.25234   0.00000  Uiso   1.00
C450   C     0.45142   0.80941   0.39919   0.00000  Uiso   1.00
C451   C     0.51985   0.98895   0.25652   0.00000  Uiso   1.00
C452   C     0.46773   0.82484   0.34578   0.00000  Uiso   1.00
C453   C     0.48306   0.67792   0.23610   0.00000  Uiso   1.00
C454   C     0.48622   0.73360   0.24577   0.00000  Uiso   1.00
C455   C     0.53249   0.83990   0.15401   0.00000  Uiso   1.00
C456   C     0.61973   0.88786   0.02795   0.00000  Uiso   1.00
C457   C     0.54891   0.85021   0.09998   0.00000  Uiso   1.00
C458   C     0.39458   0.77952   0.41666   0.00000  Uiso   1.00
C459   C     0.37081   0.78193   0.46865   0.00000  Uiso   1.00
C460   C     0.47369   0.82097   0.48513   0.00000  Uiso   1.00
C461   C     0.41035   0.80742   0.00325   0.00000  Uiso   1.00
C462   C     0.48577   0.97716   0.15486   0.00000  Uiso   1.00
C463   C     0.35698   0.95391   0.48944   0.00000  Uiso   1.00
C464   C     0.38623   0.70702   0.36234   0.00000  Uiso   1.00
C465   C     0.34200   0.79477   0.07880   0.00000  Uiso   1.00
C466   C     0.61549   0.71984   0.48435   0.00000  Uiso   1.00
C467   C     0.49371   0.81996   0.43259   0.00000  Uiso   1.00
C468   C     0.51840   0.83803   0.01716   0.00000  Uiso   1.00
C469   C     0.57834   0.86196   0.49589   0.00000  Uiso   1.00
C470   C     0.59753   0.85110   0.44414   0.00000  Uiso   1.00
C471   C     0.55538   0.82290   0.41505   0.00000  Uiso   1.00
C472   C     0.50979   0.82329   0.06691   0.00000  Uiso   1.00
C473   C     0.60153   0.88656   0.08063   0.00000  Uiso   1.00
Cu474  Cu    0.44043   0.82772   0.24435   0.00000  Uiso   1.00
Cu475  Cu    0.55957   0.83895   0.25564   0.00000  Uiso   1.00
H476   H     0.64534   0.85724   0.42850   0.00000  Uiso   1.00
H477   H     0.43507   0.71809   0.34606   0.00000  Uiso   1.00
H478   H     0.36218   0.68773   0.33111   0.00000  Uiso   1.00
H479   H     0.34901   0.75410   0.07664   0.00000  Uiso   1.00
H480   H     0.63117   0.79424   0.06823   0.00000  Uiso   1.00
H481   H     0.33879   0.81126   0.11819   0.00000  Uiso   1.00
H482   H     0.62337   0.70427   0.01857   0.00000  Uiso   1.00
H483   H     0.63047   0.69648   0.44975   0.00000  Uiso   1.00
H484   H     0.56573   0.71516   0.48730   0.00000  Uiso   1.00
H485   H     0.55263   0.67860   0.27875   0.00000  Uiso   1.00
H486   H     0.51934   0.68039   0.14414   0.00000  Uiso   1.00
H487   H     0.45798   0.96537   0.12448   0.00000  Uiso   1.00
H488   H     0.51016   0.94530   0.15575   0.00000  Uiso   1.00
H489   H     0.40388   0.96312   0.46818   0.00000  Uiso   1.00
H490   H     0.35346   0.98450   0.02085   0.00000  Uiso   1.00
H491   H     0.65904   0.95450   0.46262   0.00000  Uiso   1.00
H492   H     0.38029   0.67842   0.39142   0.00000  Uiso   1.00
I493   I     0.65790   0.93571   0.12840   0.00000  Uiso   1.00
I494   I     0.34553   0.90535   0.31747   0.00000  Uiso   1.00
I495   I     0.65294   0.74822   0.19784   0.00000  Uiso   1.00
I496   I     0.46762   0.74364   0.08068   0.00000  Uiso   1.00
I497   I     0.57634   0.75848   0.36557   0.00000  Uiso   1.00
N498   N     0.64908   0.84741   0.26416   0.00000  Uiso   1.00
N499   N     0.35092   0.81926   0.23584   0.00000  Uiso   1.00
O500   O     0.46131   0.90474   0.24633   0.00000  Uiso   1.00
O501   O     0.34734   0.90452   0.00887   0.00000  Uiso   1.00
O502   O     0.36075   0.75054   0.38253   0.00000  Uiso   1.00
O503   O     0.38978   0.82893   0.05078   0.00000  Uiso   1.00
O504   O     0.64181   0.77363   0.48267   0.00000  Uiso   1.00
O505   O     0.56191   0.91422   0.25586   0.00000  Uiso   1.00
O506   O     0.42515   0.82627   0.31839   0.00000  Uiso   1.00
O507   O     0.52575   0.83575   0.32793   0.00000  Uiso   1.00
O508   O     0.43809   0.75245   0.24413   0.00000  Uiso   1.00
O509   O     0.53869   0.76193   0.25367   0.00000  Uiso   1.00
O510   O     0.47425   0.83092   0.17207   0.00000  Uiso   1.00
O511   O     0.57485   0.84040   0.18160   0.00000  Uiso   1.00
O512   O     0.44739   0.98412   0.20150   0.00000  Uiso   1.00
C513   C     0.84781   0.93305   0.25234   0.00000  Uiso   1.00
C514   C     0.78475   0.80941   0.39919   0.00000  Uiso   1.00
C515   C     0.85318   0.98895   0.25652   0.00000  Uiso   1.00
C516   C     0.80106   0.82484   0.34578   0.00000  Uiso   1.00
C517   C     0.81640   0.67792   0.23610   0.00000  Uiso   1.00
C518   C     0.81955   0.73360   0.24577   0.00000  Uiso   1.00
C519   C     0.86583   0.83990   0.15401   0.00000  Uiso   1.00
C520   C     0.95307   0.88786   0.02795   0.00000  Uiso   1.00
C521   C     0.88224   0.85021   0.09998   0.00000  Uiso   1.00
C522   C     0.72791   0.77952   0.41666   0.00000  Uiso   1.00
C523   C     0.70414   0.78193   0.46865   0.00000  Uiso   1.00
C524   C     0.80703   0.82097   0.48513   0.00000  Uiso   1.00
C525   C     0.74368   0.80742   0.00325   0.00000  Uiso   1.00
C526   C     0.81911   0.97716   0.15486   0.00000  Uiso   1.00
C527   C     0.69031   0.95391   0.48944   0.00000  Uiso   1.00
C528   C     0.71956   0.70702   0.36234   0.00000  Uiso   1.00
C529   C     0.67533   0.79477   0.07880   0.00000  Uiso   1.00
C530   C     0.94882   0.71984   0.48435   0.00000  Uiso   1.00
C531   C     0.82704   0.81996   0.43259   0.00000  Uiso   1.00
C532   C     0.85173   0.83803   0.01716   0.00000  Uiso   1.00
C533   C     0.91167   0.86196   0.49589   0.00000  Uiso   1.00
C534   C     0.93086   0.85110   0.44414   0.00000  Uiso   1.00
C535   C     0.88872   0.82290   0.41505   0.00000  Uiso   1.00
C536   C     0.84313   0.82329   0.06691   0.00000  Uiso   1.00
C537   C     0.93487   0.88656   0.08063   0.00000  Uiso   1.00
Cu538  Cu    0.77377   0.82772   0.24435   0.00000  Uiso   1.00
Cu539  Cu    0.89290   0.83895   0.25564   0.00000  Uiso   1.00
H540   H     0.97868   0.85724   0.42850   0.00000  Uiso   1.00
H541   H     0.76840   0.71809   0.34606   0.00000  Uiso   1.00
H542   H     0.69551   0.68773   0.33111   0.00000  Uiso   1.00
H543   H     0.68234   0.75410   0.07664   0.00000  Uiso   1.00
H544   H     0.96451   0.79424   0.06823   0.00000  Uiso   1.00
H545   H     0.67212   0.81126   0.11819   0.00000  Uiso   1.00
H546   H     0.95671   0.70427   0.01857   0.00000  Uiso   1.00
H547   H     0.96380   0.69648   0.44975   0.00000  Uiso   1.00
H548   H     0.89906   0.71516   0.48730   0.00000  Uiso   1.00
H549   H     0.88597   0.67860   0.27875   0.00000  Uiso   1.00
H550   H     0.85267   0.68039   0.14414   0.00000  Uiso   1.00
H551   H     0.79131   0.96537   0.12448   0.00000  Uiso   1.00
H552   H     0.84349   0.94530   0.15575   0.00000  Uiso   1.00
H553   H     0.73722   0.96312   0.46818   0.00000  Uiso   1.00
H554   H     0.68679   0.98450   0.02085   0.00000  Uiso   1.00
H555   H     0.99238   0.95450   0.46262   0.00000  Uiso   1.00
H556   H     0.71362   0.67842   0.39142   0.00000  Uiso   1.00
I557   I     0.99123   0.93571   0.12840   0.00000  Uiso   1.00
I558   I     0.67886   0.90535   0.31747   0.00000  Uiso   1.00
I559   I     0.98627   0.74822   0.19784   0.00000  Uiso   1.00
I560   I     0.80096   0.74364   0.08068   0.00000  Uiso   1.00
I561   I     0.90968   0.75848   0.36557   0.00000  Uiso   1.00
N562   N     0.98241   0.84741   0.26416   0.00000  Uiso   1.00
N563   N     0.68426   0.81926   0.23584   0.00000  Uiso   1.00
O564   O     0.79464   0.90474   0.24633   0.00000  Uiso   1.00
O565   O     0.68067   0.90452   0.00887   0.00000  Uiso   1.00
O566   O     0.69408   0.75054   0.38253   0.00000  Uiso   1.00
O567   O     0.72311   0.82893   0.05078   0.00000  Uiso   1.00
O568   O     0.97515   0.77363   0.48267   0.00000  Uiso   1.00
O569   O     0.89524   0.91422   0.25586   0.00000  Uiso   1.00
O570   O     0.75848   0.82627   0.31839   0.00000  Uiso   1.00
O571   O     0.85908   0.83575   0.32793   0.00000  Uiso   1.00
O572   O     0.77142   0.75245   0.24413   0.00000  Uiso   1.00
O573   O     0.87203   0.76193   0.25367   0.00000  Uiso   1.00
O574   O     0.80758   0.83092   0.17207   0.00000  Uiso   1.00
O575   O     0.90819   0.84040   0.18160   0.00000  Uiso   1.00
O576   O     0.78072   0.98412   0.20150   0.00000  Uiso   1.00
C577   C     0.18115   0.26638   0.75234   0.00000  Uiso   1.00
C578   C     0.11809   0.14275   0.89919   0.00000  Uiso   1.00
C579   C     0.18652   0.32229   0.75652   0.00000  Uiso   1.00
C580   C     0.13439   0.15818   0.84578   0.00000  Uiso   1.00
C581   C     0.14973   0.01125   0.73610   0.00000  Uiso   1.00
C582   C     0.15289   0.06694   0.74577   0.00000  Uiso   1.00
C583   C     0.19916   0.17323   0.65401   0.00000  Uiso   1.00
C584   C     0.28640   0.22119   0.52795   0.00000  Uiso   1.00
C585   C     0.21558   0.18354   0.59998   0.00000  Uiso   1.00
C586   C     0.06124   0.11285   0.91666   0.00000  Uiso   1.00
C587   C     0.03747   0.11527   0.96865   0.00000  Uiso   1.00
C588   C     0.14036   0.15430   0.98513   0.00000  Uiso   1.00
C589   C     0.07701   0.14075   0.50325   0.00000  Uiso   1.00
C590   C     0.15244   0.31049   0.65486   0.00000  Uiso   1.00
C591   C     0.02364   0.28724   0.98944   0.00000  Uiso   1.00
C592   C     0.05290   0.04035   0.86234   0.00000  Uiso   1.00
C593   C     0.00867   0.12810   0.57880   0.00000  Uiso   1.00
C594   C     0.28215   0.05317   0.98435   0.00000  Uiso   1.00
C595   C     0.16038   0.15329   0.93259   0.00000  Uiso   1.00
C596   C     0.18506   0.17136   0.51716   0.00000  Uiso   1.00
C597   C     0.24500   0.19529   0.99589   0.00000  Uiso   1.00
C598   C     0.26419   0.18444   0.94414   0.00000  Uiso   1.00
C599   C     0.22205   0.15624   0.91505   0.00000  Uiso   1.00
C600   C     0.17646   0.15662   0.56691   0.00000  Uiso   1.00
C601   C     0.26820   0.21990   0.58063   0.00000  Uiso   1.00
Cu602  Cu    0.10710   0.16105   0.74435   0.00000  Uiso   1.00
Cu603  Cu    0.22623   0.17228   0.75564   0.00000  Uiso   1.00
H604   H     0.31201   0.19057   0.92850   0.00000  Uiso   1.00
H605   H     0.10173   0.05142   0.84606   0.00000  Uiso   1.00
H606   H     0.02885   0.02106   0.83111   0.00000  Uiso   1.00
H607   H     0.01568   0.08743   0.57664   0.00000  Uiso   1.00
H608   H     0.29784   0.12757   0.56823   0.00000  Uiso   1.00
H609   H     0.00546   0.14459   0.61819   0.00000  Uiso   1.00
H610   H     0.29004   0.03760   0.51857   0.00000  Uiso   1.00
H611   H     0.29713   0.02982   0.94975   0.00000  Uiso   1.00
H612   H     0.23239   0.04849   0.98730   0.00000  Uiso   1.00
H613   H     0.21930   0.01193   0.77875   0.00000  Uiso   1.00
H614   H     0.18600   0.01372   0.64414   0.00000  Uiso   1.00
H615   H     0.12464   0.29871   0.62448   0.00000  Uiso   1.00
H616   H     0.17683   0.27863   0.65575   0.00000  Uiso   1.00
H617   H     0.07055   0.29645   0.96818   0.00000  Uiso   1.00
H618   H     0.02012   0.31784   0.52085   0.00000  Uiso   1.00
H619   H     0.32571   0.28784   0.96262   0.00000  Uiso   1.00
H620   H     0.04695   0.01175   0.89142   0.00000  Uiso   1.00
I621   I     0.32457   0.26905   0.62840   0.00000  Uiso   1.00
I622   I     0.01219   0.23868   0.81747   0.00000  Uiso   1.00
I623   I     0.31960   0.08155   0.69784   0.00000  Uiso   1.00
I624   I     0.13429   0.07698   0.58068   0.00000  Uiso   1.00
I625   I     0.24301   0.09182   0.86557   0.00000  Uiso   1.00
N626   N     0.31574   0.18074   0.76416   0.00000  Uiso   1.00
N627   N     0.01759   0.15259   0.73584   0.00000  Uiso   1.00
O628   O     0.12797   0.23807   0.74633   0.00000  Uiso   1.00
O629   O     0.01401   0.23785   0.50887   0.00000  Uiso   1.00
O630   O     0.02742   0.08387   0.88253   0.00000  Uiso   1.00
O631   O     0.05644   0.16226   0.55078   0.00000  Uiso   1.00
O632   O     0.30848   0.10696   0.98267   0.00000  Uiso   1.00
O633   O     0.22858   0.24755   0.75586   0.00000  Uiso   1.00
O634   O     0.09181   0.15960   0.81839   0.00000  Uiso   1.00
O635   O     0.19242   0.16908   0.82793   0.00000  Uiso   1.00
O636   O     0.10476   0.08578   0.74413   0.00000  Uiso   1.00
O637   O     0.20536   0.09526   0.75367   0.00000  Uiso   1.00
O638   O     0.14092   0.16425   0.67207   0.00000  Uiso   1.00
O639   O     0.24152   0.17373   0.68160   0.00000  Uiso   1.00
O640   O     0.11406   0.31745   0.70150   0.00000  Uiso   1.00
C641   C     0.51448   0.26638   0.75234   0.00000  Uiso   1.00
C642   C     0.45142   0.14275   0.89919   0.00000  Uiso   1.00
C643   C     0.51985   0.32229   0.75652   0.00000  Uiso   1.00
C644   C     0.46773   0.15818   0.84578   0.00000  Uiso   1.00
C645   C     0.48306   0.01125   0.73610   0.00000  Uiso   1.00
C646   C     0.48622   0.06694   0.74577   0.00000  Uiso   1.00
C647   C     0.53249   0.17323   0.65401   0.00000  Uiso   1.00
C648   C     0.61973   0.22119   0.52795   0.00000  Uiso   1.00
C649   C     0.54891   0.18354   0.59998   0.00000  Uiso   1.00
C650   C     0.39458   0.11285   0.91666   0.00000  Uiso   1.00
C651   C     0.37081   0.11527   0.96865   0.00000  Uiso   1.00
C652   C     0.47369   0.15430   0.98513   0.00000  Uiso   1.00
C653   C     0.41035   0.14075   0.50325   0.00000  Uiso   1.00
C654   C     0.48577   0.31049   0.65486   0.00000  Uiso   1.00
C655   C     0.35698   0.28724   0.98944   0.00000  Uiso   1.00
C656   C     0.38623   0.04035   0.86234   0.00000  Uiso   1.00
C657   C     0.34200   0.12810   0.57880   0.00000  Uiso   1.00
C658   C     0.61549   0.05317   0.98435   0.00000  Uiso   1.00
C659   C     0.49371   0.15329   0.93259   0.00000  Uiso   1.00
C660   C     0.51840   0.17136   0.51716   0.00000  Uiso   1.00
C661   C     0.57834   0.19529   0.99589   0.00000  Uiso   1.00
C662   C     0.59753   0.18444   0.94414   0.00000  Uiso   1.00
C663   C     0.55538   0.15624   0.91505   0.00000  Uiso   1.00
C664   C     0.50979   0.15662   0.56691   0.00000  Uiso   1.00
C665   C     0.60153   0.21990   0.58063   0.00000  Uiso   1.00
Cu666  Cu    0.44043   0.16105   0.74435   0.00000  Uiso   1.00
Cu667  Cu    0.55957   0.17228   0.75564   0.00000  Uiso   1.00
H668   H     0.64534   0.19057   0.92850   0.00000  Uiso   1.00
H669   H     0.43507   0.05142   0.84606   0.00000  Uiso   1.00
H670   H     0.36218   0.02106   0.83111   0.00000  Uiso   1.00
H671   H     0.34901   0.08743   0.57664   0.00000  Uiso   1.00
H672   H     0.63117   0.12757   0.56823   0.00000  Uiso   1.00
H673   H     0.33879   0.14459   0.61819   0.00000  Uiso   1.00
H674   H     0.62337   0.03760   0.51857   0.00000  Uiso   1.00
H675   H     0.63047   0.02982   0.94975   0.00000  Uiso   1.00
H676   H     0.56573   0.04849   0.98730   0.00000  Uiso   1.00
H677   H     0.55263   0.01193   0.77875   0.00000  Uiso   1.00
H678   H     0.51934   0.01372   0.64414   0.00000  Uiso   1.00
H679   H     0.45798   0.29871   0.62448   0.00000  Uiso   1.00
H680   H     0.51016   0.27863   0.65575   0.00000  Uiso   1.00
H681   H     0.40388   0.29645   0.96818   0.00000  Uiso   1.00
H682   H     0.35346   0.31784   0.52085   0.00000  Uiso   1.00
H683   H     0.65904   0.28784   0.96262   0.00000  Uiso   1.00
H684   H     0.38029   0.01175   0.89142   0.00000  Uiso   1.00
I685   I     0.65790   0.26905   0.62840   0.00000  Uiso   1.00
I686   I     0.34553   0.23868   0.81747   0.00000  Uiso   1.00
I687   I     0.65294   0.08155   0.69784   0.00000  Uiso   1.00
I688   I     0.46762   0.07698   0.58068   0.00000  Uiso   1.00
I689   I     0.57634   0.09182   0.86557   0.00000  Uiso   1.00
N690   N     0.64908   0.18074   0.76416   0.00000  Uiso   1.00
N691   N     0.35092   0.15259   0.73584   0.00000  Uiso   1.00
O692   O     0.46131   0.23807   0.74633   0.00000  Uiso   1.00
O693   O     0.34734   0.23785   0.50887   0.00000  Uiso   1.00
O694   O     0.36075   0.08387   0.88253   0.00000  Uiso   1.00
O695   O     0.38978   0.16226   0.55078   0.00000  Uiso   1.00
O696   O     0.64181   0.10696   0.98267   0.00000  Uiso   1.00
O697   O     0.56191   0.24755   0.75586   0.00000  Uiso   1.00
O698   O     0.42515   0.15960   0.81839   0.00000  Uiso   1.00
O699   O     0.52575   0.16908   0.82793   0.00000  Uiso   1.00
O700   O     0.43809   0.08578   0.74413   0.00000  Uiso   1.00
O701   O     0.53869   0.09526   0.75367   0.00000  Uiso   1.00
O702   O     0.47425   0.16425   0.67207   0.00000  Uiso   1.00
O703   O     0.57485   0.17373   0.68160   0.00000  Uiso   1.00
O704   O     0.44739   0.31745   0.70150   0.00000  Uiso   1.00
C705   C     0.84781   0.26638   0.75234   0.00000  Uiso   1.00
C706   C     0.78475   0.14275   0.89919   0.00000  Uiso   1.00
C707   C     0.85318   0.32229   0.75652   0.00000  Uiso   1.00
C708   C     0.80106   0.15818   0.84578   0.00000  Uiso   1.00
C709   C     0.81640   0.01125   0.73610   0.00000  Uiso   1.00
C710   C     0.81955   0.06694   0.74577   0.00000  Uiso   1.00
C711   C     0.86583   0.17323   0.65401   0.00000  Uiso   1.00
C712   C     0.95307   0.22119   0.52795   0.00000  Uiso   1.00
C713   C     0.88224   0.18354   0.59998   0.00000  Uiso   1.00
C714   C     0.72791   0.11285   0.91666   0.00000  Uiso   1.00
C715   C     0.70414   0.11527   0.96865   0.00000  Uiso   1.00
C716   C     0.80703   0.15430   0.98513   0.00000  Uiso   1.00
C717   C     0.74368   0.14075   0.50325   0.00000  Uiso   1.00
C718   C     0.81911   0.31049   0.65486   0.00000  Uiso   1.00
C719   C     0.69031   0.28724   0.98944   0.00000  Uiso   1.00
C720   C     0.71956   0.04035   0.86234   0.00000  Uiso   1.00
C721   C     0.67533   0.12810   0.57880   0.00000  Uiso   1.00
C722   C     0.94882   0.05317   0.98435   0.00000  Uiso   1.00
C723   C     0.82704   0.15329   0.93259   0.00000  Uiso   1.00
C724   C     0.85173   0.17136   0.51716   0.00000  Uiso   1.00
C725   C     0.91167   0.19529   0.99589   0.00000  Uiso   1.00
C726   C     0.93086   0.18444   0.94414   0.00000  Uiso   1.00
C727   C     0.88872   0.15624   0.91505   0.00000  Uiso   1.00
C728   C     0.84313   0.15662   0.56691   0.00000  Uiso   1.00
C729   C     0.93487   0.21990   0.58063   0.00000  Uiso   1.00
Cu730  Cu    0.77377   0.16105   0.74435   0.00000  Uiso   1.00
Cu731  Cu    0.89290   0.17228   0.75564   0.00000  Uiso   1.00
H732   H     0.97868   0.19057   0.92850   0.00000  Uiso   1.00
H733   H     0.76840   0.05142   0.84606   0.00000  Uiso   1.00
H734   H     0.69551   0.02106   0.83111   0.00000  Uiso   1.00
H735   H     0.68234   0.08743   0.57664   0.00000  Uiso   1.00
H736   H     0.96451   0.12757   0.56823   0.00000  Uiso   1.00
H737   H     0.67212   0.14459   0.61819   0.00000  Uiso   1.00
H738   H     0.95671   0.03760   0.51857   0.00000  Uiso   1.00
H739   H     0.96380   0.02982   0.94975   0.00000  Uiso   1.00
H740   H     0.89906   0.04849   0.98730   0.00000  Uiso   1.00
H741   H     0.88597   0.01193   0.77875   0.00000  Uiso   1.00
H742   H     0.85267   0.01372   0.64414   0.00000  Uiso   1.00
H743   H     0.79131   0.29871   0.62448   0.00000  Uiso   1.00
H744   H     0.84349   0.27863   0.65575   0.00000  Uiso   1.00
H745   H     0.73722   0.29645   0.96818   0.00000  Uiso   1.00
H746   H     0.68679   0.31784   0.52085   0.00000  Uiso   1.00
H747   H     0.99238   0.28784   0.96262   0.00000  Uiso   1.00
H748   H     0.71362   0.01175   0.89142   0.00000  Uiso   1.00
I749   I     0.99123   0.26905   0.62840   0.00000  Uiso   1.00
I750   I     0.67886   0.23868   0.81747   0.00000  Uiso   1.00
I751   I     0.98627   0.08155   0.69784   0.00000  Uiso   1.00
I752   I     0.80096   0.07698   0.58068   0.00000  Uiso   1.00
I753   I     0.90968   0.09182   0.86557   0.00000  Uiso   1.00
N754   N     0.98241   0.18074   0.76416   0.00000  Uiso   1.00
N755   N     0.68426   0.15259   0.73584   0.00000  Uiso   1.00
O756   O     0.79464   0.23807   0.74633   0.00000  Uiso   1.00
O757   O     0.68067   0.23785   0.50887   0.00000  Uiso   1.00
O758   O     0.69408   0.08387   0.88253   0.00000  Uiso   1.00
O759   O     0.72311   0.16226   0.55078   0.00000  Uiso   1.00
O760   O     0.97515   0.10696   0.98267   0.00000  Uiso   1.00
O761   O     0.89524   0.24755   0.75586   0.00000  Uiso   1.00
O762   O     0.75848   0.15960   0.81839   0.00000  Uiso   1.00
O763   O     0.85908   0.16908   0.82793   0.00000  Uiso   1.00
O764   O     0.77142   0.08578   0.74413   0.00000  Uiso   1.00
O765   O     0.87203   0.09526   0.75367   0.00000  Uiso   1.00
O766   O     0.80758   0.16425   0.67207   0.00000  Uiso   1.00
O767   O     0.90819   0.17373   0.68160   0.00000  Uiso   1.00
O768   O     0.78072   0.31745   0.70150   0.00000  Uiso   1.00
C769   C     0.18115   0.59971   0.75234   0.00000  Uiso   1.00
C770   C     0.11809   0.47608   0.89919   0.00000  Uiso   1.00
C771   C     0.18652   0.65562   0.75652   0.00000  Uiso   1.00
C772   C     0.13439   0.49151   0.84578   0.00000  Uiso   1.00
C773   C     0.14973   0.34459   0.73610   0.00000  Uiso   1.00
C774   C     0.15289   0.40027   0.74577   0.00000  Uiso   1.00
C775   C     0.19916   0.50657   0.65401   0.00000  Uiso   1.00
C776   C     0.28640   0.55453   0.52795   0.00000  Uiso   1.00
C777   C     0.21558   0.51688   0.59998   0.00000  Uiso   1.00
C778   C     0.06124   0.44618   0.91666   0.00000  Uiso   1.00
C779   C     0.03747   0.44860   0.96865   0.00000  Uiso   1.00
C780   C     0.14036   0.48764   0.98513   0.00000  Uiso   1.00
C781   C     0.07701   0.47409   0.50325   0.00000  Uiso   1.00
C782   C     0.15244   0.64383   0.65486   0.00000  Uiso   1.00
C783   C     0.02364   0.62057   0.98944   0.00000  Uiso   1.00
C784   C     0.05290   0.37369   0.86234   0.00000  Uiso   1.00
C785   C     0.00867   0.46144   0.57880   0.00000  Uiso   1.00
C786   C     0.28215   0.38650   0.98435   0.00000  Uiso   1.00
C787   C     0.16038   0.48662   0.93259   0.00000  Uiso   1.00
C788   C     0.18506   0.50470   0.51716   0.00000  Uiso   1.00
C789   C     0.24500   0.52862   0.99589   0.00000  Uiso   1.00
C790   C     0.26419   0.51777   0.94414   0.00000  Uiso   1.00
C791   C     0.22205   0.48957   0.91505   0.00000  Uiso   1.00
C792   C     0.17646   0.48995   0.56691   0.00000  Uiso   1.00
C793   C     0.26820   0.55323   0.58063   0.00000  Uiso   1.00
Cu794  Cu    0.10710   0.49439   0.74435   0.00000  Uiso   1.00
Cu795  Cu    0.22623   0.50561   0.75564   0.00000  Uiso   1.00
H796   H     0.31201   0.52390   0.92850   0.00000  Uiso   1.00
H797   H     0.10173   0.38476   0.84606   0.00000  Uiso   1.00
H798   H     0.02885   0.35440   0.83111   0.00000  Uiso   1.00
H799   H     0.01568   0.42077   0.57664   0.00000  Uiso   1.00
H800   H     0.29784   0.46090   0.56823   0.00000  Uiso   1.00
H801   H     0.00546   0.47793   0.61819   0.00000  Uiso   1.00
H802   H     0.29004   0.37094   0.51857   0.00000  Uiso   1.00
H803   H     0.29713   0.36315   0.94975   0.00000  Uiso   1.00
H804   H     0.23239   0.38182   0.98730   0.00000  Uiso   1.00
H805   H     0.21930   0.34526   0.77875   0.00000  Uiso   1.00
H806   H     0.18600   0.34706   0.64414   0.00000  Uiso   1.00
H807   H     0.12464   0.63204   0.62448   0.00000  Uiso   1.00
H808   H     0.17683   0.61197   0.65575   0.00000  Uiso   1.00
H809   H     0.07055   0.62978   0.96818   0.00000  Uiso   1.00
H810   H     0.02012   0.65117   0.52085   0.00000  Uiso   1.00
H811   H     0.32571   0.62117   0.96262   0.00000  Uiso   1.00
H812   H     0.04695   0.34508   0.89142   0.00000  Uiso   1.00
I813   I     0.32457   0.60238   0.62840   0.00000  Uiso   1.00
I814   I     0.01219   0.57201   0.81747   0.00000  Uiso   1.00
I815   I     0.31960   0.41488   0.69784   0.00000  Uiso   1.00
I816   I     0.13429   0.41031   0.58068   0.00000  Uiso   1.00
I817   I     0.24301   0.42515   0.86557   0.00000  Uiso   1.00
N818   N     0.31574   0.51407   0.76416   0.00000  Uiso   1.00
N819   N     0.01759   0.48593   0.73584   0.00000  Uiso   1.00
O820   O     0.12797   0.57141   0.74633   0.00000  Uiso   1.00
O821   O     0.01401   0.57119   0.50887   0.00000  Uiso   1.00
O822   O     0.02742   0.41721   0.88253   0.00000  Uiso   1.00
O823   O     0.05644   0.49560   0.55078   0.00000  Uiso   1.00
O824   O     0.30848   0.44029   0.98267   0.00000  Uiso   1.00
O825   O     0.22858   0.58089   0.75586   0.00000  Uiso   1.00
O826   O     0.09181   0.49293   0.81839   0.00000  Uiso   1.00
O827   O     0.19242   0.50241   0.82793   0.00000  Uiso   1.00
O828   O     0.10476   0.41911   0.74413   0.00000  Uiso   1.00
O829   O     0.20536   0.42859   0.75367   0.00000  Uiso   1.00
O830   O     0.14092   0.49759   0.67207   0.00000  Uiso   1.00
O831   O     0.24152   0.50707   0.68160   0.00000  Uiso   1.00
O832   O     0.11406   0.65078   0.70150   0.00000  Uiso   1.00
C833   C     0.51448   0.59971   0.75234   0.00000  Uiso   1.00
C834   C     0.45142   0.47608   0.89919   0.00000  Uiso   1.00
C835   C     0.51985   0.65562   0.75652   0.00000  Uiso   1.00
C836   C     0.46773   0.49151   0.84578   0.00000  Uiso   1.00
C837   C     0.48306   0.34459   0.73610   0.00000  Uiso   1.00
C838   C     0.48622   0.40027   0.74577   0.00000  Uiso   1.00
C839   C     0.53249   0.50657   0.65401   0.00000  Uiso   1.00
C840   C     0.61973   0.55453   0.52795   0.00000  Uiso   1.00
C841   C     0.54891   0.51688   0.59998   0.00000  Uiso   1.00
C842   C     0.39458   0.44618   0.91666   0.00000  Uiso   1.00
C843   C     0.37081   0.44860   0.96865   0.00000  Uiso   1.00
C844   C     0.47369   0.48764   0.98513   0.00000  Uiso   1.00
C845   C     0.41035   0.47409   0.50325   0.00000  Uiso   1.00
C846   C     0.48577   0.64383   0.65486   0.00000  Uiso   1.00
C847   C     0.35698   0.62057   0.98944   0.00000  Uiso   1.00
C848   C     0.38623   0.37369   0.86234   0.00000  Uiso   1.00
C849   C     0.34200   0.46144   0.57880   0.00000  Uiso   1.00
C850   C     0.61549   0.38650   0.98435   0.00000  Uiso   1.00
C851   C     0.49371   0.48662   0.93259   0.00000  Uiso   1.00
C852   C     0.51840   0.50470   0.51716   0.00000  Uiso   1.00
C853   C     0.57834   0.52862   0.99589   0.00000  Uiso   1.00
C854   C     0.59753   0.51777   0.94414   0.00000  Uiso   1.00
C855   C     0.55538   0.48957   0.91505   0.00000  Uiso   1.00
C856   C     0.50979   0.48995   0.56691   0.00000  Uiso   1.00
C857   C     0.60153   0.55323   0.58063   0.00000  Uiso   1.00
Cu858  Cu    0.44043   0.49439   0.74435   0.00000  Uiso   1.00
Cu859  Cu    0.55957   0.50561   0.75564   0.00000  Uiso   1.00
H860   H     0.64534   0.52390   0.92850   0.00000  Uiso   1.00
H861   H     0.43507   0.38476   0.84606   0.00000  Uiso   1.00
H862   H     0.36218   0.35440   0.83111   0.00000  Uiso   1.00
H863   H     0.34901   0.42077   0.57664   0.00000  Uiso   1.00
H864   H     0.63117   0.46090   0.56823   0.00000  Uiso   1.00
H865   H     0.33879   0.47793   0.61819   0.00000  Uiso   1.00
H866   H     0.62337   0.37094   0.51857   0.00000  Uiso   1.00
H867   H     0.63047   0.36315   0.94975   0.00000  Uiso   1.00
H868   H     0.56573   0.38182   0.98730   0.00000  Uiso   1.00
H869   H     0.55263   0.34526   0.77875   0.00000  Uiso   1.00
H870   H     0.51934   0.34706   0.64414   0.00000  Uiso   1.00
H871   H     0.45798   0.63204   0.62448   0.00000  Uiso   1.00
H872   H     0.51016   0.61197   0.65575   0.00000  Uiso   1.00
H873   H     0.40388   0.62978   0.96818   0.00000  Uiso   1.00
H874   H     0.35346   0.65117   0.52085   0.00000  Uiso   1.00
H875   H     0.65904   0.62117   0.96262   0.00000  Uiso   1.00
H876   H     0.38029   0.34508   0.89142   0.00000  Uiso   1.00
I877   I     0.65790   0.60238   0.62840   0.00000  Uiso   1.00
I878   I     0.34553   0.57201   0.81747   0.00000  Uiso   1.00
I879   I     0.65294   0.41488   0.69784   0.00000  Uiso   1.00
I880   I     0.46762   0.41031   0.58068   0.00000  Uiso   1.00
I881   I     0.57634   0.42515   0.86557   0.00000  Uiso   1.00
N882   N     0.64908   0.51407   0.76416   0.00000  Uiso   1.00
N883   N     0.35092   0.48593   0.73584   0.00000  Uiso   1.00
O884   O     0.46131   0.57141   0.74633   0.00000  Uiso   1.00
O885   O     0.34734   0.57119   0.50887   0.00000  Uiso   1.00
O886   O     0.36075   0.41721   0.88253   0.00000  Uiso   1.00
O887   O     0.38978   0.49560   0.55078   0.00000  Uiso   1.00
O888   O     0.64181   0.44029   0.98267   0.00000  Uiso   1.00
O889   O     0.56191   0.58089   0.75586   0.00000  Uiso   1.00
O890   O     0.42515   0.49293   0.81839   0.00000  Uiso   1.00
O891   O     0.52575   0.50241   0.82793   0.00000  Uiso   1.00
O892   O     0.43809   0.41911   0.74413   0.00000  Uiso   1.00
O893   O     0.53869   0.42859   0.75367   0.00000  Uiso   1.00
O894   O     0.47425   0.49759   0.67207   0.00000  Uiso   1.00
O895   O     0.57485   0.50707   0.68160   0.00000  Uiso   1.00
O896   O     0.44739   0.65078   0.70150   0.00000  Uiso   1.00
C897   C     0.84781   0.59971   0.75234   0.00000  Uiso   1.00
C898   C     0.78475   0.47608   0.89919   0.00000  Uiso   1.00
C899   C     0.85318   0.65562   0.75652   0.00000  Uiso   1.00
C900   C     0.80106   0.49151   0.84578   0.00000  Uiso   1.00
C901   C     0.81640   0.34459   0.73610   0.00000  Uiso   1.00
C902   C     0.81955   0.40027   0.74577   0.00000  Uiso   1.00
C903   C     0.86583   0.50657   0.65401   0.00000  Uiso   1.00
C904   C     0.95307   0.55453   0.52795   0.00000  Uiso   1.00
C905   C     0.88224   0.51688   0.59998   0.00000  Uiso   1.00
C906   C     0.72791   0.44618   0.91666   0.00000  Uiso   1.00
C907   C     0.70414   0.44860   0.96865   0.00000  Uiso   1.00
C908   C     0.80703   0.48764   0.98513   0.00000  Uiso   1.00
C909   C     0.74368   0.47409   0.50325   0.00000  Uiso   1.00
C910   C     0.81911   0.64383   0.65486   0.00000  Uiso   1.00
C911   C     0.69031   0.62057   0.98944   0.00000  Uiso   1.00
C912   C     0.71956   0.37369   0.86234   0.00000  Uiso   1.00
C913   C     0.67533   0.46144   0.57880   0.00000  Uiso   1.00
C914   C     0.94882   0.38650   0.98435   0.00000  Uiso   1.00
C915   C     0.82704   0.48662   0.93259   0.00000  Uiso   1.00
C916   C     0.85173   0.50470   0.51716   0.00000  Uiso   1.00
C917   C     0.91167   0.52862   0.99589   0.00000  Uiso   1.00
C918   C     0.93086   0.51777   0.94414   0.00000  Uiso   1.00
C919   C     0.88872   0.48957   0.91505   0.00000  Uiso   1.00
C920   C     0.84313   0.48995   0.56691   0.00000  Uiso   1.00
C921   C     0.93487   0.55323   0.58063   0.00000  Uiso   1.00
Cu922  Cu    0.77377   0.49439   0.74435   0.00000  Uiso   1.00
Cu923  Cu    0.89290   0.50561   0.75564   0.00000  Uiso   1.00
H924   H     0.97868   0.52390   0.92850   0.00000  Uiso   1.00
H925   H     0.76840   0.38476   0.84606   0.00000  Uiso   1.00
H926   H     0.69551   0.35440   0.83111   0.00000  Uiso   1.00
H927   H     0.68234   0.42077   0.57664   0.00000  Uiso   1.00
H928   H     0.96451   0.46090   0.56823   0.00000  Uiso   1.00
H929   H     0.67212   0.47793   0.61819   0.00000  Uiso   1.00
H930   H     0.95671   0.37094   0.51857   0.00000  Uiso   1.00
H931   H     0.96380   0.36315   0.94975   0.00000  Uiso   1.00
H932   H     0.89906   0.38182   0.98730   0.00000  Uiso   1.00
H933   H     0.88597   0.34526   0.77875   0.00000  Uiso   1.00
H934   H     0.85267   0.34706   0.64414   0.00000  Uiso   1.00
H935   H     0.79131   0.63204   0.62448   0.00000  Uiso   1.00
H936   H     0.84349   0.61197   0.65575   0.00000  Uiso   1.00
H937   H     0.73722   0.62978   0.96818   0.00000  Uiso   1.00
H938   H     0.68679   0.65117   0.52085   0.00000  Uiso   1.00
H939   H     0.99238   0.62117   0.96262   0.00000  Uiso   1.00
H940   H     0.71362   0.34508   0.89142   0.00000  Uiso   1.00
I941   I     0.99123   0.60238   0.62840   0.00000  Uiso   1.00
I942   I     0.67886   0.57201   0.81747   0.00000  Uiso   1.00
I943   I     0.98627   0.41488   0.69784   0.00000  Uiso   1.00
I944   I     0.80096   0.41031   0.58068   0.00000  Uiso   1.00
I945   I     0.90968   0.42515   0.86557   0.00000  Uiso   1.00
N946   N     0.98241   0.51407   0.76416   0.00000  Uiso   1.00
N947   N     0.68426   0.48593   0.73584   0.00000  Uiso   1.00
O948   O     0.79464   0.57141   0.74633   0.00000  Uiso   1.00
O949   O     0.68067   0.57119   0.50887   0.00000  Uiso   1.00
O950   O     0.69408   0.41721   0.88253   0.00000  Uiso   1.00
O951   O     0.72311   0.49560   0.55078   0.00000  Uiso   1.00
O952   O     0.97515   0.44029   0.98267   0.00000  Uiso   1.00
O953   O     0.89524   0.58089   0.75586   0.00000  Uiso   1.00
O954   O     0.75848   0.49293   0.81839   0.00000  Uiso   1.00
O955   O     0.85908   0.50241   0.82793   0.00000  Uiso   1.00
O956   O     0.77142   0.41911   0.74413   0.00000  Uiso   1.00
O957   O     0.87203   0.42859   0.75367   0.00000  Uiso   1.00
O958   O     0.80758   0.49759   0.67207   0.00000  Uiso   1.00
O959   O     0.90819   0.50707   0.68160   0.00000  Uiso   1.00
O960   O     0.78072   0.65078   0.70150   0.00000  Uiso   1.00
C961   C     0.18115   0.93305   0.75234   0.00000  Uiso   1.00
C962   C     0.11809   0.80941   0.89919   0.00000  Uiso   1.00
C963   C     0.18652   0.98895   0.75652   0.00000  Uiso   1.00
C964   C     0.13439   0.82484   0.84578   0.00000  Uiso   1.00
C965   C     0.14973   0.67792   0.73610   0.00000  Uiso   1.00
C966   C     0.15289   0.73360   0.74577   0.00000  Uiso   1.00
C967   C     0.19916   0.83990   0.65401   0.00000  Uiso   1.00
C968   C     0.28640   0.88786   0.52795   0.00000  Uiso   1.00
C969   C     0.21558   0.85021   0.59998   0.00000  Uiso   1.00
C970   C     0.06124   0.77952   0.91666   0.00000  Uiso   1.00
C971   C     0.03747   0.78193   0.96865   0.00000  Uiso   1.00
C972   C     0.14036   0.82097   0.98513   0.00000  Uiso   1.00
C973   C     0.07701   0.80742   0.50325   0.00000  Uiso   1.00
C974   C     0.15244   0.97716   0.65486   0.00000  Uiso   1.00
C975   C     0.02364   0.95391   0.98944   0.00000  Uiso   1.00
C976   C     0.05290   0.70702   0.86234   0.00000  Uiso   1.00
C977   C     0.00867   0.79477   0.57880   0.00000  Uiso   1.00
C978   C     0.28215   0.71984   0.98435   0.00000  Uiso   1.00
C979   C     0.16038   0.81996   0.93259   0.00000  Uiso   1.00
C980   C     0.18506   0.83803   0.51716   0.00000  Uiso   1.00
C981   C     0.24500   0.86196   0.99589   0.00000  Uiso   1.00
C982   C     0.26419   0.85110   0.94414   0.00000  Uiso   1.00
C983   C     0.22205   0.82290   0.91505   0.00000  Uiso   1.00
C984   C     0.17646   0.82329   0.56691   0.00000  Uiso   1.00
C985   C     0.26820   0.88656   0.58063   0.00000  Uiso   1.00
Cu986  Cu    0.10710   0.82772   0.74435   0.00000  Uiso   1.00
Cu987  Cu    0.22623   0.83895   0.75564   0.00000  Uiso   1.00
H988   H     0.31201   0.85724   0.92850   0.00000  Uiso   1.00
H989   H     0.10173   0.71809   0.84606   0.00000  Uiso   1.00
H990   H     0.02885   0.68773   0.83111   0.00000  Uiso   1.00
H991   H     0.01568   0.75410   0.57664   0.00000  Uiso   1.00
H992   H     0.29784   0.79424   0.56823   0.00000  Uiso   1.00
H993   H     0.00546   0.81126   0.61819   0.00000  Uiso   1.00
H994   H     0.29004   0.70427   0.51857   0.00000  Uiso   1.00
H995   H     0.29713   0.69648   0.94975   0.00000  Uiso   1.00
H996   H     0.23239   0.71516   0.98730   0.00000  Uiso   1.00
H997   H     0.21930   0.67860   0.77875   0.00000  Uiso   1.00
H998   H     0.18600   0.68039   0.64414   0.00000  Uiso   1.00
H999   H     0.12464   0.96537   0.62448   0.00000  Uiso   1.00
H1000  H     0.17683   0.94530   0.65575   0.00000  Uiso   1.00
H1001  H     0.07055   0.96312   0.96818   0.00000  Uiso   1.00
H1002  H     0.02012   0.98450   0.52085   0.00000  Uiso   1.00
H1003  H     0.32571   0.95450   0.96262   0.00000  Uiso   1.00
H1004  H     0.04695   0.67842   0.89142   0.00000  Uiso   1.00
I1005  I     0.32457   0.93571   0.62840   0.00000  Uiso   1.00
I1006  I     0.01219   0.90535   0.81747   0.00000  Uiso   1.00
I1007  I     0.31960   0.74822   0.69784   0.00000  Uiso   1.00
I1008  I     0.13429   0.74364   0.58068   0.00000  Uiso   1.00
I1009  I     0.24301   0.75848   0.86557   0.00000  Uiso   1.00
N1010  N     0.31574   0.84741   0.76416   0.00000  Uiso   1.00
N1011  N     0.01759   0.81926   0.73584   0.00000  Uiso   1.00
O1012  O     0.12797   0.90474   0.74633   0.00000  Uiso   1.00
O1013  O     0.01401   0.90452   0.50887   0.00000  Uiso   1.00
O1014  O     0.02742   0.75054   0.88253   0.00000  Uiso   1.00
O1015  O     0.05644   0.82893   0.55078   0.00000  Uiso   1.00
O1016  O     0.30848   0.77363   0.98267   0.00000  Uiso   1.00
O1017  O     0.22858   0.91422   0.75586   0.00000  Uiso   1.00
O1018  O     0.09181   0.82627   0.81839   0.00000  Uiso   1.00
O1019  O     0.19242   0.83575   0.82793   0.00000  Uiso   1.00
O1020  O     0.10476   0.75245   0.74413   0.00000  Uiso   1.00
O1021  O     0.20536   0.76193   0.75367   0.00000  Uiso   1.00
O1022  O     0.14092   0.83092   0.67207   0.00000  Uiso   1.00
O1023  O     0.24152   0.84040   0.68160   0.00000  Uiso   1.00
O1024  O     0.11406   0.98412   0.70150   0.00000  Uiso   1.00
C1025  C     0.51448   0.93305   0.75234   0.00000  Uiso   1.00
C1026  C     0.45142   0.80941   0.89919   0.00000  Uiso   1.00
C1027  C     0.51985   0.98895   0.75652   0.00000  Uiso   1.00
C1028  C     0.46773   0.82484   0.84578   0.00000  Uiso   1.00
C1029  C     0.48306   0.67792   0.73610   0.00000  Uiso   1.00
C1030  C     0.48622   0.73360   0.74577   0.00000  Uiso   1.00
C1031  C     0.53249   0.83990   0.65401   0.00000  Uiso   1.00
C1032  C     0.61973   0.88786   0.52795   0.00000  Uiso   1.00
C1033  C     0.54891   0.85021   0.59998   0.00000  Uiso   1.00
C1034  C     0.39458   0.77952   0.91666   0.00000  Uiso   1.00
C1035  C     0.37081   0.78193   0.96865   0.00000  Uiso   1.00
C1036  C     0.47369   0.82097   0.98513   0.00000  Uiso   1.00
C1037  C     0.41035   0.80742   0.50325   0.00000  Uiso   1.00
C1038  C     0.48577   0.97716   0.65486   0.00000  Uiso   1.00
C1039  C     0.35698   0.95391   0.98944   0.00000  Uiso   1.00
C1040  C     0.38623   0.70702   0.86234   0.00000  Uiso   1.00
C1041  C     0.34200   0.79477   0.57880   0.00000  Uiso   1.00
C1042  C     0.61549   0.71984   0.98435   0.00000  Uiso   1.00
C1043  C     0.49371   0.81996   0.93259   0.00000  Uiso   1.00
C1044  C     0.51840   0.83803   0.51716   0.00000  Uiso   1.00
C1045  C     0.57834   0.86196   0.99589   0.00000  Uiso   1.00
C1046  C     0.59753   0.85110   0.94414   0.00000  Uiso   1.00
C1047  C     0.55538   0.82290   0.91505   0.00000  Uiso   1.00
C1048  C     0.50979   0.82329   0.56691   0.00000  Uiso   1.00
C1049  C     0.60153   0.88656   0.58063   0.00000  Uiso   1.00
Cu1050 Cu    0.44043   0.82772   0.74435   0.00000  Uiso   1.00
Cu1051 Cu    0.55957   0.83895   0.75564   0.00000  Uiso   1.00
H1052  H     0.64534   0.85724   0.92850   0.00000  Uiso   1.00
H1053  H     0.43507   0.71809   0.84606   0.00000  Uiso   1.00
H1054  H     0.36218   0.68773   0.83111   0.00000  Uiso   1.00
H1055  H     0.34901   0.75410   0.57664   0.00000  Uiso   1.00
H1056  H     0.63117   0.79424   0.56823   0.00000  Uiso   1.00
H1057  H     0.33879   0.81126   0.61819   0.00000  Uiso   1.00
H1058  H     0.62337   0.70427   0.51857   0.00000  Uiso   1.00
H1059  H     0.63047   0.69648   0.94975   0.00000  Uiso   1.00
H1060  H     0.56573   0.71516   0.98730   0.00000  Uiso   1.00
H1061  H     0.55263   0.67860   0.77875   0.00000  Uiso   1.00
H1062  H     0.51934   0.68039   0.64414   0.00000  Uiso   1.00
H1063  H     0.45798   0.96537   0.62448   0.00000  Uiso   1.00
H1064  H     0.51016   0.94530   0.65575   0.00000  Uiso   1.00
H1065  H     0.40388   0.96312   0.96818   0.00000  Uiso   1.00
H1066  H     0.35346   0.98450   0.52085   0.00000  Uiso   1.00
H1067  H     0.65904   0.95450   0.96262   0.00000  Uiso   1.00
H1068  H     0.38029   0.67842   0.89142   0.00000  Uiso   1.00
I1069  I     0.65790   0.93571   0.62840   0.00000  Uiso   1.00
I1070  I     0.34553   0.90535   0.81747   0.00000  Uiso   1.00
I1071  I     0.65294   0.74822   0.69784   0.00000  Uiso   1.00
I1072  I     0.46762   0.74364   0.58068   0.00000  Uiso   1.00
I1073  I     0.57634   0.75848   0.86557   0.00000  Uiso   1.00
N1074  N     0.64908   0.84741   0.76416   0.00000  Uiso   1.00
N1075  N     0.35092   0.81926   0.73584   0.00000  Uiso   1.00
O1076  O     0.46131   0.90474   0.74633   0.00000  Uiso   1.00
O1077  O     0.34734   0.90452   0.50887   0.00000  Uiso   1.00
O1078  O     0.36075   0.75054   0.88253   0.00000  Uiso   1.00
O1079  O     0.38978   0.82893   0.55078   0.00000  Uiso   1.00
O1080  O     0.64181   0.77363   0.98267   0.00000  Uiso   1.00
O1081  O     0.56191   0.91422   0.75586   0.00000  Uiso   1.00
O1082  O     0.42515   0.82627   0.81839   0.00000  Uiso   1.00
O1083  O     0.52575   0.83575   0.82793   0.00000  Uiso   1.00
O1084  O     0.43809   0.75245   0.74413   0.00000  Uiso   1.00
O1085  O     0.53869   0.76193   0.75367   0.00000  Uiso   1.00
O1086  O     0.47425   0.83092   0.67207   0.00000  Uiso   1.00
O1087  O     0.57485   0.84040   0.68160   0.00000  Uiso   1.00
O1088  O     0.44739   0.98412   0.70150   0.00000  Uiso   1.00
C1089  C     0.84781   0.93305   0.75234   0.00000  Uiso   1.00
C1090  C     0.78475   0.80941   0.89919   0.00000  Uiso   1.00
C1091  C     0.85318   0.98895   0.75652   0.00000  Uiso   1.00
C1092  C     0.80106   0.82484   0.84578   0.00000  Uiso   1.00
C1093  C     0.81640   0.67792   0.73610   0.00000  Uiso   1.00
C1094  C     0.81955   0.73360   0.74577   0.00000  Uiso   1.00
C1095  C     0.86583   0.83990   0.65401   0.00000  Uiso   1.00
C1096  C     0.95307   0.88786   0.52795   0.00000  Uiso   1.00
C1097  C     0.88224   0.85021   0.59998   0.00000  Uiso   1.00
C1098  C     0.72791   0.77952   0.91666   0.00000  Uiso   1.00
C1099  C     0.70414   0.78193   0.96865   0.00000  Uiso   1.00
C1100  C     0.80703   0.82097   0.98513   0.00000  Uiso   1.00
C1101  C     0.74368   0.80742   0.50325   0.00000  Uiso   1.00
C1102  C     0.81911   0.97716   0.65486   0.00000  Uiso   1.00
C1103  C     0.69031   0.95391   0.98944   0.00000  Uiso   1.00
C1104  C     0.71956   0.70702   0.86234   0.00000  Uiso   1.00
C1105  C     0.67533   0.79477   0.57880   0.00000  Uiso   1.00
C1106  C     0.94882   0.71984   0.98435   0.00000  Uiso   1.00
C1107  C     0.82704   0.81996   0.93259   0.00000  Uiso   1.00
C1108  C     0.85173   0.83803   0.51716   0.00000  Uiso   1.00
C1109  C     0.91167   0.86196   0.99589   0.00000  Uiso   1.00
C1110  C     0.93086   0.85110   0.94414   0.00000  Uiso   1.00
C1111  C     0.88872   0.82290   0.91505   0.00000  Uiso   1.00
C1112  C     0.84313   0.82329   0.56691   0.00000  Uiso   1.00
C1113  C     0.93487   0.88656   0.58063   0.00000  Uiso   1.00
Cu1114 Cu    0.77377   0.82772   0.74435   0.00000  Uiso   1.00
Cu1115 Cu    0.89290   0.83895   0.75564   0.00000  Uiso   1.00
H1116  H     0.97868   0.85724   0.92850   0.00000  Uiso   1.00
H1117  H     0.76840   0.71809   0.84606   0.00000  Uiso   1.00
H1118  H     0.69551   0.68773   0.83111   0.00000  Uiso   1.00
H1119  H     0.68234   0.75410   0.57664   0.00000  Uiso   1.00
H1120  H     0.96451   0.79424   0.56823   0.00000  Uiso   1.00
H1121  H     0.67212   0.81126   0.61819   0.00000  Uiso   1.00
H1122  H     0.95671   0.70427   0.51857   0.00000  Uiso   1.00
H1123  H     0.96380   0.69648   0.94975   0.00000  Uiso   1.00
H1124  H     0.89906   0.71516   0.98730   0.00000  Uiso   1.00
H1125  H     0.88597   0.67860   0.77875   0.00000  Uiso   1.00
H1126  H     0.85267   0.68039   0.64414   0.00000  Uiso   1.00
H1127  H     0.79131   0.96537   0.62448   0.00000  Uiso   1.00
H1128  H     0.84349   0.94530   0.65575   0.00000  Uiso   1.00
H1129  H     0.73722   0.96312   0.96818   0.00000  Uiso   1.00
H1130  H     0.68679   0.98450   0.52085   0.00000  Uiso   1.00
H1131  H     0.99238   0.95450   0.96262   0.00000  Uiso   1.00
H1132  H     0.71362   0.67842   0.89142   0.00000  Uiso   1.00
I1133  I     0.99123   0.93571   0.62840   0.00000  Uiso   1.00
I1134  I     0.67886   0.90535   0.81747   0.00000  Uiso   1.00
I1135  I     0.98627   0.74822   0.69784   0.00000  Uiso   1.00
I1136  I     0.80096   0.74364   0.58068   0.00000  Uiso   1.00
I1137  I     0.90968   0.75848   0.86557   0.00000  Uiso   1.00
N1138  N     0.98241   0.84741   0.76416   0.00000  Uiso   1.00
N1139  N     0.68426   0.81926   0.73584   0.00000  Uiso   1.00
O1140  O     0.79464   0.90474   0.74633   0.00000  Uiso   1.00
O1141  O     0.68067   0.90452   0.50887   0.00000  Uiso   1.00
O1142  O     0.69408   0.75054   0.88253   0.00000  Uiso   1.00
O1143  O     0.72311   0.82893   0.55078   0.00000  Uiso   1.00
O1144  O     0.97515   0.77363   0.98267   0.00000  Uiso   1.00
O1145  O     0.89524   0.91422   0.75586   0.00000  Uiso   1.00
O1146  O     0.75848   0.82627   0.81839   0.00000  Uiso   1.00
O1147  O     0.85908   0.83575   0.82793   0.00000  Uiso   1.00
O1148  O     0.77142   0.75245   0.74413   0.00000  Uiso   1.00
O1149  O     0.87203   0.76193   0.75367   0.00000  Uiso   1.00
O1150  O     0.80758   0.83092   0.67207   0.00000  Uiso   1.00
O1151  O     0.90819   0.84040   0.68160   0.00000  Uiso   1.00
O1152  O     0.78072   0.98412   0.70150   0.00000  Uiso   1.00
loop_
_geom_bond_atom_site_label_1
_geom_bond_atom_site_label_2
_geom_bond_distance
_geom_bond_site_symmetry_2
_ccdc_geom_bond_type
C1     O57     1.312   .     A
C1     O52     1.306   .     A
C1     C3      1.438   .     S
C2     C4      1.494   .     S
C2     C10     1.390   .     A
C2     C19     1.405   .     A
C3     C197    1.346   .     S
C3     H229    1.084   .     S
C4     O59     1.306   .     A
C4     O58     1.336   .     A
C5     C6      1.444   .     S
C5     C387    1.346   1_545 S
C5     O448    1.388   1_545 S
C6     O61     1.306   .     A
C6     O60     1.314   .     A
C7     O62     1.312   .     A
C7     O63     1.324   .     A
C7     C9      1.474   .     S
C8     C25     1.407   .     A
C8     C597    1.414   1_554 S
C8     O117    1.385   .     S
C9     C25     1.413   .     A
C9     C24     1.406   .     A
C10    O54     1.370   .     S
C10    C11     1.408   .     A
C11    C589    1.431   .     S
C11    O184    1.383   1_455 S
C12    C19     1.406   .     A
C12    C589    1.421   .     S
C12    C596    1.426   .     S
C13    O55     1.389   .     S
C13    C588    1.421   1_554 S
C13    C587    1.431   1_554 S
C14    O64     1.417   .     S
C14    H40     1.108   .     S
C14    H39     1.106   .     S
C14    H230    1.114   .     S
C15    H41     1.109   .     S
C15    H618    1.109   .     S
C15    H171    1.111   1_455 S
C15    O629    1.404   .     S
C16    O54     1.411   .     S
C16    H30     1.107   .     S
C16    H29     1.110   .     S
C16    H44     1.110   .     S
C17    H33     1.100   .     S
C17    H31     1.107   .     S
C17    O55     1.405   .     S
C17    H160    1.097   1_455 S
C18    H36     1.108   .     S
C18    H35     1.105   .     S
C18    O56     1.407   .     S
C18    H610    1.106   .     S
C19    C23     1.394   .     A
C20    C24     1.401   .     A
C20    C588    1.426   1_554 S
C20    C597    1.418   1_554 S
C21    C22     1.403   .     A
C21    C596    1.418   .     S
C21    C584    1.414   .     S
C22    C23     1.390   .     A
C22    H28     1.082   .     S
C23    I49     2.126   .     S
C24    I48     2.136   .     S
C25    I45     2.124   .     S
Cu26   O52     1.966   .     S
Cu26   O62     1.964   .     S
Cu26   N51     2.066   .     S
Cu26   O58     1.965   .     S
Cu26   Cu27    2.750   .     S
Cu26   O60     1.962   .     S
Cu27   N50     2.066   .     S
Cu27   O59     1.964   .     S
Cu27   O57     1.962   .     S
Cu27   O63     1.965   .     S
Cu27   O61     1.966   .     S
H32    C81     1.097   .     S
H34    C594    1.106   1_554 S
H37    C387    1.084   1_545 S
H38    C398    1.114   1_545 S
H42    C591    1.109   1_554 S
H43    C79     1.111   .     S
I46    N178    2.069   1_455 S
I47    N115    2.076   .     S
N50    I110    2.069   .     S
N50    N115    1.304   .     S
N51    I175    2.076   1_455 S
N51    N178    1.304   1_455 S
O53    C591    1.404   1_554 S
O53    C136    1.385   1_455 S
O56    C75     1.383   .     S
O64    C197    1.388   .     S
C65    O121    1.312   .     A
C65    O116    1.306   .     A
C65    C67     1.438   .     S
C66    C68     1.494   .     S
C66    C74     1.390   .     A
C66    C83     1.405   .     A
C67    C261    1.346   .     S
C67    H293    1.084   .     S
C68    O123    1.306   .     A
C68    O122    1.336   .     A
C69    C70     1.444   .     S
C69    C451    1.346   1_545 S
C69    O512    1.388   1_545 S
C70    O125    1.306   .     A
C70    O124    1.314   .     A
C71    O126    1.312   .     A
C71    O127    1.324   .     A
C71    C73     1.474   .     S
C72    C89     1.407   .     A
C72    C661    1.414   1_554 S
C72    O181    1.385   .     S
C73    C89     1.413   .     A
C73    C88     1.406   .     A
C74    O118    1.370   .     S
C74    C75     1.408   .     A
C75    C653    1.431   .     S
C76    C83     1.406   .     A
C76    C653    1.421   .     S
C76    C660    1.426   .     S
C77    O119    1.389   .     S
C77    C652    1.421   1_554 S
C77    C651    1.431   1_554 S
C78    O128    1.417   .     S
C78    H104    1.108   .     S
C78    H103    1.106   .     S
C78    H294    1.114   .     S
C79    H105    1.109   .     S
C79    H682    1.109   .     S
C79    O693    1.404   .     S
C80    O118    1.411   .     S
C80    H94     1.107   .     S
C80    H93     1.110   .     S
C80    H108    1.110   .     S
C81    H97     1.100   .     S
C81    H95     1.107   .     S
C81    O119    1.405   .     S
C82    H100    1.108   .     S
C82    H99     1.105   .     S
C82    O120    1.407   .     S
C82    H674    1.106   .     S
C83    C87     1.394   .     A
C84    C88     1.401   .     A
C84    C652    1.426   1_554 S
C84    C661    1.418   1_554 S
C85    C86     1.403   .     A
C85    C660    1.418   .     S
C85    C648    1.414   .     S
C86    C87     1.390   .     A
C86    H92     1.082   .     S
C87    I113    2.126   .     S
C88    I112    2.136   .     S
C89    I109    2.124   .     S
Cu90   O116    1.966   .     S
Cu90   O126    1.964   .     S
Cu90   N115    2.066   .     S
Cu90   O122    1.965   .     S
Cu90   Cu91    2.750   .     S
Cu90   O124    1.962   .     S
Cu91   N114    2.066   .     S
Cu91   O123    1.964   .     S
Cu91   O121    1.962   .     S
Cu91   O127    1.965   .     S
Cu91   O125    1.966   .     S
H96    C145    1.097   .     S
H98    C658    1.106   1_554 S
H101   C451    1.084   1_545 S
H102   C462    1.114   1_545 S
H106   C655    1.109   1_554 S
H107   C143    1.111   .     S
I111   N179    2.076   .     S
N114   I174    2.069   .     S
N114   N179    1.304   .     S
O117   C655    1.404   1_554 S
O120   C139    1.383   .     S
O128   C261    1.388   .     S
C129   O185    1.312   .     A
C129   O180    1.306   .     A
C129   C131    1.438   .     S
C130   C132    1.494   .     S
C130   C138    1.390   .     A
C130   C147    1.405   .     A
C131   C325    1.346   .     S
C131   H357    1.084   .     S
C132   O187    1.306   .     A
C132   O186    1.336   .     A
C133   C134    1.444   .     S
C133   C515    1.346   1_545 S
C133   O576    1.388   1_545 S
C134   O189    1.306   .     A
C134   O188    1.314   .     A
C135   O190    1.312   .     A
C135   O191    1.324   .     A
C135   C137    1.474   .     S
C136   C153    1.407   .     A
C136   C725    1.414   1_554 S
C136   O53     1.385   1_655 S
C137   C153    1.413   .     A
C137   C152    1.406   .     A
C138   O182    1.370   .     S
C138   C139    1.408   .     A
C139   C717    1.431   .     S
C140   C147    1.406   .     A
C140   C717    1.421   .     S
C140   C724    1.426   .     S
C141   O183    1.389   .     S
C141   C716    1.421   1_554 S
C141   C715    1.431   1_554 S
C142   O192    1.417   .     S
C142   H168    1.108   .     S
C142   H167    1.106   .     S
C142   H358    1.114   .     S
C143   H169    1.109   .     S
C143   H746    1.109   .     S
C143   O757    1.404   .     S
C144   O182    1.411   .     S
C144   H158    1.107   .     S
C144   H157    1.110   .     S
C144   H172    1.110   .     S
C145   H161    1.100   .     S
C145   H159    1.107   .     S
C145   O183    1.405   .     S
C146   H164    1.108   .     S
C146   H163    1.105   .     S
C146   O184    1.407   .     S
C146   H738    1.106   .     S
C147   C151    1.394   .     A
C148   C152    1.401   .     A
C148   C716    1.426   1_554 S
C148   C725    1.418   1_554 S
C149   C150    1.403   .     A
C149   C724    1.418   .     S
C149   C712    1.414   .     S
C150   C151    1.390   .     A
C150   H156    1.082   .     S
C151   I177    2.126   .     S
C152   I176    2.136   .     S
C153   I173    2.124   .     S
Cu154  O180    1.966   .     S
Cu154  O190    1.964   .     S
Cu154  N179    2.066   .     S
Cu154  O186    1.965   .     S
Cu154  Cu155   2.750   .     S
Cu154  O188    1.962   .     S
Cu155  N178    2.066   .     S
Cu155  O187    1.964   .     S
Cu155  O185    1.962   .     S
Cu155  O191    1.965   .     S
Cu155  O189    1.966   .     S
H160   C17     1.097   1_655 S
H162   C722    1.106   1_554 S
H165   C515    1.084   1_545 S
H166   C526    1.114   1_545 S
H170   C719    1.109   1_554 S
H171   C15     1.111   1_655 S
I175   N51     2.076   1_655 S
N178   I46     2.069   1_655 S
N178   N51     1.304   1_655 S
O181   C719    1.404   1_554 S
O184   C11     1.383   1_655 S
O192   C325    1.388   .     S
C193   O249    1.312   .     A
C193   O244    1.306   .     A
C193   C195    1.438   .     S
C194   C196    1.494   .     S
C194   C202    1.390   .     A
C194   C211    1.405   .     A
C195   C389    1.346   .     S
C195   H421    1.084   .     S
C196   O251    1.306   .     A
C196   O250    1.336   .     A
C197   C198    1.444   .     S
C198   O253    1.306   .     A
C198   O252    1.314   .     A
C199   O254    1.312   .     A
C199   O255    1.324   .     A
C199   C201    1.474   .     S
C200   C217    1.407   .     A
C200   C789    1.414   1_554 S
C200   O309    1.385   .     S
C201   C217    1.413   .     A
C201   C216    1.406   .     A
C202   O246    1.370   .     S
C202   C203    1.408   .     A
C203   C781    1.431   .     S
C203   O376    1.383   1_455 S
C204   C211    1.406   .     A
C204   C781    1.421   .     S
C204   C788    1.426   .     S
C205   O247    1.389   .     S
C205   C780    1.421   1_554 S
C205   C779    1.431   1_554 S
C206   O256    1.417   .     S
C206   H232    1.108   .     S
C206   H231    1.106   .     S
C206   H422    1.114   .     S
C207   H233    1.109   .     S
C207   H810    1.109   .     S
C207   H363    1.111   1_455 S
C207   O821    1.404   .     S
C208   O246    1.411   .     S
C208   H222    1.107   .     S
C208   H221    1.110   .     S
C208   H236    1.110   .     S
C209   H225    1.100   .     S
C209   H223    1.107   .     S
C209   O247    1.405   .     S
C209   H352    1.097   1_455 S
C210   H228    1.108   .     S
C210   H227    1.105   .     S
C210   O248    1.407   .     S
C210   H802    1.106   .     S
C211   C215    1.394   .     A
C212   C216    1.401   .     A
C212   C780    1.426   1_554 S
C212   C789    1.418   1_554 S
C213   C214    1.403   .     A
C213   C788    1.418   .     S
C213   C776    1.414   .     S
C214   C215    1.390   .     A
C214   H220    1.082   .     S
C215   I241    2.126   .     S
C216   I240    2.136   .     S
C217   I237    2.124   .     S
Cu218  O244    1.966   .     S
Cu218  O254    1.964   .     S
Cu218  N243    2.066   .     S
Cu218  O250    1.965   .     S
Cu218  Cu219   2.750   .     S
Cu218  O252    1.962   .     S
Cu219  N242    2.066   .     S
Cu219  O251    1.964   .     S
Cu219  O249    1.962   .     S
Cu219  O255    1.965   .     S
Cu219  O253    1.966   .     S
H224   C273    1.097   .     S
H226   C786    1.106   1_554 S
H234   C783    1.109   1_554 S
H235   C271    1.111   .     S
I238   N370    2.069   1_455 S
I239   N307    2.076   .     S
N242   I302    2.069   .     S
N242   N307    1.304   .     S
N243   I367    2.076   1_455 S
N243   N370    1.304   1_455 S
O245   C783    1.404   1_554 S
O245   C328    1.385   1_455 S
O248   C267    1.383   .     S
O256   C389    1.388   .     S
C257   O313    1.312   .     A
C257   O308    1.306   .     A
C257   C259    1.438   .     S
C258   C260    1.494   .     S
C258   C266    1.390   .     A
C258   C275    1.405   .     A
C259   C453    1.346   .     S
C259   H485    1.084   .     S
C260   O315    1.306   .     A
C260   O314    1.336   .     A
C261   C262    1.444   .     S
C262   O317    1.306   .     A
C262   O316    1.314   .     A
C263   O318    1.312   .     A
C263   O319    1.324   .     A
C263   C265    1.474   .     S
C264   C281    1.407   .     A
C264   C853    1.414   1_554 S
C264   O373    1.385   .     S
C265   C281    1.413   .     A
C265   C280    1.406   .     A
C266   O310    1.370   .     S
C266   C267    1.408   .     A
C267   C845    1.431   .     S
C268   C275    1.406   .     A
C268   C845    1.421   .     S
C268   C852    1.426   .     S
C269   O311    1.389   .     S
C269   C844    1.421   1_554 S
C269   C843    1.431   1_554 S
C270   O320    1.417   .     S
C270   H296    1.108   .     S
C270   H295    1.106   .     S
C270   H486    1.114   .     S
C271   H297    1.109   .     S
C271   H874    1.109   .     S
C271   O885    1.404   .     S
C272   O310    1.411   .     S
C272   H286    1.107   .     S
C272   H285    1.110   .     S
C272   H300    1.110   .     S
C273   H289    1.100   .     S
C273   H287    1.107   .     S
C273   O311    1.405   .     S
C274   H292    1.108   .     S
C274   H291    1.105   .     S
C274   O312    1.407   .     S
C274   H866    1.106   .     S
C275   C279    1.394   .     A
C276   C280    1.401   .     A
C276   C844    1.426   1_554 S
C276   C853    1.418   1_554 S
C277   C278    1.403   .     A
C277   C852    1.418   .     S
C277   C840    1.414   .     S
C278   C279    1.390   .     A
C278   H284    1.082   .     S
C279   I305    2.126   .     S
C280   I304    2.136   .     S
C281   I301    2.124   .     S
Cu282  O308    1.966   .     S
Cu282  O318    1.964   .     S
Cu282  N307    2.066   .     S
Cu282  O314    1.965   .     S
Cu282  Cu283   2.750   .     S
Cu282  O316    1.962   .     S
Cu283  N306    2.066   .     S
Cu283  O315    1.964   .     S
Cu283  O313    1.962   .     S
Cu283  O319    1.965   .     S
Cu283  O317    1.966   .     S
H288   C337    1.097   .     S
H290   C850    1.106   1_554 S
H298   C847    1.109   1_554 S
H299   C335    1.111   .     S
I303   N371    2.076   .     S
N306   I366    2.069   .     S
N306   N371    1.304   .     S
O309   C847    1.404   1_554 S
O312   C331    1.383   .     S
O320   C453    1.388   .     S
C321   O377    1.312   .     A
C321   O372    1.306   .     A
C321   C323    1.438   .     S
C322   C324    1.494   .     S
C322   C330    1.390   .     A
C322   C339    1.405   .     A
C323   C517    1.346   .     S
C323   H549    1.084   .     S
C324   O379    1.306   .     A
C324   O378    1.336   .     A
C325   C326    1.444   .     S
C326   O381    1.306   .     A
C326   O380    1.314   .     A
C327   O382    1.312   .     A
C327   O383    1.324   .     A
C327   C329    1.474   .     S
C328   C345    1.407   .     A
C328   C917    1.414   1_554 S
C328   O245    1.385   1_655 S
C329   C345    1.413   .     A
C329   C344    1.406   .     A
C330   O374    1.370   .     S
C330   C331    1.408   .     A
C331   C909    1.431   .     S
C332   C339    1.406   .     A
C332   C909    1.421   .     S
C332   C916    1.426   .     S
C333   O375    1.389   .     S
C333   C908    1.421   1_554 S
C333   C907    1.431   1_554 S
C334   O384    1.417   .     S
C334   H360    1.108   .     S
C334   H359    1.106   .     S
C334   H550    1.114   .     S
C335   H361    1.109   .     S
C335   H938    1.109   .     S
C335   O949    1.404   .     S
C336   O374    1.411   .     S
C336   H350    1.107   .     S
C336   H349    1.110   .     S
C336   H364    1.110   .     S
C337   H353    1.100   .     S
C337   H351    1.107   .     S
C337   O375    1.405   .     S
C338   H356    1.108   .     S
C338   H355    1.105   .     S
C338   O376    1.407   .     S
C338   H930    1.106   .     S
C339   C343    1.394   .     A
C340   C344    1.401   .     A
C340   C908    1.426   1_554 S
C340   C917    1.418   1_554 S
C341   C342    1.403   .     A
C341   C916    1.418   .     S
C341   C904    1.414   .     S
C342   C343    1.390   .     A
C342   H348    1.082   .     S
C343   I369    2.126   .     S
C344   I368    2.136   .     S
C345   I365    2.124   .     S
Cu346  O372    1.966   .     S
Cu346  O382    1.964   .     S
Cu346  N371    2.066   .     S
Cu346  O378    1.965   .     S
Cu346  Cu347   2.750   .     S
Cu346  O380    1.962   .     S
Cu347  N370    2.066   .     S
Cu347  O379    1.964   .     S
Cu347  O377    1.962   .     S
Cu347  O383    1.965   .     S
Cu347  O381    1.966   .     S
H352   C209    1.097   1_655 S
H354   C914    1.106   1_554 S
H362   C911    1.109   1_554 S
H363   C207    1.111   1_655 S
I367   N243    2.076   1_655 S
N370   I238    2.069   1_655 S
N370   N243    1.304   1_655 S
O373   C911    1.404   1_554 S
O376   C203    1.383   1_655 S
O384   C517    1.388   .     S
C385   O441    1.312   .     A
C385   O436    1.306   .     A
C385   C387    1.438   .     S
C386   C388    1.494   .     S
C386   C394    1.390   .     A
C386   C403    1.405   .     A
C387   C5      1.346   1_565 S
C387   H37     1.084   1_565 S
C388   O443    1.306   .     A
C388   O442    1.336   .     A
C389   C390    1.444   .     S
C390   O445    1.306   .     A
C390   O444    1.314   .     A
C391   O446    1.312   .     A
C391   O447    1.324   .     A
C391   C393    1.474   .     S
C392   C409    1.407   .     A
C392   C981    1.414   1_554 S
C392   O501    1.385   .     S
C393   C409    1.413   .     A
C393   C408    1.406   .     A
C394   O438    1.370   .     S
C394   C395    1.408   .     A
C395   C973    1.431   .     S
C395   O568    1.383   1_455 S
C396   C403    1.406   .     A
C396   C973    1.421   .     S
C396   C980    1.426   .     S
C397   O439    1.389   .     S
C397   C972    1.421   1_554 S
C397   C971    1.431   1_554 S
C398   O448    1.417   .     S
C398   H424    1.108   .     S
C398   H423    1.106   .     S
C398   H38     1.114   1_565 S
C399   H425    1.109   .     S
C399   H1002   1.109   .     S
C399   H555    1.111   1_455 S
C399   O1013   1.404   .     S
C400   O438    1.411   .     S
C400   H414    1.107   .     S
C400   H413    1.110   .     S
C400   H428    1.110   .     S
C401   H417    1.100   .     S
C401   H415    1.107   .     S
C401   O439    1.405   .     S
C401   H544    1.097   1_455 S
C402   H420    1.108   .     S
C402   H419    1.105   .     S
C402   O440    1.407   .     S
C402   H994    1.106   .     S
C403   C407    1.394   .     A
C404   C408    1.401   .     A
C404   C972    1.426   1_554 S
C404   C981    1.418   1_554 S
C405   C406    1.403   .     A
C405   C980    1.418   .     S
C405   C968    1.414   .     S
C406   C407    1.390   .     A
C406   H412    1.082   .     S
C407   I433    2.126   .     S
C408   I432    2.136   .     S
C409   I429    2.124   .     S
Cu410  O436    1.966   .     S
Cu410  O446    1.964   .     S
Cu410  N435    2.066   .     S
Cu410  O442    1.965   .     S
Cu410  Cu411   2.750   .     S
Cu410  O444    1.962   .     S
Cu411  N434    2.066   .     S
Cu411  O443    1.964   .     S
Cu411  O441    1.962   .     S
Cu411  O447    1.965   .     S
Cu411  O445    1.966   .     S
H416   C465    1.097   .     S
H418   C978    1.106   1_554 S
H426   C975    1.109   1_554 S
H427   C463    1.111   .     S
I430   N562    2.069   1_455 S
I431   N499    2.076   .     S
N434   I494    2.069   .     S
N434   N499    1.304   .     S
N435   I559    2.076   1_455 S
N435   N562    1.304   1_455 S
O437   C975    1.404   1_554 S
O437   C520    1.385   1_455 S
O440   C459    1.383   .     S
O448   C5      1.388   1_565 S
C449   O505    1.312   .     A
C449   O500    1.306   .     A
C449   C451    1.438   .     S
C450   C452    1.494   .     S
C450   C458    1.390   .     A
C450   C467    1.405   .     A
C451   C69     1.346   1_565 S
C451   H101    1.084   1_565 S
C452   O507    1.306   .     A
C452   O506    1.336   .     A
C453   C454    1.444   .     S
C454   O509    1.306   .     A
C454   O508    1.314   .     A
C455   O510    1.312   .     A
C455   O511    1.324   .     A
C455   C457    1.474   .     S
C456   C473    1.407   .     A
C456   C1045   1.414   1_554 S
C456   O565    1.385   .     S
C457   C473    1.413   .     A
C457   C472    1.406   .     A
C458   O502    1.370   .     S
C458   C459    1.408   .     A
C459   C1037   1.431   .     S
C460   C467    1.406   .     A
C460   C1037   1.421   .     S
C460   C1044   1.426   .     S
C461   O503    1.389   .     S
C461   C1036   1.421   1_554 S
C461   C1035   1.431   1_554 S
C462   O512    1.417   .     S
C462   H488    1.108   .     S
C462   H487    1.106   .     S
C462   H102    1.114   1_565 S
C463   H489    1.109   .     S
C463   H1066   1.109   .     S
C463   O1077   1.404   .     S
C464   O502    1.411   .     S
C464   H478    1.107   .     S
C464   H477    1.110   .     S
C464   H492    1.110   .     S
C465   H481    1.100   .     S
C465   H479    1.107   .     S
C465   O503    1.405   .     S
C466   H484    1.108   .     S
C466   H483    1.105   .     S
C466   O504    1.407   .     S
C466   H1058   1.106   .     S
C467   C471    1.394   .     A
C468   C472    1.401   .     A
C468   C1036   1.426   1_554 S
C468   C1045   1.418   1_554 S
C469   C470    1.403   .     A
C469   C1044   1.418   .     S
C469   C1032   1.414   .     S
C470   C471    1.390   .     A
C470   H476    1.082   .     S
C471   I497    2.126   .     S
C472   I496    2.136   .     S
C473   I493    2.124   .     S
Cu474  O500    1.966   .     S
Cu474  O510    1.964   .     S
Cu474  N499    2.066   .     S
Cu474  O506    1.965   .     S
Cu474  Cu475   2.750   .     S
Cu474  O508    1.962   .     S
Cu475  N498    2.066   .     S
Cu475  O507    1.964   .     S
Cu475  O505    1.962   .     S
Cu475  O511    1.965   .     S
Cu475  O509    1.966   .     S
H480   C529    1.097   .     S
H482   C1042   1.106   1_554 S
H490   C1039   1.109   1_554 S
H491   C527    1.111   .     S
I495   N563    2.076   .     S
N498   I558    2.069   .     S
N498   N563    1.304   .     S
O501   C1039   1.404   1_554 S
O504   C523    1.383   .     S
O512   C69     1.388   1_565 S
C513   O569    1.312   .     A
C513   O564    1.306   .     A
C513   C515    1.438   .     S
C514   C516    1.494   .     S
C514   C522    1.390   .     A
C514   C531    1.405   .     A
C515   C133    1.346   1_565 S
C515   H165    1.084   1_565 S
C516   O571    1.306   .     A
C516   O570    1.336   .     A
C517   C518    1.444   .     S
C518   O573    1.306   .     A
C518   O572    1.314   .     A
C519   O574    1.312   .     A
C519   O575    1.324   .     A
C519   C521    1.474   .     S
C520   C537    1.407   .     A
C520   C1109   1.414   1_554 S
C520   O437    1.385   1_655 S
C521   C537    1.413   .     A
C521   C536    1.406   .     A
C522   O566    1.370   .     S
C522   C523    1.408   .     A
C523   C1101   1.431   .     S
C524   C531    1.406   .     A
C524   C1101   1.421   .     S
C524   C1108   1.426   .     S
C525   O567    1.389   .     S
C525   C1100   1.421   1_554 S
C525   C1099   1.431   1_554 S
C526   O576    1.417   .     S
C526   H552    1.108   .     S
C526   H551    1.106   .     S
C526   H166    1.114   1_565 S
C527   H553    1.109   .     S
C527   H1130   1.109   .     S
C527   O1141   1.404   .     S
C528   O566    1.411   .     S
C528   H542    1.107   .     S
C528   H541    1.110   .     S
C528   H556    1.110   .     S
C529   H545    1.100   .     S
C529   H543    1.107   .     S
C529   O567    1.405   .     S
C530   H548    1.108   .     S
C530   H547    1.105   .     S
C530   O568    1.407   .     S
C530   H1122   1.106   .     S
C531   C535    1.394   .     A
C532   C536    1.401   .     A
C532   C1100   1.426   1_554 S
C532   C1109   1.418   1_554 S
C533   C534    1.403   .     A
C533   C1108   1.418   .     S
C533   C1096   1.414   .     S
C534   C535    1.390   .     A
C534   H540    1.082   .     S
C535   I561    2.126   .     S
C536   I560    2.136   .     S
C537   I557    2.124   .     S
Cu538  O564    1.966   .     S
Cu538  O574    1.964   .     S
Cu538  N563    2.066   .     S
Cu538  O570    1.965   .     S
Cu538  Cu539   2.750   .     S
Cu538  O572    1.962   .     S
Cu539  N562    2.066   .     S
Cu539  O571    1.964   .     S
Cu539  O569    1.962   .     S
Cu539  O575    1.965   .     S
Cu539  O573    1.966   .     S
H544   C401    1.097   1_655 S
H546   C1106   1.106   1_554 S
H554   C1103   1.109   1_554 S
H555   C399    1.111   1_655 S
I559   N435    2.076   1_655 S
N562   I430    2.069   1_655 S
N562   N435    1.304   1_655 S
O565   C1103   1.404   1_554 S
O568   C395    1.383   1_655 S
O576   C133    1.388   1_565 S
C577   O633    1.312   .     A
C577   O628    1.306   .     A
C577   C579    1.438   .     S
C578   C580    1.494   .     S
C578   C586    1.390   .     A
C578   C595    1.405   .     A
C579   C773    1.346   .     S
C579   H805    1.084   .     S
C580   O635    1.306   .     A
C580   O634    1.336   .     A
C581   C582    1.444   .     S
C581   C963    1.346   1_545 S
C581   O1024   1.388   1_545 S
C582   O637    1.306   .     A
C582   O636    1.314   .     A
C583   O638    1.312   .     A
C583   O639    1.324   .     A
C583   C585    1.474   .     S
C584   C601    1.407   .     A
C584   O693    1.385   .     S
C585   C601    1.413   .     A
C585   C600    1.406   .     A
C586   O630    1.370   .     S
C586   C587    1.408   .     A
C587   C13     1.431   1_556 S
C587   O760    1.383   1_455 S
C588   C595    1.406   .     A
C588   C13     1.421   1_556 S
C588   C20     1.426   1_556 S
C589   O631    1.389   .     S
C590   O640    1.417   .     S
C590   H616    1.108   .     S
C590   H615    1.106   .     S
C590   H806    1.114   .     S
C591   H617    1.109   .     S
C591   H42     1.109   1_556 S
C591   H747    1.111   1_455 S
C591   O53     1.404   1_556 S
C592   O630    1.411   .     S
C592   H606    1.107   .     S
C592   H605    1.110   .     S
C592   H620    1.110   .     S
C593   H609    1.100   .     S
C593   H607    1.107   .     S
C593   O631    1.405   .     S
C593   H736    1.097   1_455 S
C594   H612    1.108   .     S
C594   H611    1.105   .     S
C594   O632    1.407   .     S
C594   H34     1.106   1_556 S
C595   C599    1.394   .     A
C596   C600    1.401   .     A
C597   C598    1.403   .     A
C597   C20     1.418   1_556 S
C597   C8      1.414   1_556 S
C598   C599    1.390   .     A
C598   H604    1.082   .     S
C599   I625    2.126   .     S
C600   I624    2.136   .     S
C601   I621    2.124   .     S
Cu602  O628    1.966   .     S
Cu602  O638    1.964   .     S
Cu602  N627    2.066   .     S
Cu602  O634    1.965   .     S
Cu602  Cu603   2.750   .     S
Cu602  O636    1.962   .     S
Cu603  N626    2.066   .     S
Cu603  O635    1.964   .     S
Cu603  O633    1.962   .     S
Cu603  O639    1.965   .     S
Cu603  O637    1.966   .     S
H608   C657    1.097   .     S
H613   C963    1.084   1_545 S
H614   C974    1.114   1_545 S
H619   C655    1.111   .     S
I622   N754    2.069   1_455 S
I623   N691    2.076   .     S
N626   I686    2.069   .     S
N626   N691    1.304   .     S
N627   I751    2.076   1_455 S
N627   N754    1.304   1_455 S
O629   C712    1.385   1_455 S
O632   C651    1.383   .     S
O640   C773    1.388   .     S
C641   O697    1.312   .     A
C641   O692    1.306   .     A
C641   C643    1.438   .     S
C642   C644    1.494   .     S
C642   C650    1.390   .     A
C642   C659    1.405   .     A
C643   C837    1.346   .     S
C643   H869    1.084   .     S
C644   O699    1.306   .     A
C644   O698    1.336   .     A
C645   C646    1.444   .     S
C645   C1027   1.346   1_545 S
C645   O1088   1.388   1_545 S
C646   O701    1.306   .     A
C646   O700    1.314   .     A
C647   O702    1.312   .     A
C647   O703    1.324   .     A
C647   C649    1.474   .     S
C648   C665    1.407   .     A
C648   O757    1.385   .     S
C649   C665    1.413   .     A
C649   C664    1.406   .     A
C650   O694    1.370   .     S
C650   C651    1.408   .     A
C651   C77     1.431   1_556 S
C652   C659    1.406   .     A
C652   C77     1.421   1_556 S
C652   C84     1.426   1_556 S
C653   O695    1.389   .     S
C654   O704    1.417   .     S
C654   H680    1.108   .     S
C654   H679    1.106   .     S
C654   H870    1.114   .     S
C655   H681    1.109   .     S
C655   H106    1.109   1_556 S
C655   O117    1.404   1_556 S
C656   O694    1.411   .     S
C656   H670    1.107   .     S
C656   H669    1.110   .     S
C656   H684    1.110   .     S
C657   H673    1.100   .     S
C657   H671    1.107   .     S
C657   O695    1.405   .     S
C658   H676    1.108   .     S
C658   H675    1.105   .     S
C658   O696    1.407   .     S
C658   H98     1.106   1_556 S
C659   C663    1.394   .     A
C660   C664    1.401   .     A
C661   C662    1.403   .     A
C661   C84     1.418   1_556 S
C661   C72     1.414   1_556 S
C662   C663    1.390   .     A
C662   H668    1.082   .     S
C663   I689    2.126   .     S
C664   I688    2.136   .     S
C665   I685    2.124   .     S
Cu666  O692    1.966   .     S
Cu666  O702    1.964   .     S
Cu666  N691    2.066   .     S
Cu666  O698    1.965   .     S
Cu666  Cu667   2.750   .     S
Cu666  O700    1.962   .     S
Cu667  N690    2.066   .     S
Cu667  O699    1.964   .     S
Cu667  O697    1.962   .     S
Cu667  O703    1.965   .     S
Cu667  O701    1.966   .     S
H672   C721    1.097   .     S
H677   C1027   1.084   1_545 S
H678   C1038   1.114   1_545 S
H683   C719    1.111   .     S
I687   N755    2.076   .     S
N690   I750    2.069   .     S
N690   N755    1.304   .     S
O696   C715    1.383   .     S
O704   C837    1.388   .     S
C705   O761    1.312   .     A
C705   O756    1.306   .     A
C705   C707    1.438   .     S
C706   C708    1.494   .     S
C706   C714    1.390   .     A
C706   C723    1.405   .     A
C707   C901    1.346   .     S
C707   H933    1.084   .     S
C708   O763    1.306   .     A
C708   O762    1.336   .     A
C709   C710    1.444   .     S
C709   C1091   1.346   1_545 S
C709   O1152   1.388   1_545 S
C710   O765    1.306   .     A
C710   O764    1.314   .     A
C711   O766    1.312   .     A
C711   O767    1.324   .     A
C711   C713    1.474   .     S
C712   C729    1.407   .     A
C712   O629    1.385   1_655 S
C713   C729    1.413   .     A
C713   C728    1.406   .     A
C714   O758    1.370   .     S
C714   C715    1.408   .     A
C715   C141    1.431   1_556 S
C716   C723    1.406   .     A
C716   C141    1.421   1_556 S
C716   C148    1.426   1_556 S
C717   O759    1.389   .     S
C718   O768    1.417   .     S
C718   H744    1.108   .     S
C718   H743    1.106   .     S
C718   H934    1.114   .     S
C719   H745    1.109   .     S
C719   H170    1.109   1_556 S
C719   O181    1.404   1_556 S
C720   O758    1.411   .     S
C720   H734    1.107   .     S
C720   H733    1.110   .     S
C720   H748    1.110   .     S
C721   H737    1.100   .     S
C721   H735    1.107   .     S
C721   O759    1.405   .     S
C722   H740    1.108   .     S
C722   H739    1.105   .     S
C722   O760    1.407   .     S
C722   H162    1.106   1_556 S
C723   C727    1.394   .     A
C724   C728    1.401   .     A
C725   C726    1.403   .     A
C725   C148    1.418   1_556 S
C725   C136    1.414   1_556 S
C726   C727    1.390   .     A
C726   H732    1.082   .     S
C727   I753    2.126   .     S
C728   I752    2.136   .     S
C729   I749    2.124   .     S
Cu730  O756    1.966   .     S
Cu730  O766    1.964   .     S
Cu730  N755    2.066   .     S
Cu730  O762    1.965   .     S
Cu730  Cu731   2.750   .     S
Cu730  O764    1.962   .     S
Cu731  N754    2.066   .     S
Cu731  O763    1.964   .     S
Cu731  O761    1.962   .     S
Cu731  O767    1.965   .     S
Cu731  O765    1.966   .     S
H736   C593    1.097   1_655 S
H741   C1091   1.084   1_545 S
H742   C1102   1.114   1_545 S
H747   C591    1.111   1_655 S
I751   N627    2.076   1_655 S
N754   I622    2.069   1_655 S
N754   N627    1.304   1_655 S
O760   C587    1.383   1_655 S
O768   C901    1.388   .     S
C769   O825    1.312   .     A
C769   O820    1.306   .     A
C769   C771    1.438   .     S
C770   C772    1.494   .     S
C770   C778    1.390   .     A
C770   C787    1.405   .     A
C771   C965    1.346   .     S
C771   H997    1.084   .     S
C772   O827    1.306   .     A
C772   O826    1.336   .     A
C773   C774    1.444   .     S
C774   O829    1.306   .     A
C774   O828    1.314   .     A
C775   O830    1.312   .     A
C775   O831    1.324   .     A
C775   C777    1.474   .     S
C776   C793    1.407   .     A
C776   O885    1.385   .     S
C777   C793    1.413   .     A
C777   C792    1.406   .     A
C778   O822    1.370   .     S
C778   C779    1.408   .     A
C779   C205    1.431   1_556 S
C779   O952    1.383   1_455 S
C780   C787    1.406   .     A
C780   C205    1.421   1_556 S
C780   C212    1.426   1_556 S
C781   O823    1.389   .     S
C782   O832    1.417   .     S
C782   H808    1.108   .     S
C782   H807    1.106   .     S
C782   H998    1.114   .     S
C783   H809    1.109   .     S
C783   H234    1.109   1_556 S
C783   H939    1.111   1_455 S
C783   O245    1.404   1_556 S
C784   O822    1.411   .     S
C784   H798    1.107   .     S
C784   H797    1.110   .     S
C784   H812    1.110   .     S
C785   H801    1.100   .     S
C785   H799    1.107   .     S
C785   O823    1.405   .     S
C785   H928    1.097   1_455 S
C786   H804    1.108   .     S
C786   H803    1.105   .     S
C786   O824    1.407   .     S
C786   H226    1.106   1_556 S
C787   C791    1.394   .     A
C788   C792    1.401   .     A
C789   C790    1.403   .     A
C789   C212    1.418   1_556 S
C789   C200    1.414   1_556 S
C790   C791    1.390   .     A
C790   H796    1.082   .     S
C791   I817    2.126   .     S
C792   I816    2.136   .     S
C793   I813    2.124   .     S
Cu794  O820    1.966   .     S
Cu794  O830    1.964   .     S
Cu794  N819    2.066   .     S
Cu794  O826    1.965   .     S
Cu794  Cu795   2.750   .     S
Cu794  O828    1.962   .     S
Cu795  N818    2.066   .     S
Cu795  O827    1.964   .     S
Cu795  O825    1.962   .     S
Cu795  O831    1.965   .     S
Cu795  O829    1.966   .     S
H800   C849    1.097   .     S
H811   C847    1.111   .     S
I814   N946    2.069   1_455 S
I815   N883    2.076   .     S
N818   I878    2.069   .     S
N818   N883    1.304   .     S
N819   I943    2.076   1_455 S
N819   N946    1.304   1_455 S
O821   C904    1.385   1_455 S
O824   C843    1.383   .     S
O832   C965    1.388   .     S
C833   O889    1.312   .     A
C833   O884    1.306   .     A
C833   C835    1.438   .     S
C834   C836    1.494   .     S
C834   C842    1.390   .     A
C834   C851    1.405   .     A
C835   C1029   1.346   .     S
C835   H1061   1.084   .     S
C836   O891    1.306   .     A
C836   O890    1.336   .     A
C837   C838    1.444   .     S
C838   O893    1.306   .     A
C838   O892    1.314   .     A
C839   O894    1.312   .     A
C839   O895    1.324   .     A
C839   C841    1.474   .     S
C840   C857    1.407   .     A
C840   O949    1.385   .     S
C841   C857    1.413   .     A
C841   C856    1.406   .     A
C842   O886    1.370   .     S
C842   C843    1.408   .     A
C843   C269    1.431   1_556 S
C844   C851    1.406   .     A
C844   C269    1.421   1_556 S
C844   C276    1.426   1_556 S
C845   O887    1.389   .     S
C846   O896    1.417   .     S
C846   H872    1.108   .     S
C846   H871    1.106   .     S
C846   H1062   1.114   .     S
C847   H873    1.109   .     S
C847   H298    1.109   1_556 S
C847   O309    1.404   1_556 S
C848   O886    1.411   .     S
C848   H862    1.107   .     S
C848   H861    1.110   .     S
C848   H876    1.110   .     S
C849   H865    1.100   .     S
C849   H863    1.107   .     S
C849   O887    1.405   .     S
C850   H868    1.108   .     S
C850   H867    1.105   .     S
C850   O888    1.407   .     S
C850   H290    1.106   1_556 S
C851   C855    1.394   .     A
C852   C856    1.401   .     A
C853   C854    1.403   .     A
C853   C276    1.418   1_556 S
C853   C264    1.414   1_556 S
C854   C855    1.390   .     A
C854   H860    1.082   .     S
C855   I881    2.126   .     S
C856   I880    2.136   .     S
C857   I877    2.124   .     S
Cu858  O884    1.966   .     S
Cu858  O894    1.964   .     S
Cu858  N883    2.066   .     S
Cu858  O890    1.965   .     S
Cu858  Cu859   2.750   .     S
Cu858  O892    1.962   .     S
Cu859  N882    2.066   .     S
Cu859  O891    1.964   .     S
Cu859  O889    1.962   .     S
Cu859  O895    1.965   .     S
Cu859  O893    1.966   .     S
H864   C913    1.097   .     S
H875   C911    1.111   .     S
I879   N947    2.076   .     S
N882   I942    2.069   .     S
N882   N947    1.304   .     S
O888   C907    1.383   .     S
O896   C1029   1.388   .     S
C897   O953    1.312   .     A
C897   O948    1.306   .     A
C897   C899    1.438   .     S
C898   C900    1.494   .     S
C898   C906    1.390   .     A
C898   C915    1.405   .     A
C899   C1093   1.346   .     S
C899   H1125   1.084   .     S
C900   O955    1.306   .     A
C900   O954    1.336   .     A
C901   C902    1.444   .     S
C902   O957    1.306   .     A
C902   O956    1.314   .     A
C903   O958    1.312   .     A
C903   O959    1.324   .     A
C903   C905    1.474   .     S
C904   C921    1.407   .     A
C904   O821    1.385   1_655 S
C905   C921    1.413   .     A
C905   C920    1.406   .     A
C906   O950    1.370   .     S
C906   C907    1.408   .     A
C907   C333    1.431   1_556 S
C908   C915    1.406   .     A
C908   C333    1.421   1_556 S
C908   C340    1.426   1_556 S
C909   O951    1.389   .     S
C910   O960    1.417   .     S
C910   H936    1.108   .     S
C910   H935    1.106   .     S
C910   H1126   1.114   .     S
C911   H937    1.109   .     S
C911   H362    1.109   1_556 S
C911   O373    1.404   1_556 S
C912   O950    1.411   .     S
C912   H926    1.107   .     S
C912   H925    1.110   .     S
C912   H940    1.110   .     S
C913   H929    1.100   .     S
C913   H927    1.107   .     S
C913   O951    1.405   .     S
C914   H932    1.108   .     S
C914   H931    1.105   .     S
C914   O952    1.407   .     S
C914   H354    1.106   1_556 S
C915   C919    1.394   .     A
C916   C920    1.401   .     A
C917   C918    1.403   .     A
C917   C340    1.418   1_556 S
C917   C328    1.414   1_556 S
C918   C919    1.390   .     A
C918   H924    1.082   .     S
C919   I945    2.126   .     S
C920   I944    2.136   .     S
C921   I941    2.124   .     S
Cu922  O948    1.966   .     S
Cu922  O958    1.964   .     S
Cu922  N947    2.066   .     S
Cu922  O954    1.965   .     S
Cu922  Cu923   2.750   .     S
Cu922  O956    1.962   .     S
Cu923  N946    2.066   .     S
Cu923  O955    1.964   .     S
Cu923  O953    1.962   .     S
Cu923  O959    1.965   .     S
Cu923  O957    1.966   .     S
H928   C785    1.097   1_655 S
H939   C783    1.111   1_655 S
I943   N819    2.076   1_655 S
N946   I814    2.069   1_655 S
N946   N819    1.304   1_655 S
O952   C779    1.383   1_655 S
O960   C1093   1.388   .     S
C961   O1017   1.312   .     A
C961   O1012   1.306   .     A
C961   C963    1.438   .     S
C962   C964    1.494   .     S
C962   C970    1.390   .     A
C962   C979    1.405   .     A
C963   C581    1.346   1_565 S
C963   H613    1.084   1_565 S
C964   O1019   1.306   .     A
C964   O1018   1.336   .     A
C965   C966    1.444   .     S
C966   O1021   1.306   .     A
C966   O1020   1.314   .     A
C967   O1022   1.312   .     A
C967   O1023   1.324   .     A
C967   C969    1.474   .     S
C968   C985    1.407   .     A
C968   O1077   1.385   .     S
C969   C985    1.413   .     A
C969   C984    1.406   .     A
C970   O1014   1.370   .     S
C970   C971    1.408   .     A
C971   C397    1.431   1_556 S
C971   O1144   1.383   1_455 S
C972   C979    1.406   .     A
C972   C397    1.421   1_556 S
C972   C404    1.426   1_556 S
C973   O1015   1.389   .     S
C974   O1024   1.417   .     S
C974   H1000   1.108   .     S
C974   H999    1.106   .     S
C974   H614    1.114   1_565 S
C975   H1001   1.109   .     S
C975   H426    1.109   1_556 S
C975   H1131   1.111   1_455 S
C975   O437    1.404   1_556 S
C976   O1014   1.411   .     S
C976   H990    1.107   .     S
C976   H989    1.110   .     S
C976   H1004   1.110   .     S
C977   H993    1.100   .     S
C977   H991    1.107   .     S
C977   O1015   1.405   .     S
C977   H1120   1.097   1_455 S
C978   H996    1.108   .     S
C978   H995    1.105   .     S
C978   O1016   1.407   .     S
C978   H418    1.106   1_556 S
C979   C983    1.394   .     A
C980   C984    1.401   .     A
C981   C982    1.403   .     A
C981   C404    1.418   1_556 S
C981   C392    1.414   1_556 S
C982   C983    1.390   .     A
C982   H988    1.082   .     S
C983   I1009   2.126   .     S
C984   I1008   2.136   .     S
C985   I1005   2.124   .     S
Cu986  O1012   1.966   .     S
Cu986  O1022   1.964   .     S
Cu986  N1011   2.066   .     S
Cu986  O1018   1.965   .     S
Cu986  Cu987   2.750   .     S
Cu986  O1020   1.962   .     S
Cu987  N1010   2.066   .     S
Cu987  O1019   1.964   .     S
Cu987  O1017   1.962   .     S
Cu987  O1023   1.965   .     S
Cu987  O1021   1.966   .     S
H992   C1041   1.097   .     S
H1003  C1039   1.111   .     S
I1006  N1138   2.069   1_455 S
I1007  N1075   2.076   .     S
N1010  I1070   2.069   .     S
N1010  N1075   1.304   .     S
N1011  I1135   2.076   1_455 S
N1011  N1138   1.304   1_455 S
O1013  C1096   1.385   1_455 S
O1016  C1035   1.383   .     S
O1024  C581    1.388   1_565 S
C1025  O1081   1.312   .     A
C1025  O1076   1.306   .     A
C1025  C1027   1.438   .     S
C1026  C1028   1.494   .     S
C1026  C1034   1.390   .     A
C1026  C1043   1.405   .     A
C1027  C645    1.346   1_565 S
C1027  H677    1.084   1_565 S
C1028  O1083   1.306   .     A
C1028  O1082   1.336   .     A
C1029  C1030   1.444   .     S
C1030  O1085   1.306   .     A
C1030  O1084   1.314   .     A
C1031  O1086   1.312   .     A
C1031  O1087   1.324   .     A
C1031  C1033   1.474   .     S
C1032  C1049   1.407   .     A
C1032  O1141   1.385   .     S
C1033  C1049   1.413   .     A
C1033  C1048   1.406   .     A
C1034  O1078   1.370   .     S
C1034  C1035   1.408   .     A
C1035  C461    1.431   1_556 S
C1036  C1043   1.406   .     A
C1036  C461    1.421   1_556 S
C1036  C468    1.426   1_556 S
C1037  O1079   1.389   .     S
C1038  O1088   1.417   .     S
C1038  H1064   1.108   .     S
C1038  H1063   1.106   .     S
C1038  H678    1.114   1_565 S
C1039  H1065   1.109   .     S
C1039  H490    1.109   1_556 S
C1039  O501    1.404   1_556 S
C1040  O1078   1.411   .     S
C1040  H1054   1.107   .     S
C1040  H1053   1.110   .     S
C1040  H1068   1.110   .     S
C1041  H1057   1.100   .     S
C1041  H1055   1.107   .     S
C1041  O1079   1.405   .     S
C1042  H1060   1.108   .     S
C1042  H1059   1.105   .     S
C1042  O1080   1.407   .     S
C1042  H482    1.106   1_556 S
C1043  C1047   1.394   .     A
C1044  C1048   1.401   .     A
C1045  C1046   1.403   .     A
C1045  C468    1.418   1_556 S
C1045  C456    1.414   1_556 S
C1046  C1047   1.390   .     A
C1046  H1052   1.082   .     S
C1047  I1073   2.126   .     S
C1048  I1072   2.136   .     S
C1049  I1069   2.124   .     S
Cu1050 O1076   1.966   .     S
Cu1050 O1086   1.964   .     S
Cu1050 N1075   2.066   .     S
Cu1050 O1082   1.965   .     S
Cu1050 Cu1051  2.750   .     S
Cu1050 O1084   1.962   .     S
Cu1051 N1074   2.066   .     S
Cu1051 O1083   1.964   .     S
Cu1051 O1081   1.962   .     S
Cu1051 O1087   1.965   .     S
Cu1051 O1085   1.966   .     S
H1056  C1105   1.097   .     S
H1067  C1103   1.111   .     S
I1071  N1139   2.076   .     S
N1074  I1134   2.069   .     S
N1074  N1139   1.304   .     S
O1080  C1099   1.383   .     S
O1088  C645    1.388   1_565 S
C1089  O1145   1.312   .     A
C1089  O1140   1.306   .     A
C1089  C1091   1.438   .     S
C1090  C1092   1.494   .     S
C1090  C1098   1.390   .     A
C1090  C1107   1.405   .     A
C1091  C709    1.346   1_565 S
C1091  H741    1.084   1_565 S
C1092  O1147   1.306   .     A
C1092  O1146   1.336   .     A
C1093  C1094   1.444   .     S
C1094  O1149   1.306   .     A
C1094  O1148   1.314   .     A
C1095  O1150   1.312   .     A
C1095  O1151   1.324   .     A
C1095  C1097   1.474   .     S
C1096  C1113   1.407   .     A
C1096  O1013   1.385   1_655 S
C1097  C1113   1.413   .     A
C1097  C1112   1.406   .     A
C1098  O1142   1.370   .     S
C1098  C1099   1.408   .     A
C1099  C525    1.431   1_556 S
C1100  C1107   1.406   .     A
C1100  C525    1.421   1_556 S
C1100  C532    1.426   1_556 S
C1101  O1143   1.389   .     S
C1102  O1152   1.417   .     S
C1102  H1128   1.108   .     S
C1102  H1127   1.106   .     S
C1102  H742    1.114   1_565 S
C1103  H1129   1.109   .     S
C1103  H554    1.109   1_556 S
C1103  O565    1.404   1_556 S
C1104  O1142   1.411   .     S
C1104  H1118   1.107   .     S
C1104  H1117   1.110   .     S
C1104  H1132   1.110   .     S
C1105  H1121   1.100   .     S
C1105  H1119   1.107   .     S
C1105  O1143   1.405   .     S
C1106  H1124   1.108   .     S
C1106  H1123   1.105   .     S
C1106  O1144   1.407   .     S
C1106  H546    1.106   1_556 S
C1107  C1111   1.394   .     A
C1108  C1112   1.401   .     A
C1109  C1110   1.403   .     A
C1109  C532    1.418   1_556 S
C1109  C520    1.414   1_556 S
C1110  C1111   1.390   .     A
C1110  H1116   1.082   .     S
C1111  I1137   2.126   .     S
C1112  I1136   2.136   .     S
C1113  I1133   2.124   .     S
Cu1114 O1140   1.966   .     S
Cu1114 O1150   1.964   .     S
Cu1114 N1139   2.066   .     S
Cu1114 O1146   1.965   .     S
Cu1114 Cu1115  2.750   .     S
Cu1114 O1148   1.962   .     S
Cu1115 N1138   2.066   .     S
Cu1115 O1147   1.964   .     S
Cu1115 O1145   1.962   .     S
Cu1115 O1151   1.965   .     S
Cu1115 O1149   1.966   .     S
H1120  C977    1.097   1_655 S
H1131  C975    1.111   1_655 S
I1135  N1011   2.076   1_655 S
N1138  I1006   2.069   1_655 S
N1138  N1011   1.304   1_655 S
O1144  C971    1.383   1_655 S
O1152  C709    1.388   1_565 S
