data_str_m3_o1_o1_pcu_sym.58
_audit_creation_date              2020-01-03
_audit_creation_method            'Materials Studio'
_symmetry_space_group_name_H-M    'P1'
_symmetry_Int_Tables_number       1
_symmetry_cell_setting            triclinic
loop_
_symmetry_equiv_pos_as_xyz
  x,y,z
_cell_length_a                    31.1028
_cell_length_b                    29.5227
_cell_length_c                    29.9513
_cell_angle_alpha                 89.9986
_cell_angle_beta                  89.9997
_cell_angle_gamma                 90.0000
loop_
_atom_site_label
_atom_site_type_symbol
_atom_site_fract_x
_atom_site_fract_y
_atom_site_fract_z
_atom_site_U_iso_or_equiv
_atom_site_adp_type
_atom_site_occupancy
C1     C     0.06012   0.19029   0.16671   0.00000  Uiso   1.00
C2     C     0.49786   0.21021   0.30961   0.00000  Uiso   1.00
C3     C     0.00214   0.21021   0.02373   0.00000  Uiso   1.00
C4     C     0.00214   0.28979   0.30961   0.00000  Uiso   1.00
C5     C     0.24786   0.03979   0.02372   0.00000  Uiso   1.00
C6     C     0.24786   0.46021   0.30961   0.00000  Uiso   1.00
C7     C     0.25214   0.46021   0.02373   0.00000  Uiso   1.00
C8     C     0.25214   0.03979   0.30961   0.00000  Uiso   1.00
C9     C     0.39077   0.14121   0.12569   0.00000  Uiso   1.00
C10    C     0.10959   0.35848   0.20701   0.00000  Uiso   1.00
C11    C     0.10921   0.35882   0.12569   0.00000  Uiso   1.00
C12    C     0.43988   0.30971   0.16671   0.00000  Uiso   1.00
C13    C     0.39043   0.14150   0.20701   0.00000  Uiso   1.00
C14    C     0.10921   0.14118   0.20765   0.00000  Uiso   1.00
C15    C     0.39043   0.35850   0.12632   0.00000  Uiso   1.00
C16    C     0.39077   0.35880   0.20765   0.00000  Uiso   1.00
C17    C     0.10959   0.14152   0.12632   0.00000  Uiso   1.00
C18    C     0.14077   0.39120   0.12569   0.00000  Uiso   1.00
C19    C     0.35959   0.10848   0.20701   0.00000  Uiso   1.00
C20    C     0.35921   0.10882   0.12569   0.00000  Uiso   1.00
C21    C     0.14043   0.39150   0.20701   0.00000  Uiso   1.00
C22    C     0.35921   0.39119   0.20765   0.00000  Uiso   1.00
C23    C     0.43988   0.19029   0.16662   0.00000  Uiso   1.00
C24    C     0.14043   0.10850   0.12632   0.00000  Uiso   1.00
C25    C     0.14077   0.10880   0.20765   0.00000  Uiso   1.00
C26    C     0.35959   0.39152   0.12632   0.00000  Uiso   1.00
C27    C     0.09353   0.34263   0.16642   0.00000  Uiso   1.00
C28    C     0.40647   0.15737   0.16642   0.00000  Uiso   1.00
C29    C     0.40647   0.34263   0.16691   0.00000  Uiso   1.00
C30    C     0.09353   0.15737   0.16691   0.00000  Uiso   1.00
C31    C     0.34353   0.09263   0.16642   0.00000  Uiso   1.00
C32    C     0.15647   0.40737   0.16642   0.00000  Uiso   1.00
C33    C     0.15647   0.09263   0.16691   0.00000  Uiso   1.00
C34    C     0.06012   0.30971   0.16662   0.00000  Uiso   1.00
C35    C     0.34353   0.40737   0.16691   0.00000  Uiso   1.00
C36    C     0.48760   0.33346   0.04565   0.00000  Uiso   1.00
C37    C     0.48761   0.16654   0.28769   0.00000  Uiso   1.00
C38    C     0.01239   0.16654   0.04565   0.00000  Uiso   1.00
C39    C     0.01239   0.33346   0.28768   0.00000  Uiso   1.00
C40    C     0.23760   0.08346   0.04565   0.00000  Uiso   1.00
C41    C     0.23761   0.41654   0.28769   0.00000  Uiso   1.00
C42    C     0.26239   0.41654   0.04565   0.00000  Uiso   1.00
C43    C     0.26239   0.08346   0.28768   0.00000  Uiso   1.00
C44    C     0.31012   0.44029   0.16671   0.00000  Uiso   1.00
C45    C     0.18988   0.05971   0.16671   0.00000  Uiso   1.00
C46    C     0.18988   0.44029   0.16662   0.00000  Uiso   1.00
C47    C     0.31012   0.05971   0.16662   0.00000  Uiso   1.00
C48    C     0.49786   0.28979   0.02372   0.00000  Uiso   1.00
H49    H     0.40265   0.15347   0.09392   0.00000  Uiso   1.00
H50    H     0.34846   0.09550   0.23868   0.00000  Uiso   1.00
H51    H     0.34731   0.09658   0.09392   0.00000  Uiso   1.00
H52    H     0.15158   0.40446   0.23868   0.00000  Uiso   1.00
H53    H     0.34732   0.40343   0.23942   0.00000  Uiso   1.00
H54    H     0.15158   0.09554   0.09465   0.00000  Uiso   1.00
H55    H     0.15266   0.09654   0.23942   0.00000  Uiso   1.00
H56    H     0.34845   0.40450   0.09465   0.00000  Uiso   1.00
H57    H     0.45036   0.38945   0.04507   0.00000  Uiso   1.00
H58    H     0.45036   0.11055   0.28826   0.00000  Uiso   1.00
H59    H     0.04965   0.11056   0.04510   0.00000  Uiso   1.00
H60    H     0.09845   0.34550   0.23868   0.00000  Uiso   1.00
H61    H     0.04965   0.38944   0.28823   0.00000  Uiso   1.00
H62    H     0.20036   0.13945   0.04507   0.00000  Uiso   1.00
H63    H     0.20036   0.36055   0.28826   0.00000  Uiso   1.00
H64    H     0.29965   0.36056   0.04510   0.00000  Uiso   1.00
H65    H     0.29965   0.13944   0.28823   0.00000  Uiso   1.00
H66    H     0.09731   0.34658   0.09392   0.00000  Uiso   1.00
H67    H     0.40158   0.15445   0.23868   0.00000  Uiso   1.00
H68    H     0.09731   0.15343   0.23942   0.00000  Uiso   1.00
H69    H     0.40158   0.34554   0.09465   0.00000  Uiso   1.00
H70    H     0.40266   0.34654   0.23942   0.00000  Uiso   1.00
H71    H     0.09845   0.15450   0.09465   0.00000  Uiso   1.00
H72    H     0.15266   0.40346   0.09392   0.00000  Uiso   1.00
N73    N     0.00000   0.25000   0.28573   0.00000  Uiso   1.00
N74    N    -0.00000   0.25000   0.04760   0.00000  Uiso   1.00
N75    N     0.25000   0.00000   0.28573   0.00000  Uiso   1.00
N76    N     0.25000   0.00000   0.04760   0.00000  Uiso   1.00
O77    O     0.04580   0.20419   0.20487   0.00000  Uiso   1.00
O78    O     0.20419   0.04581   0.12846   0.00000  Uiso   1.00
O79    O     0.20419   0.04581   0.20487   0.00000  Uiso   1.00
O80    O     0.29580   0.45419   0.12846   0.00000  Uiso   1.00
O81    O     0.20419   0.45419   0.12846   0.00000  Uiso   1.00
O82    O     0.29580   0.04581   0.20487   0.00000  Uiso   1.00
O83    O     0.29580   0.04581   0.12846   0.00000  Uiso   1.00
O84    O     0.20419   0.45419   0.20487   0.00000  Uiso   1.00
O85    O     0.01079   0.34906   0.07457   0.00000  Uiso   1.00
O86    O     0.45307   0.35904   0.02958   0.00000  Uiso   1.00
O87    O     0.01079   0.15094   0.25877   0.00000  Uiso   1.00
O88    O     0.45419   0.29581   0.12846   0.00000  Uiso   1.00
O89    O     0.45308   0.14096   0.30375   0.00000  Uiso   1.00
O90    O     0.48919   0.15093   0.07456   0.00000  Uiso   1.00
O91    O     0.04693   0.14097   0.02960   0.00000  Uiso   1.00
O92    O     0.48919   0.34907   0.25877   0.00000  Uiso   1.00
O93    O     0.04693   0.35903   0.30373   0.00000  Uiso   1.00
O94    O     0.26079   0.09906   0.07457   0.00000  Uiso   1.00
O95    O     0.20308   0.10904   0.02958   0.00000  Uiso   1.00
O96    O     0.26079   0.40094   0.25877   0.00000  Uiso   1.00
O97    O     0.20307   0.39096   0.30375   0.00000  Uiso   1.00
O98    O     0.23919   0.40093   0.07456   0.00000  Uiso   1.00
O99    O     0.45419   0.29581   0.20487   0.00000  Uiso   1.00
O100   O     0.29693   0.39097   0.02960   0.00000  Uiso   1.00
O101   O     0.23919   0.09907   0.25877   0.00000  Uiso   1.00
O102   O     0.29693   0.10903   0.30373   0.00000  Uiso   1.00
O103   O     0.04580   0.20419   0.12846   0.00000  Uiso   1.00
O104   O     0.45419   0.20419   0.12846   0.00000  Uiso   1.00
O105   O     0.04580   0.29581   0.20487   0.00000  Uiso   1.00
O106   O     0.04580   0.29581   0.12846   0.00000  Uiso   1.00
O107   O     0.45419   0.20419   0.20487   0.00000  Uiso   1.00
O108   O     0.29580   0.45419   0.20487   0.00000  Uiso   1.00
Zn109  Zn    0.00000   0.25000   0.21771   0.00000  Uiso   1.00
Zn110  Zn   -0.00000   0.25000   0.11563   0.00000  Uiso   1.00
Zn111  Zn    0.25000   0.00000   0.21771   0.00000  Uiso   1.00
Zn112  Zn    0.25000   0.00000   0.11563   0.00000  Uiso   1.00
C113   C     0.56012   0.19029   0.16671   0.00000  Uiso   1.00
C114   C     0.99786   0.21021   0.30961   0.00000  Uiso   1.00
C115   C     0.50214   0.21021   0.02373   0.00000  Uiso   1.00
C116   C     0.50214   0.28979   0.30961   0.00000  Uiso   1.00
C117   C     0.74786   0.03979   0.02372   0.00000  Uiso   1.00
C118   C     0.74786   0.46021   0.30961   0.00000  Uiso   1.00
C119   C     0.75214   0.46021   0.02373   0.00000  Uiso   1.00
C120   C     0.75214   0.03979   0.30961   0.00000  Uiso   1.00
C121   C     0.89077   0.14121   0.12569   0.00000  Uiso   1.00
C122   C     0.60959   0.35848   0.20701   0.00000  Uiso   1.00
C123   C     0.60921   0.35882   0.12569   0.00000  Uiso   1.00
C124   C     0.93988   0.30971   0.16671   0.00000  Uiso   1.00
C125   C     0.89043   0.14150   0.20701   0.00000  Uiso   1.00
C126   C     0.60921   0.14118   0.20765   0.00000  Uiso   1.00
C127   C     0.89043   0.35850   0.12632   0.00000  Uiso   1.00
C128   C     0.89077   0.35880   0.20765   0.00000  Uiso   1.00
C129   C     0.60959   0.14152   0.12632   0.00000  Uiso   1.00
C130   C     0.64077   0.39120   0.12569   0.00000  Uiso   1.00
C131   C     0.85959   0.10848   0.20701   0.00000  Uiso   1.00
C132   C     0.85921   0.10882   0.12569   0.00000  Uiso   1.00
C133   C     0.64043   0.39150   0.20701   0.00000  Uiso   1.00
C134   C     0.85921   0.39119   0.20765   0.00000  Uiso   1.00
C135   C     0.93988   0.19029   0.16662   0.00000  Uiso   1.00
C136   C     0.64043   0.10850   0.12632   0.00000  Uiso   1.00
C137   C     0.64077   0.10880   0.20765   0.00000  Uiso   1.00
C138   C     0.85959   0.39152   0.12632   0.00000  Uiso   1.00
C139   C     0.59353   0.34263   0.16642   0.00000  Uiso   1.00
C140   C     0.90647   0.15737   0.16642   0.00000  Uiso   1.00
C141   C     0.90647   0.34263   0.16691   0.00000  Uiso   1.00
C142   C     0.59353   0.15737   0.16691   0.00000  Uiso   1.00
C143   C     0.84353   0.09263   0.16642   0.00000  Uiso   1.00
C144   C     0.65647   0.40737   0.16642   0.00000  Uiso   1.00
C145   C     0.65647   0.09263   0.16691   0.00000  Uiso   1.00
C146   C     0.56012   0.30971   0.16662   0.00000  Uiso   1.00
C147   C     0.84353   0.40737   0.16691   0.00000  Uiso   1.00
C148   C     0.98760   0.33346   0.04565   0.00000  Uiso   1.00
C149   C     0.98761   0.16654   0.28769   0.00000  Uiso   1.00
C150   C     0.51239   0.16654   0.04565   0.00000  Uiso   1.00
C151   C     0.51239   0.33346   0.28768   0.00000  Uiso   1.00
C152   C     0.73760   0.08346   0.04565   0.00000  Uiso   1.00
C153   C     0.73761   0.41654   0.28769   0.00000  Uiso   1.00
C154   C     0.76239   0.41654   0.04565   0.00000  Uiso   1.00
C155   C     0.76239   0.08346   0.28768   0.00000  Uiso   1.00
C156   C     0.81012   0.44029   0.16671   0.00000  Uiso   1.00
C157   C     0.68988   0.05971   0.16671   0.00000  Uiso   1.00
C158   C     0.68988   0.44029   0.16662   0.00000  Uiso   1.00
C159   C     0.81012   0.05971   0.16662   0.00000  Uiso   1.00
C160   C     0.99786   0.28979   0.02372   0.00000  Uiso   1.00
H161   H     0.90265   0.15347   0.09392   0.00000  Uiso   1.00
H162   H     0.84846   0.09550   0.23868   0.00000  Uiso   1.00
H163   H     0.84731   0.09658   0.09392   0.00000  Uiso   1.00
H164   H     0.65158   0.40446   0.23868   0.00000  Uiso   1.00
H165   H     0.84732   0.40343   0.23942   0.00000  Uiso   1.00
H166   H     0.65158   0.09554   0.09465   0.00000  Uiso   1.00
H167   H     0.65266   0.09654   0.23942   0.00000  Uiso   1.00
H168   H     0.84845   0.40450   0.09465   0.00000  Uiso   1.00
H169   H     0.95036   0.38945   0.04507   0.00000  Uiso   1.00
H170   H     0.95036   0.11055   0.28826   0.00000  Uiso   1.00
H171   H     0.54965   0.11056   0.04510   0.00000  Uiso   1.00
H172   H     0.59845   0.34550   0.23868   0.00000  Uiso   1.00
H173   H     0.54965   0.38944   0.28823   0.00000  Uiso   1.00
H174   H     0.70036   0.13945   0.04507   0.00000  Uiso   1.00
H175   H     0.70036   0.36055   0.28826   0.00000  Uiso   1.00
H176   H     0.79965   0.36056   0.04510   0.00000  Uiso   1.00
H177   H     0.79965   0.13944   0.28823   0.00000  Uiso   1.00
H178   H     0.59731   0.34658   0.09392   0.00000  Uiso   1.00
H179   H     0.90158   0.15445   0.23868   0.00000  Uiso   1.00
H180   H     0.59731   0.15343   0.23942   0.00000  Uiso   1.00
H181   H     0.90158   0.34554   0.09465   0.00000  Uiso   1.00
H182   H     0.90266   0.34654   0.23942   0.00000  Uiso   1.00
H183   H     0.59845   0.15450   0.09465   0.00000  Uiso   1.00
H184   H     0.65266   0.40346   0.09392   0.00000  Uiso   1.00
N185   N     0.50000   0.25000   0.28573   0.00000  Uiso   1.00
N186   N     0.50000   0.25000   0.04760   0.00000  Uiso   1.00
N187   N     0.75000   0.00000   0.28573   0.00000  Uiso   1.00
N188   N     0.75000   0.00000   0.04760   0.00000  Uiso   1.00
O189   O     0.54580   0.20419   0.20487   0.00000  Uiso   1.00
O190   O     0.70419   0.04581   0.12846   0.00000  Uiso   1.00
O191   O     0.70419   0.04581   0.20487   0.00000  Uiso   1.00
O192   O     0.79580   0.45419   0.12846   0.00000  Uiso   1.00
O193   O     0.70419   0.45419   0.12846   0.00000  Uiso   1.00
O194   O     0.79580   0.04581   0.20487   0.00000  Uiso   1.00
O195   O     0.79580   0.04581   0.12846   0.00000  Uiso   1.00
O196   O     0.70419   0.45419   0.20487   0.00000  Uiso   1.00
O197   O     0.51079   0.34906   0.07457   0.00000  Uiso   1.00
O198   O     0.95307   0.35904   0.02958   0.00000  Uiso   1.00
O199   O     0.51079   0.15094   0.25877   0.00000  Uiso   1.00
O200   O     0.95419   0.29581   0.12846   0.00000  Uiso   1.00
O201   O     0.95308   0.14096   0.30375   0.00000  Uiso   1.00
O202   O     0.98919   0.15093   0.07456   0.00000  Uiso   1.00
O203   O     0.54693   0.14097   0.02960   0.00000  Uiso   1.00
O204   O     0.98919   0.34907   0.25877   0.00000  Uiso   1.00
O205   O     0.54693   0.35903   0.30373   0.00000  Uiso   1.00
O206   O     0.76079   0.09906   0.07457   0.00000  Uiso   1.00
O207   O     0.70308   0.10904   0.02958   0.00000  Uiso   1.00
O208   O     0.76079   0.40094   0.25877   0.00000  Uiso   1.00
O209   O     0.70307   0.39096   0.30375   0.00000  Uiso   1.00
O210   O     0.73919   0.40093   0.07456   0.00000  Uiso   1.00
O211   O     0.95419   0.29581   0.20487   0.00000  Uiso   1.00
O212   O     0.79693   0.39097   0.02960   0.00000  Uiso   1.00
O213   O     0.73919   0.09907   0.25877   0.00000  Uiso   1.00
O214   O     0.79693   0.10903   0.30373   0.00000  Uiso   1.00
O215   O     0.54580   0.20419   0.12846   0.00000  Uiso   1.00
O216   O     0.95419   0.20419   0.12846   0.00000  Uiso   1.00
O217   O     0.54580   0.29581   0.20487   0.00000  Uiso   1.00
O218   O     0.54580   0.29581   0.12846   0.00000  Uiso   1.00
O219   O     0.95419   0.20419   0.20487   0.00000  Uiso   1.00
O220   O     0.79580   0.45419   0.20487   0.00000  Uiso   1.00
Zn221  Zn    0.50000   0.25000   0.21771   0.00000  Uiso   1.00
Zn222  Zn    0.50000   0.25000   0.11563   0.00000  Uiso   1.00
Zn223  Zn    0.75000   0.00000   0.21771   0.00000  Uiso   1.00
Zn224  Zn    0.75000   0.00000   0.11563   0.00000  Uiso   1.00
C225   C     0.06012   0.69029   0.16671   0.00000  Uiso   1.00
C226   C     0.49786   0.71021   0.30961   0.00000  Uiso   1.00
C227   C     0.00214   0.71021   0.02373   0.00000  Uiso   1.00
C228   C     0.00214   0.78979   0.30961   0.00000  Uiso   1.00
C229   C     0.24786   0.53979   0.02372   0.00000  Uiso   1.00
C230   C     0.24786   0.96021   0.30961   0.00000  Uiso   1.00
C231   C     0.25214   0.96021   0.02373   0.00000  Uiso   1.00
C232   C     0.25214   0.53979   0.30961   0.00000  Uiso   1.00
C233   C     0.39077   0.64121   0.12569   0.00000  Uiso   1.00
C234   C     0.10959   0.85848   0.20701   0.00000  Uiso   1.00
C235   C     0.10921   0.85882   0.12569   0.00000  Uiso   1.00
C236   C     0.43988   0.80971   0.16671   0.00000  Uiso   1.00
C237   C     0.39043   0.64150   0.20701   0.00000  Uiso   1.00
C238   C     0.10921   0.64118   0.20765   0.00000  Uiso   1.00
C239   C     0.39043   0.85850   0.12632   0.00000  Uiso   1.00
C240   C     0.39077   0.85880   0.20765   0.00000  Uiso   1.00
C241   C     0.10959   0.64152   0.12632   0.00000  Uiso   1.00
C242   C     0.14077   0.89120   0.12569   0.00000  Uiso   1.00
C243   C     0.35959   0.60848   0.20701   0.00000  Uiso   1.00
C244   C     0.35921   0.60882   0.12569   0.00000  Uiso   1.00
C245   C     0.14043   0.89150   0.20701   0.00000  Uiso   1.00
C246   C     0.35921   0.89119   0.20765   0.00000  Uiso   1.00
C247   C     0.43988   0.69029   0.16662   0.00000  Uiso   1.00
C248   C     0.14043   0.60850   0.12632   0.00000  Uiso   1.00
C249   C     0.14077   0.60880   0.20765   0.00000  Uiso   1.00
C250   C     0.35959   0.89152   0.12632   0.00000  Uiso   1.00
C251   C     0.09353   0.84263   0.16642   0.00000  Uiso   1.00
C252   C     0.40647   0.65737   0.16642   0.00000  Uiso   1.00
C253   C     0.40647   0.84263   0.16691   0.00000  Uiso   1.00
C254   C     0.09353   0.65737   0.16691   0.00000  Uiso   1.00
C255   C     0.34353   0.59263   0.16642   0.00000  Uiso   1.00
C256   C     0.15647   0.90737   0.16642   0.00000  Uiso   1.00
C257   C     0.15647   0.59263   0.16691   0.00000  Uiso   1.00
C258   C     0.06012   0.80971   0.16662   0.00000  Uiso   1.00
C259   C     0.34353   0.90737   0.16691   0.00000  Uiso   1.00
C260   C     0.48760   0.83346   0.04565   0.00000  Uiso   1.00
C261   C     0.48761   0.66654   0.28769   0.00000  Uiso   1.00
C262   C     0.01239   0.66654   0.04565   0.00000  Uiso   1.00
C263   C     0.01239   0.83346   0.28768   0.00000  Uiso   1.00
C264   C     0.23760   0.58346   0.04565   0.00000  Uiso   1.00
C265   C     0.23761   0.91654   0.28769   0.00000  Uiso   1.00
C266   C     0.26239   0.91654   0.04565   0.00000  Uiso   1.00
C267   C     0.26239   0.58346   0.28768   0.00000  Uiso   1.00
C268   C     0.31012   0.94029   0.16671   0.00000  Uiso   1.00
C269   C     0.18988   0.55971   0.16671   0.00000  Uiso   1.00
C270   C     0.18988   0.94029   0.16662   0.00000  Uiso   1.00
C271   C     0.31012   0.55971   0.16662   0.00000  Uiso   1.00
C272   C     0.49786   0.78979   0.02372   0.00000  Uiso   1.00
H273   H     0.40265   0.65347   0.09392   0.00000  Uiso   1.00
H274   H     0.34846   0.59550   0.23868   0.00000  Uiso   1.00
H275   H     0.34731   0.59658   0.09392   0.00000  Uiso   1.00
H276   H     0.15158   0.90446   0.23868   0.00000  Uiso   1.00
H277   H     0.34732   0.90343   0.23942   0.00000  Uiso   1.00
H278   H     0.15158   0.59554   0.09465   0.00000  Uiso   1.00
H279   H     0.15266   0.59654   0.23942   0.00000  Uiso   1.00
H280   H     0.34845   0.90450   0.09465   0.00000  Uiso   1.00
H281   H     0.45036   0.88945   0.04507   0.00000  Uiso   1.00
H282   H     0.45036   0.61055   0.28826   0.00000  Uiso   1.00
H283   H     0.04965   0.61056   0.04510   0.00000  Uiso   1.00
H284   H     0.09845   0.84550   0.23868   0.00000  Uiso   1.00
H285   H     0.04965   0.88944   0.28823   0.00000  Uiso   1.00
H286   H     0.20036   0.63945   0.04507   0.00000  Uiso   1.00
H287   H     0.20036   0.86055   0.28826   0.00000  Uiso   1.00
H288   H     0.29965   0.86056   0.04510   0.00000  Uiso   1.00
H289   H     0.29965   0.63944   0.28823   0.00000  Uiso   1.00
H290   H     0.09731   0.84658   0.09392   0.00000  Uiso   1.00
H291   H     0.40158   0.65445   0.23868   0.00000  Uiso   1.00
H292   H     0.09731   0.65343   0.23942   0.00000  Uiso   1.00
H293   H     0.40158   0.84554   0.09465   0.00000  Uiso   1.00
H294   H     0.40266   0.84654   0.23942   0.00000  Uiso   1.00
H295   H     0.09845   0.65450   0.09465   0.00000  Uiso   1.00
H296   H     0.15266   0.90346   0.09392   0.00000  Uiso   1.00
N297   N     0.00000   0.75000   0.28573   0.00000  Uiso   1.00
N298   N    -0.00000   0.75000   0.04760   0.00000  Uiso   1.00
N299   N     0.25000   0.50000   0.28573   0.00000  Uiso   1.00
N300   N     0.25000   0.50000   0.04760   0.00000  Uiso   1.00
O301   O     0.04580   0.70419   0.20487   0.00000  Uiso   1.00
O302   O     0.20419   0.54581   0.12846   0.00000  Uiso   1.00
O303   O     0.20419   0.54581   0.20487   0.00000  Uiso   1.00
O304   O     0.29580   0.95419   0.12846   0.00000  Uiso   1.00
O305   O     0.20419   0.95419   0.12846   0.00000  Uiso   1.00
O306   O     0.29580   0.54581   0.20487   0.00000  Uiso   1.00
O307   O     0.29580   0.54581   0.12846   0.00000  Uiso   1.00
O308   O     0.20419   0.95419   0.20487   0.00000  Uiso   1.00
O309   O     0.01079   0.84906   0.07457   0.00000  Uiso   1.00
O310   O     0.45307   0.85904   0.02958   0.00000  Uiso   1.00
O311   O     0.01079   0.65094   0.25877   0.00000  Uiso   1.00
O312   O     0.45419   0.79581   0.12846   0.00000  Uiso   1.00
O313   O     0.45308   0.64096   0.30375   0.00000  Uiso   1.00
O314   O     0.48919   0.65093   0.07456   0.00000  Uiso   1.00
O315   O     0.04693   0.64097   0.02960   0.00000  Uiso   1.00
O316   O     0.48919   0.84907   0.25877   0.00000  Uiso   1.00
O317   O     0.04693   0.85903   0.30373   0.00000  Uiso   1.00
O318   O     0.26079   0.59906   0.07457   0.00000  Uiso   1.00
O319   O     0.20308   0.60904   0.02958   0.00000  Uiso   1.00
O320   O     0.26079   0.90094   0.25877   0.00000  Uiso   1.00
O321   O     0.20307   0.89096   0.30375   0.00000  Uiso   1.00
O322   O     0.23919   0.90093   0.07456   0.00000  Uiso   1.00
O323   O     0.45419   0.79581   0.20487   0.00000  Uiso   1.00
O324   O     0.29693   0.89097   0.02960   0.00000  Uiso   1.00
O325   O     0.23919   0.59907   0.25877   0.00000  Uiso   1.00
O326   O     0.29693   0.60903   0.30373   0.00000  Uiso   1.00
O327   O     0.04580   0.70419   0.12846   0.00000  Uiso   1.00
O328   O     0.45419   0.70419   0.12846   0.00000  Uiso   1.00
O329   O     0.04580   0.79581   0.20487   0.00000  Uiso   1.00
O330   O     0.04580   0.79581   0.12846   0.00000  Uiso   1.00
O331   O     0.45419   0.70419   0.20487   0.00000  Uiso   1.00
O332   O     0.29580   0.95419   0.20487   0.00000  Uiso   1.00
Zn333  Zn    0.00000   0.75000   0.21771   0.00000  Uiso   1.00
Zn334  Zn   -0.00000   0.75000   0.11563   0.00000  Uiso   1.00
Zn335  Zn    0.25000   0.50000   0.21771   0.00000  Uiso   1.00
Zn336  Zn    0.25000   0.50000   0.11563   0.00000  Uiso   1.00
C337   C     0.56012   0.69029   0.16671   0.00000  Uiso   1.00
C338   C     0.99786   0.71021   0.30961   0.00000  Uiso   1.00
C339   C     0.50214   0.71021   0.02373   0.00000  Uiso   1.00
C340   C     0.50214   0.78979   0.30961   0.00000  Uiso   1.00
C341   C     0.74786   0.53979   0.02372   0.00000  Uiso   1.00
C342   C     0.74786   0.96021   0.30961   0.00000  Uiso   1.00
C343   C     0.75214   0.96021   0.02373   0.00000  Uiso   1.00
C344   C     0.75214   0.53979   0.30961   0.00000  Uiso   1.00
C345   C     0.89077   0.64121   0.12569   0.00000  Uiso   1.00
C346   C     0.60959   0.85848   0.20701   0.00000  Uiso   1.00
C347   C     0.60921   0.85882   0.12569   0.00000  Uiso   1.00
C348   C     0.93988   0.80971   0.16671   0.00000  Uiso   1.00
C349   C     0.89043   0.64150   0.20701   0.00000  Uiso   1.00
C350   C     0.60921   0.64118   0.20765   0.00000  Uiso   1.00
C351   C     0.89043   0.85850   0.12632   0.00000  Uiso   1.00
C352   C     0.89077   0.85880   0.20765   0.00000  Uiso   1.00
C353   C     0.60959   0.64152   0.12632   0.00000  Uiso   1.00
C354   C     0.64077   0.89120   0.12569   0.00000  Uiso   1.00
C355   C     0.85959   0.60848   0.20701   0.00000  Uiso   1.00
C356   C     0.85921   0.60882   0.12569   0.00000  Uiso   1.00
C357   C     0.64043   0.89150   0.20701   0.00000  Uiso   1.00
C358   C     0.85921   0.89119   0.20765   0.00000  Uiso   1.00
C359   C     0.93988   0.69029   0.16662   0.00000  Uiso   1.00
C360   C     0.64043   0.60850   0.12632   0.00000  Uiso   1.00
C361   C     0.64077   0.60880   0.20765   0.00000  Uiso   1.00
C362   C     0.85959   0.89152   0.12632   0.00000  Uiso   1.00
C363   C     0.59353   0.84263   0.16642   0.00000  Uiso   1.00
C364   C     0.90647   0.65737   0.16642   0.00000  Uiso   1.00
C365   C     0.90647   0.84263   0.16691   0.00000  Uiso   1.00
C366   C     0.59353   0.65737   0.16691   0.00000  Uiso   1.00
C367   C     0.84353   0.59263   0.16642   0.00000  Uiso   1.00
C368   C     0.65647   0.90737   0.16642   0.00000  Uiso   1.00
C369   C     0.65647   0.59263   0.16691   0.00000  Uiso   1.00
C370   C     0.56012   0.80971   0.16662   0.00000  Uiso   1.00
C371   C     0.84353   0.90737   0.16691   0.00000  Uiso   1.00
C372   C     0.98760   0.83346   0.04565   0.00000  Uiso   1.00
C373   C     0.98761   0.66654   0.28769   0.00000  Uiso   1.00
C374   C     0.51239   0.66654   0.04565   0.00000  Uiso   1.00
C375   C     0.51239   0.83346   0.28768   0.00000  Uiso   1.00
C376   C     0.73760   0.58346   0.04565   0.00000  Uiso   1.00
C377   C     0.73761   0.91654   0.28769   0.00000  Uiso   1.00
C378   C     0.76239   0.91654   0.04565   0.00000  Uiso   1.00
C379   C     0.76239   0.58346   0.28768   0.00000  Uiso   1.00
C380   C     0.81012   0.94029   0.16671   0.00000  Uiso   1.00
C381   C     0.68988   0.55971   0.16671   0.00000  Uiso   1.00
C382   C     0.68988   0.94029   0.16662   0.00000  Uiso   1.00
C383   C     0.81012   0.55971   0.16662   0.00000  Uiso   1.00
C384   C     0.99786   0.78979   0.02372   0.00000  Uiso   1.00
H385   H     0.90265   0.65347   0.09392   0.00000  Uiso   1.00
H386   H     0.84846   0.59550   0.23868   0.00000  Uiso   1.00
H387   H     0.84731   0.59658   0.09392   0.00000  Uiso   1.00
H388   H     0.65158   0.90446   0.23868   0.00000  Uiso   1.00
H389   H     0.84732   0.90343   0.23942   0.00000  Uiso   1.00
H390   H     0.65158   0.59554   0.09465   0.00000  Uiso   1.00
H391   H     0.65266   0.59654   0.23942   0.00000  Uiso   1.00
H392   H     0.84845   0.90450   0.09465   0.00000  Uiso   1.00
H393   H     0.95036   0.88945   0.04507   0.00000  Uiso   1.00
H394   H     0.95036   0.61055   0.28826   0.00000  Uiso   1.00
H395   H     0.54965   0.61056   0.04510   0.00000  Uiso   1.00
H396   H     0.59845   0.84550   0.23868   0.00000  Uiso   1.00
H397   H     0.54965   0.88944   0.28823   0.00000  Uiso   1.00
H398   H     0.70036   0.63945   0.04507   0.00000  Uiso   1.00
H399   H     0.70036   0.86055   0.28826   0.00000  Uiso   1.00
H400   H     0.79965   0.86056   0.04510   0.00000  Uiso   1.00
H401   H     0.79965   0.63944   0.28823   0.00000  Uiso   1.00
H402   H     0.59731   0.84658   0.09392   0.00000  Uiso   1.00
H403   H     0.90158   0.65445   0.23868   0.00000  Uiso   1.00
H404   H     0.59731   0.65343   0.23942   0.00000  Uiso   1.00
H405   H     0.90158   0.84554   0.09465   0.00000  Uiso   1.00
H406   H     0.90266   0.84654   0.23942   0.00000  Uiso   1.00
H407   H     0.59845   0.65450   0.09465   0.00000  Uiso   1.00
H408   H     0.65266   0.90346   0.09392   0.00000  Uiso   1.00
N409   N     0.50000   0.75000   0.28573   0.00000  Uiso   1.00
N410   N     0.50000   0.75000   0.04760   0.00000  Uiso   1.00
N411   N     0.75000   0.50000   0.28573   0.00000  Uiso   1.00
N412   N     0.75000   0.50000   0.04760   0.00000  Uiso   1.00
O413   O     0.54580   0.70419   0.20487   0.00000  Uiso   1.00
O414   O     0.70419   0.54581   0.12846   0.00000  Uiso   1.00
O415   O     0.70419   0.54581   0.20487   0.00000  Uiso   1.00
O416   O     0.79580   0.95419   0.12846   0.00000  Uiso   1.00
O417   O     0.70419   0.95419   0.12846   0.00000  Uiso   1.00
O418   O     0.79580   0.54581   0.20487   0.00000  Uiso   1.00
O419   O     0.79580   0.54581   0.12846   0.00000  Uiso   1.00
O420   O     0.70419   0.95419   0.20487   0.00000  Uiso   1.00
O421   O     0.51079   0.84906   0.07457   0.00000  Uiso   1.00
O422   O     0.95307   0.85904   0.02958   0.00000  Uiso   1.00
O423   O     0.51079   0.65094   0.25877   0.00000  Uiso   1.00
O424   O     0.95419   0.79581   0.12846   0.00000  Uiso   1.00
O425   O     0.95308   0.64096   0.30375   0.00000  Uiso   1.00
O426   O     0.98919   0.65093   0.07456   0.00000  Uiso   1.00
O427   O     0.54693   0.64097   0.02960   0.00000  Uiso   1.00
O428   O     0.98919   0.84907   0.25877   0.00000  Uiso   1.00
O429   O     0.54693   0.85903   0.30373   0.00000  Uiso   1.00
O430   O     0.76079   0.59906   0.07457   0.00000  Uiso   1.00
O431   O     0.70308   0.60904   0.02958   0.00000  Uiso   1.00
O432   O     0.76079   0.90094   0.25877   0.00000  Uiso   1.00
O433   O     0.70307   0.89096   0.30375   0.00000  Uiso   1.00
O434   O     0.73919   0.90093   0.07456   0.00000  Uiso   1.00
O435   O     0.95419   0.79581   0.20487   0.00000  Uiso   1.00
O436   O     0.79693   0.89097   0.02960   0.00000  Uiso   1.00
O437   O     0.73919   0.59907   0.25877   0.00000  Uiso   1.00
O438   O     0.79693   0.60903   0.30373   0.00000  Uiso   1.00
O439   O     0.54580   0.70419   0.12846   0.00000  Uiso   1.00
O440   O     0.95419   0.70419   0.12846   0.00000  Uiso   1.00
O441   O     0.54580   0.79581   0.20487   0.00000  Uiso   1.00
O442   O     0.54580   0.79581   0.12846   0.00000  Uiso   1.00
O443   O     0.95419   0.70419   0.20487   0.00000  Uiso   1.00
O444   O     0.79580   0.95419   0.20487   0.00000  Uiso   1.00
Zn445  Zn    0.50000   0.75000   0.21771   0.00000  Uiso   1.00
Zn446  Zn    0.50000   0.75000   0.11563   0.00000  Uiso   1.00
Zn447  Zn    0.75000   0.50000   0.21771   0.00000  Uiso   1.00
Zn448  Zn    0.75000   0.50000   0.11563   0.00000  Uiso   1.00
C449   C     0.06012   0.19029   0.50004   0.00000  Uiso   1.00
C450   C     0.49786   0.21021   0.64294   0.00000  Uiso   1.00
C451   C     0.00214   0.21021   0.35706   0.00000  Uiso   1.00
C452   C     0.00214   0.28979   0.64294   0.00000  Uiso   1.00
C453   C     0.24786   0.03979   0.35706   0.00000  Uiso   1.00
C454   C     0.24786   0.46021   0.64294   0.00000  Uiso   1.00
C455   C     0.25214   0.46021   0.35706   0.00000  Uiso   1.00
C456   C     0.25214   0.03979   0.64294   0.00000  Uiso   1.00
C457   C     0.39077   0.14121   0.45902   0.00000  Uiso   1.00
C458   C     0.10959   0.35848   0.54035   0.00000  Uiso   1.00
C459   C     0.10921   0.35882   0.45902   0.00000  Uiso   1.00
C460   C     0.43988   0.30971   0.50004   0.00000  Uiso   1.00
C461   C     0.39043   0.14150   0.54035   0.00000  Uiso   1.00
C462   C     0.10921   0.14118   0.54098   0.00000  Uiso   1.00
C463   C     0.39043   0.35850   0.45965   0.00000  Uiso   1.00
C464   C     0.39077   0.35880   0.54098   0.00000  Uiso   1.00
C465   C     0.10959   0.14152   0.45965   0.00000  Uiso   1.00
C466   C     0.14077   0.39120   0.45902   0.00000  Uiso   1.00
C467   C     0.35959   0.10848   0.54035   0.00000  Uiso   1.00
C468   C     0.35921   0.10882   0.45902   0.00000  Uiso   1.00
C469   C     0.14043   0.39150   0.54035   0.00000  Uiso   1.00
C470   C     0.35921   0.39119   0.54098   0.00000  Uiso   1.00
C471   C     0.43988   0.19029   0.49996   0.00000  Uiso   1.00
C472   C     0.14043   0.10850   0.45965   0.00000  Uiso   1.00
C473   C     0.14077   0.10880   0.54098   0.00000  Uiso   1.00
C474   C     0.35959   0.39152   0.45965   0.00000  Uiso   1.00
C475   C     0.09353   0.34263   0.49975   0.00000  Uiso   1.00
C476   C     0.40647   0.15737   0.49975   0.00000  Uiso   1.00
C477   C     0.40647   0.34263   0.50025   0.00000  Uiso   1.00
C478   C     0.09353   0.15737   0.50025   0.00000  Uiso   1.00
C479   C     0.34353   0.09263   0.49975   0.00000  Uiso   1.00
C480   C     0.15647   0.40737   0.49975   0.00000  Uiso   1.00
C481   C     0.15647   0.09263   0.50025   0.00000  Uiso   1.00
C482   C     0.06012   0.30971   0.49996   0.00000  Uiso   1.00
C483   C     0.34353   0.40737   0.50025   0.00000  Uiso   1.00
C484   C     0.48760   0.33346   0.37898   0.00000  Uiso   1.00
C485   C     0.48761   0.16654   0.62102   0.00000  Uiso   1.00
C486   C     0.01239   0.16654   0.37899   0.00000  Uiso   1.00
C487   C     0.01239   0.33346   0.62101   0.00000  Uiso   1.00
C488   C     0.23760   0.08346   0.37898   0.00000  Uiso   1.00
C489   C     0.23761   0.41654   0.62102   0.00000  Uiso   1.00
C490   C     0.26239   0.41654   0.37899   0.00000  Uiso   1.00
C491   C     0.26239   0.08346   0.62101   0.00000  Uiso   1.00
C492   C     0.31012   0.44029   0.50004   0.00000  Uiso   1.00
C493   C     0.18988   0.05971   0.50004   0.00000  Uiso   1.00
C494   C     0.18988   0.44029   0.49996   0.00000  Uiso   1.00
C495   C     0.31012   0.05971   0.49996   0.00000  Uiso   1.00
C496   C     0.49786   0.28979   0.35706   0.00000  Uiso   1.00
H497   H     0.40265   0.15347   0.42725   0.00000  Uiso   1.00
H498   H     0.34846   0.09550   0.57201   0.00000  Uiso   1.00
H499   H     0.34731   0.09658   0.42725   0.00000  Uiso   1.00
H500   H     0.15158   0.40446   0.57201   0.00000  Uiso   1.00
H501   H     0.34732   0.40343   0.57275   0.00000  Uiso   1.00
H502   H     0.15158   0.09554   0.42799   0.00000  Uiso   1.00
H503   H     0.15266   0.09654   0.57275   0.00000  Uiso   1.00
H504   H     0.34845   0.40450   0.42799   0.00000  Uiso   1.00
H505   H     0.45036   0.38945   0.37841   0.00000  Uiso   1.00
H506   H     0.45036   0.11055   0.62159   0.00000  Uiso   1.00
H507   H     0.04965   0.11056   0.37843   0.00000  Uiso   1.00
H508   H     0.09845   0.34550   0.57201   0.00000  Uiso   1.00
H509   H     0.04965   0.38944   0.62157   0.00000  Uiso   1.00
H510   H     0.20036   0.13945   0.37840   0.00000  Uiso   1.00
H511   H     0.20036   0.36055   0.62159   0.00000  Uiso   1.00
H512   H     0.29965   0.36056   0.37843   0.00000  Uiso   1.00
H513   H     0.29965   0.13944   0.62156   0.00000  Uiso   1.00
H514   H     0.09731   0.34658   0.42725   0.00000  Uiso   1.00
H515   H     0.40158   0.15445   0.57201   0.00000  Uiso   1.00
H516   H     0.09731   0.15343   0.57275   0.00000  Uiso   1.00
H517   H     0.40158   0.34554   0.42799   0.00000  Uiso   1.00
H518   H     0.40266   0.34654   0.57275   0.00000  Uiso   1.00
H519   H     0.09845   0.15450   0.42799   0.00000  Uiso   1.00
H520   H     0.15266   0.40346   0.42725   0.00000  Uiso   1.00
N521   N     0.00000   0.25000   0.61907   0.00000  Uiso   1.00
N522   N    -0.00000   0.25000   0.38093   0.00000  Uiso   1.00
N523   N     0.25000   0.00000   0.61907   0.00000  Uiso   1.00
N524   N     0.25000   0.00000   0.38093   0.00000  Uiso   1.00
O525   O     0.04580   0.20419   0.53821   0.00000  Uiso   1.00
O526   O     0.20419   0.04581   0.46179   0.00000  Uiso   1.00
O527   O     0.20419   0.04581   0.53821   0.00000  Uiso   1.00
O528   O     0.29580   0.45419   0.46179   0.00000  Uiso   1.00
O529   O     0.20419   0.45419   0.46179   0.00000  Uiso   1.00
O530   O     0.29580   0.04581   0.53821   0.00000  Uiso   1.00
O531   O     0.29580   0.04581   0.46179   0.00000  Uiso   1.00
O532   O     0.20419   0.45419   0.53821   0.00000  Uiso   1.00
O533   O     0.01079   0.34906   0.40790   0.00000  Uiso   1.00
O534   O     0.45307   0.35904   0.36291   0.00000  Uiso   1.00
O535   O     0.01079   0.15094   0.59210   0.00000  Uiso   1.00
O536   O     0.45419   0.29581   0.46179   0.00000  Uiso   1.00
O537   O     0.45308   0.14096   0.63709   0.00000  Uiso   1.00
O538   O     0.48919   0.15093   0.40790   0.00000  Uiso   1.00
O539   O     0.04693   0.14097   0.36294   0.00000  Uiso   1.00
O540   O     0.48919   0.34907   0.59211   0.00000  Uiso   1.00
O541   O     0.04693   0.35903   0.63706   0.00000  Uiso   1.00
O542   O     0.26079   0.09906   0.40790   0.00000  Uiso   1.00
O543   O     0.20308   0.10904   0.36291   0.00000  Uiso   1.00
O544   O     0.26079   0.40094   0.59210   0.00000  Uiso   1.00
O545   O     0.20307   0.39096   0.63709   0.00000  Uiso   1.00
O546   O     0.23919   0.40093   0.40790   0.00000  Uiso   1.00
O547   O     0.45419   0.29581   0.53821   0.00000  Uiso   1.00
O548   O     0.29693   0.39097   0.36294   0.00000  Uiso   1.00
O549   O     0.23919   0.09907   0.59211   0.00000  Uiso   1.00
O550   O     0.29693   0.10903   0.63706   0.00000  Uiso   1.00
O551   O     0.04580   0.20419   0.46179   0.00000  Uiso   1.00
O552   O     0.45419   0.20419   0.46179   0.00000  Uiso   1.00
O553   O     0.04580   0.29581   0.53821   0.00000  Uiso   1.00
O554   O     0.04580   0.29581   0.46179   0.00000  Uiso   1.00
O555   O     0.45419   0.20419   0.53821   0.00000  Uiso   1.00
O556   O     0.29580   0.45419   0.53821   0.00000  Uiso   1.00
Zn557  Zn    0.00000   0.25000   0.55104   0.00000  Uiso   1.00
Zn558  Zn   -0.00000   0.25000   0.44896   0.00000  Uiso   1.00
Zn559  Zn    0.25000   0.00000   0.55104   0.00000  Uiso   1.00
Zn560  Zn    0.25000   0.00000   0.44896   0.00000  Uiso   1.00
C561   C     0.56012   0.19029   0.50004   0.00000  Uiso   1.00
C562   C     0.99786   0.21021   0.64294   0.00000  Uiso   1.00
C563   C     0.50214   0.21021   0.35706   0.00000  Uiso   1.00
C564   C     0.50214   0.28979   0.64294   0.00000  Uiso   1.00
C565   C     0.74786   0.03979   0.35706   0.00000  Uiso   1.00
C566   C     0.74786   0.46021   0.64294   0.00000  Uiso   1.00
C567   C     0.75214   0.46021   0.35706   0.00000  Uiso   1.00
C568   C     0.75214   0.03979   0.64294   0.00000  Uiso   1.00
C569   C     0.89077   0.14121   0.45902   0.00000  Uiso   1.00
C570   C     0.60959   0.35848   0.54035   0.00000  Uiso   1.00
C571   C     0.60921   0.35882   0.45902   0.00000  Uiso   1.00
C572   C     0.93988   0.30971   0.50004   0.00000  Uiso   1.00
C573   C     0.89043   0.14150   0.54035   0.00000  Uiso   1.00
C574   C     0.60921   0.14118   0.54098   0.00000  Uiso   1.00
C575   C     0.89043   0.35850   0.45965   0.00000  Uiso   1.00
C576   C     0.89077   0.35880   0.54098   0.00000  Uiso   1.00
C577   C     0.60959   0.14152   0.45965   0.00000  Uiso   1.00
C578   C     0.64077   0.39120   0.45902   0.00000  Uiso   1.00
C579   C     0.85959   0.10848   0.54035   0.00000  Uiso   1.00
C580   C     0.85921   0.10882   0.45902   0.00000  Uiso   1.00
C581   C     0.64043   0.39150   0.54035   0.00000  Uiso   1.00
C582   C     0.85921   0.39119   0.54098   0.00000  Uiso   1.00
C583   C     0.93988   0.19029   0.49996   0.00000  Uiso   1.00
C584   C     0.64043   0.10850   0.45965   0.00000  Uiso   1.00
C585   C     0.64077   0.10880   0.54098   0.00000  Uiso   1.00
C586   C     0.85959   0.39152   0.45965   0.00000  Uiso   1.00
C587   C     0.59353   0.34263   0.49975   0.00000  Uiso   1.00
C588   C     0.90647   0.15737   0.49975   0.00000  Uiso   1.00
C589   C     0.90647   0.34263   0.50025   0.00000  Uiso   1.00
C590   C     0.59353   0.15737   0.50025   0.00000  Uiso   1.00
C591   C     0.84353   0.09263   0.49975   0.00000  Uiso   1.00
C592   C     0.65647   0.40737   0.49975   0.00000  Uiso   1.00
C593   C     0.65647   0.09263   0.50025   0.00000  Uiso   1.00
C594   C     0.56012   0.30971   0.49996   0.00000  Uiso   1.00
C595   C     0.84353   0.40737   0.50025   0.00000  Uiso   1.00
C596   C     0.98760   0.33346   0.37898   0.00000  Uiso   1.00
C597   C     0.98761   0.16654   0.62102   0.00000  Uiso   1.00
C598   C     0.51239   0.16654   0.37899   0.00000  Uiso   1.00
C599   C     0.51239   0.33346   0.62101   0.00000  Uiso   1.00
C600   C     0.73760   0.08346   0.37898   0.00000  Uiso   1.00
C601   C     0.73761   0.41654   0.62102   0.00000  Uiso   1.00
C602   C     0.76239   0.41654   0.37899   0.00000  Uiso   1.00
C603   C     0.76239   0.08346   0.62101   0.00000  Uiso   1.00
C604   C     0.81012   0.44029   0.50004   0.00000  Uiso   1.00
C605   C     0.68988   0.05971   0.50004   0.00000  Uiso   1.00
C606   C     0.68988   0.44029   0.49996   0.00000  Uiso   1.00
C607   C     0.81012   0.05971   0.49996   0.00000  Uiso   1.00
C608   C     0.99786   0.28979   0.35706   0.00000  Uiso   1.00
H609   H     0.90265   0.15347   0.42725   0.00000  Uiso   1.00
H610   H     0.84846   0.09550   0.57201   0.00000  Uiso   1.00
H611   H     0.84731   0.09658   0.42725   0.00000  Uiso   1.00
H612   H     0.65158   0.40446   0.57201   0.00000  Uiso   1.00
H613   H     0.84732   0.40343   0.57275   0.00000  Uiso   1.00
H614   H     0.65158   0.09554   0.42799   0.00000  Uiso   1.00
H615   H     0.65266   0.09654   0.57275   0.00000  Uiso   1.00
H616   H     0.84845   0.40450   0.42799   0.00000  Uiso   1.00
H617   H     0.95036   0.38945   0.37841   0.00000  Uiso   1.00
H618   H     0.95036   0.11055   0.62159   0.00000  Uiso   1.00
H619   H     0.54965   0.11056   0.37843   0.00000  Uiso   1.00
H620   H     0.59845   0.34550   0.57201   0.00000  Uiso   1.00
H621   H     0.54965   0.38944   0.62157   0.00000  Uiso   1.00
H622   H     0.70036   0.13945   0.37840   0.00000  Uiso   1.00
H623   H     0.70036   0.36055   0.62159   0.00000  Uiso   1.00
H624   H     0.79965   0.36056   0.37843   0.00000  Uiso   1.00
H625   H     0.79965   0.13944   0.62156   0.00000  Uiso   1.00
H626   H     0.59731   0.34658   0.42725   0.00000  Uiso   1.00
H627   H     0.90158   0.15445   0.57201   0.00000  Uiso   1.00
H628   H     0.59731   0.15343   0.57275   0.00000  Uiso   1.00
H629   H     0.90158   0.34554   0.42799   0.00000  Uiso   1.00
H630   H     0.90266   0.34654   0.57275   0.00000  Uiso   1.00
H631   H     0.59845   0.15450   0.42799   0.00000  Uiso   1.00
H632   H     0.65266   0.40346   0.42725   0.00000  Uiso   1.00
N633   N     0.50000   0.25000   0.61907   0.00000  Uiso   1.00
N634   N     0.50000   0.25000   0.38093   0.00000  Uiso   1.00
N635   N     0.75000   0.00000   0.61907   0.00000  Uiso   1.00
N636   N     0.75000   0.00000   0.38093   0.00000  Uiso   1.00
O637   O     0.54580   0.20419   0.53821   0.00000  Uiso   1.00
O638   O     0.70419   0.04581   0.46179   0.00000  Uiso   1.00
O639   O     0.70419   0.04581   0.53821   0.00000  Uiso   1.00
O640   O     0.79580   0.45419   0.46179   0.00000  Uiso   1.00
O641   O     0.70419   0.45419   0.46179   0.00000  Uiso   1.00
O642   O     0.79580   0.04581   0.53821   0.00000  Uiso   1.00
O643   O     0.79580   0.04581   0.46179   0.00000  Uiso   1.00
O644   O     0.70419   0.45419   0.53821   0.00000  Uiso   1.00
O645   O     0.51079   0.34906   0.40790   0.00000  Uiso   1.00
O646   O     0.95307   0.35904   0.36291   0.00000  Uiso   1.00
O647   O     0.51079   0.15094   0.59210   0.00000  Uiso   1.00
O648   O     0.95419   0.29581   0.46179   0.00000  Uiso   1.00
O649   O     0.95308   0.14096   0.63709   0.00000  Uiso   1.00
O650   O     0.98919   0.15093   0.40790   0.00000  Uiso   1.00
O651   O     0.54693   0.14097   0.36294   0.00000  Uiso   1.00
O652   O     0.98919   0.34907   0.59211   0.00000  Uiso   1.00
O653   O     0.54693   0.35903   0.63706   0.00000  Uiso   1.00
O654   O     0.76079   0.09906   0.40790   0.00000  Uiso   1.00
O655   O     0.70308   0.10904   0.36291   0.00000  Uiso   1.00
O656   O     0.76079   0.40094   0.59210   0.00000  Uiso   1.00
O657   O     0.70307   0.39096   0.63709   0.00000  Uiso   1.00
O658   O     0.73919   0.40093   0.40790   0.00000  Uiso   1.00
O659   O     0.95419   0.29581   0.53821   0.00000  Uiso   1.00
O660   O     0.79693   0.39097   0.36294   0.00000  Uiso   1.00
O661   O     0.73919   0.09907   0.59211   0.00000  Uiso   1.00
O662   O     0.79693   0.10903   0.63706   0.00000  Uiso   1.00
O663   O     0.54580   0.20419   0.46179   0.00000  Uiso   1.00
O664   O     0.95419   0.20419   0.46179   0.00000  Uiso   1.00
O665   O     0.54580   0.29581   0.53821   0.00000  Uiso   1.00
O666   O     0.54580   0.29581   0.46179   0.00000  Uiso   1.00
O667   O     0.95419   0.20419   0.53821   0.00000  Uiso   1.00
O668   O     0.79580   0.45419   0.53821   0.00000  Uiso   1.00
Zn669  Zn    0.50000   0.25000   0.55104   0.00000  Uiso   1.00
Zn670  Zn    0.50000   0.25000   0.44896   0.00000  Uiso   1.00
Zn671  Zn    0.75000   0.00000   0.55104   0.00000  Uiso   1.00
Zn672  Zn    0.75000   0.00000   0.44896   0.00000  Uiso   1.00
C673   C     0.06012   0.69029   0.50004   0.00000  Uiso   1.00
C674   C     0.49786   0.71021   0.64294   0.00000  Uiso   1.00
C675   C     0.00214   0.71021   0.35706   0.00000  Uiso   1.00
C676   C     0.00214   0.78979   0.64294   0.00000  Uiso   1.00
C677   C     0.24786   0.53979   0.35706   0.00000  Uiso   1.00
C678   C     0.24786   0.96021   0.64294   0.00000  Uiso   1.00
C679   C     0.25214   0.96021   0.35706   0.00000  Uiso   1.00
C680   C     0.25214   0.53979   0.64294   0.00000  Uiso   1.00
C681   C     0.39077   0.64121   0.45902   0.00000  Uiso   1.00
C682   C     0.10959   0.85848   0.54035   0.00000  Uiso   1.00
C683   C     0.10921   0.85882   0.45902   0.00000  Uiso   1.00
C684   C     0.43988   0.80971   0.50004   0.00000  Uiso   1.00
C685   C     0.39043   0.64150   0.54035   0.00000  Uiso   1.00
C686   C     0.10921   0.64118   0.54098   0.00000  Uiso   1.00
C687   C     0.39043   0.85850   0.45965   0.00000  Uiso   1.00
C688   C     0.39077   0.85880   0.54098   0.00000  Uiso   1.00
C689   C     0.10959   0.64152   0.45965   0.00000  Uiso   1.00
C690   C     0.14077   0.89120   0.45902   0.00000  Uiso   1.00
C691   C     0.35959   0.60848   0.54035   0.00000  Uiso   1.00
C692   C     0.35921   0.60882   0.45902   0.00000  Uiso   1.00
C693   C     0.14043   0.89150   0.54035   0.00000  Uiso   1.00
C694   C     0.35921   0.89119   0.54098   0.00000  Uiso   1.00
C695   C     0.43988   0.69029   0.49996   0.00000  Uiso   1.00
C696   C     0.14043   0.60850   0.45965   0.00000  Uiso   1.00
C697   C     0.14077   0.60880   0.54098   0.00000  Uiso   1.00
C698   C     0.35959   0.89152   0.45965   0.00000  Uiso   1.00
C699   C     0.09353   0.84263   0.49975   0.00000  Uiso   1.00
C700   C     0.40647   0.65737   0.49975   0.00000  Uiso   1.00
C701   C     0.40647   0.84263   0.50025   0.00000  Uiso   1.00
C702   C     0.09353   0.65737   0.50025   0.00000  Uiso   1.00
C703   C     0.34353   0.59263   0.49975   0.00000  Uiso   1.00
C704   C     0.15647   0.90737   0.49975   0.00000  Uiso   1.00
C705   C     0.15647   0.59263   0.50025   0.00000  Uiso   1.00
C706   C     0.06012   0.80971   0.49996   0.00000  Uiso   1.00
C707   C     0.34353   0.90737   0.50025   0.00000  Uiso   1.00
C708   C     0.48760   0.83346   0.37898   0.00000  Uiso   1.00
C709   C     0.48761   0.66654   0.62102   0.00000  Uiso   1.00
C710   C     0.01239   0.66654   0.37899   0.00000  Uiso   1.00
C711   C     0.01239   0.83346   0.62101   0.00000  Uiso   1.00
C712   C     0.23760   0.58346   0.37898   0.00000  Uiso   1.00
C713   C     0.23761   0.91654   0.62102   0.00000  Uiso   1.00
C714   C     0.26239   0.91654   0.37899   0.00000  Uiso   1.00
C715   C     0.26239   0.58346   0.62101   0.00000  Uiso   1.00
C716   C     0.31012   0.94029   0.50004   0.00000  Uiso   1.00
C717   C     0.18988   0.55971   0.50004   0.00000  Uiso   1.00
C718   C     0.18988   0.94029   0.49996   0.00000  Uiso   1.00
C719   C     0.31012   0.55971   0.49996   0.00000  Uiso   1.00
C720   C     0.49786   0.78979   0.35706   0.00000  Uiso   1.00
H721   H     0.40265   0.65347   0.42725   0.00000  Uiso   1.00
H722   H     0.34846   0.59550   0.57201   0.00000  Uiso   1.00
H723   H     0.34731   0.59658   0.42725   0.00000  Uiso   1.00
H724   H     0.15158   0.90446   0.57201   0.00000  Uiso   1.00
H725   H     0.34732   0.90343   0.57275   0.00000  Uiso   1.00
H726   H     0.15158   0.59554   0.42799   0.00000  Uiso   1.00
H727   H     0.15266   0.59654   0.57275   0.00000  Uiso   1.00
H728   H     0.34845   0.90450   0.42799   0.00000  Uiso   1.00
H729   H     0.45036   0.88945   0.37841   0.00000  Uiso   1.00
H730   H     0.45036   0.61055   0.62159   0.00000  Uiso   1.00
H731   H     0.04965   0.61056   0.37843   0.00000  Uiso   1.00
H732   H     0.09845   0.84550   0.57201   0.00000  Uiso   1.00
H733   H     0.04965   0.88944   0.62157   0.00000  Uiso   1.00
H734   H     0.20036   0.63945   0.37840   0.00000  Uiso   1.00
H735   H     0.20036   0.86055   0.62159   0.00000  Uiso   1.00
H736   H     0.29965   0.86056   0.37843   0.00000  Uiso   1.00
H737   H     0.29965   0.63944   0.62156   0.00000  Uiso   1.00
H738   H     0.09731   0.84658   0.42725   0.00000  Uiso   1.00
H739   H     0.40158   0.65445   0.57201   0.00000  Uiso   1.00
H740   H     0.09731   0.65343   0.57275   0.00000  Uiso   1.00
H741   H     0.40158   0.84554   0.42799   0.00000  Uiso   1.00
H742   H     0.40266   0.84654   0.57275   0.00000  Uiso   1.00
H743   H     0.09845   0.65450   0.42799   0.00000  Uiso   1.00
H744   H     0.15266   0.90346   0.42725   0.00000  Uiso   1.00
N745   N     0.00000   0.75000   0.61907   0.00000  Uiso   1.00
N746   N    -0.00000   0.75000   0.38093   0.00000  Uiso   1.00
N747   N     0.25000   0.50000   0.61907   0.00000  Uiso   1.00
N748   N     0.25000   0.50000   0.38093   0.00000  Uiso   1.00
O749   O     0.04580   0.70419   0.53821   0.00000  Uiso   1.00
O750   O     0.20419   0.54581   0.46179   0.00000  Uiso   1.00
O751   O     0.20419   0.54581   0.53821   0.00000  Uiso   1.00
O752   O     0.29580   0.95419   0.46179   0.00000  Uiso   1.00
O753   O     0.20419   0.95419   0.46179   0.00000  Uiso   1.00
O754   O     0.29580   0.54581   0.53821   0.00000  Uiso   1.00
O755   O     0.29580   0.54581   0.46179   0.00000  Uiso   1.00
O756   O     0.20419   0.95419   0.53821   0.00000  Uiso   1.00
O757   O     0.01079   0.84906   0.40790   0.00000  Uiso   1.00
O758   O     0.45307   0.85904   0.36291   0.00000  Uiso   1.00
O759   O     0.01079   0.65094   0.59210   0.00000  Uiso   1.00
O760   O     0.45419   0.79581   0.46179   0.00000  Uiso   1.00
O761   O     0.45308   0.64096   0.63709   0.00000  Uiso   1.00
O762   O     0.48919   0.65093   0.40790   0.00000  Uiso   1.00
O763   O     0.04693   0.64097   0.36294   0.00000  Uiso   1.00
O764   O     0.48919   0.84907   0.59211   0.00000  Uiso   1.00
O765   O     0.04693   0.85903   0.63706   0.00000  Uiso   1.00
O766   O     0.26079   0.59906   0.40790   0.00000  Uiso   1.00
O767   O     0.20308   0.60904   0.36291   0.00000  Uiso   1.00
O768   O     0.26079   0.90094   0.59210   0.00000  Uiso   1.00
O769   O     0.20307   0.89096   0.63709   0.00000  Uiso   1.00
O770   O     0.23919   0.90093   0.40790   0.00000  Uiso   1.00
O771   O     0.45419   0.79581   0.53821   0.00000  Uiso   1.00
O772   O     0.29693   0.89097   0.36294   0.00000  Uiso   1.00
O773   O     0.23919   0.59907   0.59211   0.00000  Uiso   1.00
O774   O     0.29693   0.60903   0.63706   0.00000  Uiso   1.00
O775   O     0.04580   0.70419   0.46179   0.00000  Uiso   1.00
O776   O     0.45419   0.70419   0.46179   0.00000  Uiso   1.00
O777   O     0.04580   0.79581   0.53821   0.00000  Uiso   1.00
O778   O     0.04580   0.79581   0.46179   0.00000  Uiso   1.00
O779   O     0.45419   0.70419   0.53821   0.00000  Uiso   1.00
O780   O     0.29580   0.95419   0.53821   0.00000  Uiso   1.00
Zn781  Zn    0.00000   0.75000   0.55104   0.00000  Uiso   1.00
Zn782  Zn   -0.00000   0.75000   0.44896   0.00000  Uiso   1.00
Zn783  Zn    0.25000   0.50000   0.55104   0.00000  Uiso   1.00
Zn784  Zn    0.25000   0.50000   0.44896   0.00000  Uiso   1.00
C785   C     0.56012   0.69029   0.50004   0.00000  Uiso   1.00
C786   C     0.99786   0.71021   0.64294   0.00000  Uiso   1.00
C787   C     0.50214   0.71021   0.35706   0.00000  Uiso   1.00
C788   C     0.50214   0.78979   0.64294   0.00000  Uiso   1.00
C789   C     0.74786   0.53979   0.35706   0.00000  Uiso   1.00
C790   C     0.74786   0.96021   0.64294   0.00000  Uiso   1.00
C791   C     0.75214   0.96021   0.35706   0.00000  Uiso   1.00
C792   C     0.75214   0.53979   0.64294   0.00000  Uiso   1.00
C793   C     0.89077   0.64121   0.45902   0.00000  Uiso   1.00
C794   C     0.60959   0.85848   0.54035   0.00000  Uiso   1.00
C795   C     0.60921   0.85882   0.45902   0.00000  Uiso   1.00
C796   C     0.93988   0.80971   0.50004   0.00000  Uiso   1.00
C797   C     0.89043   0.64150   0.54035   0.00000  Uiso   1.00
C798   C     0.60921   0.64118   0.54098   0.00000  Uiso   1.00
C799   C     0.89043   0.85850   0.45965   0.00000  Uiso   1.00
C800   C     0.89077   0.85880   0.54098   0.00000  Uiso   1.00
C801   C     0.60959   0.64152   0.45965   0.00000  Uiso   1.00
C802   C     0.64077   0.89120   0.45902   0.00000  Uiso   1.00
C803   C     0.85959   0.60848   0.54035   0.00000  Uiso   1.00
C804   C     0.85921   0.60882   0.45902   0.00000  Uiso   1.00
C805   C     0.64043   0.89150   0.54035   0.00000  Uiso   1.00
C806   C     0.85921   0.89119   0.54098   0.00000  Uiso   1.00
C807   C     0.93988   0.69029   0.49996   0.00000  Uiso   1.00
C808   C     0.64043   0.60850   0.45965   0.00000  Uiso   1.00
C809   C     0.64077   0.60880   0.54098   0.00000  Uiso   1.00
C810   C     0.85959   0.89152   0.45965   0.00000  Uiso   1.00
C811   C     0.59353   0.84263   0.49975   0.00000  Uiso   1.00
C812   C     0.90647   0.65737   0.49975   0.00000  Uiso   1.00
C813   C     0.90647   0.84263   0.50025   0.00000  Uiso   1.00
C814   C     0.59353   0.65737   0.50025   0.00000  Uiso   1.00
C815   C     0.84353   0.59263   0.49975   0.00000  Uiso   1.00
C816   C     0.65647   0.90737   0.49975   0.00000  Uiso   1.00
C817   C     0.65647   0.59263   0.50025   0.00000  Uiso   1.00
C818   C     0.56012   0.80971   0.49996   0.00000  Uiso   1.00
C819   C     0.84353   0.90737   0.50025   0.00000  Uiso   1.00
C820   C     0.98760   0.83346   0.37898   0.00000  Uiso   1.00
C821   C     0.98761   0.66654   0.62102   0.00000  Uiso   1.00
C822   C     0.51239   0.66654   0.37899   0.00000  Uiso   1.00
C823   C     0.51239   0.83346   0.62101   0.00000  Uiso   1.00
C824   C     0.73760   0.58346   0.37898   0.00000  Uiso   1.00
C825   C     0.73761   0.91654   0.62102   0.00000  Uiso   1.00
C826   C     0.76239   0.91654   0.37899   0.00000  Uiso   1.00
C827   C     0.76239   0.58346   0.62101   0.00000  Uiso   1.00
C828   C     0.81012   0.94029   0.50004   0.00000  Uiso   1.00
C829   C     0.68988   0.55971   0.50004   0.00000  Uiso   1.00
C830   C     0.68988   0.94029   0.49996   0.00000  Uiso   1.00
C831   C     0.81012   0.55971   0.49996   0.00000  Uiso   1.00
C832   C     0.99786   0.78979   0.35706   0.00000  Uiso   1.00
H833   H     0.90265   0.65347   0.42725   0.00000  Uiso   1.00
H834   H     0.84846   0.59550   0.57201   0.00000  Uiso   1.00
H835   H     0.84731   0.59658   0.42725   0.00000  Uiso   1.00
H836   H     0.65158   0.90446   0.57201   0.00000  Uiso   1.00
H837   H     0.84732   0.90343   0.57275   0.00000  Uiso   1.00
H838   H     0.65158   0.59554   0.42799   0.00000  Uiso   1.00
H839   H     0.65266   0.59654   0.57275   0.00000  Uiso   1.00
H840   H     0.84845   0.90450   0.42799   0.00000  Uiso   1.00
H841   H     0.95036   0.88945   0.37841   0.00000  Uiso   1.00
H842   H     0.95036   0.61055   0.62159   0.00000  Uiso   1.00
H843   H     0.54965   0.61056   0.37843   0.00000  Uiso   1.00
H844   H     0.59845   0.84550   0.57201   0.00000  Uiso   1.00
H845   H     0.54965   0.88944   0.62157   0.00000  Uiso   1.00
H846   H     0.70036   0.63945   0.37840   0.00000  Uiso   1.00
H847   H     0.70036   0.86055   0.62159   0.00000  Uiso   1.00
H848   H     0.79965   0.86056   0.37843   0.00000  Uiso   1.00
H849   H     0.79965   0.63944   0.62156   0.00000  Uiso   1.00
H850   H     0.59731   0.84658   0.42725   0.00000  Uiso   1.00
H851   H     0.90158   0.65445   0.57201   0.00000  Uiso   1.00
H852   H     0.59731   0.65343   0.57275   0.00000  Uiso   1.00
H853   H     0.90158   0.84554   0.42799   0.00000  Uiso   1.00
H854   H     0.90266   0.84654   0.57275   0.00000  Uiso   1.00
H855   H     0.59845   0.65450   0.42799   0.00000  Uiso   1.00
H856   H     0.65266   0.90346   0.42725   0.00000  Uiso   1.00
N857   N     0.50000   0.75000   0.61907   0.00000  Uiso   1.00
N858   N     0.50000   0.75000   0.38093   0.00000  Uiso   1.00
N859   N     0.75000   0.50000   0.61907   0.00000  Uiso   1.00
N860   N     0.75000   0.50000   0.38093   0.00000  Uiso   1.00
O861   O     0.54580   0.70419   0.53821   0.00000  Uiso   1.00
O862   O     0.70419   0.54581   0.46179   0.00000  Uiso   1.00
O863   O     0.70419   0.54581   0.53821   0.00000  Uiso   1.00
O864   O     0.79580   0.95419   0.46179   0.00000  Uiso   1.00
O865   O     0.70419   0.95419   0.46179   0.00000  Uiso   1.00
O866   O     0.79580   0.54581   0.53821   0.00000  Uiso   1.00
O867   O     0.79580   0.54581   0.46179   0.00000  Uiso   1.00
O868   O     0.70419   0.95419   0.53821   0.00000  Uiso   1.00
O869   O     0.51079   0.84906   0.40790   0.00000  Uiso   1.00
O870   O     0.95307   0.85904   0.36291   0.00000  Uiso   1.00
O871   O     0.51079   0.65094   0.59210   0.00000  Uiso   1.00
O872   O     0.95419   0.79581   0.46179   0.00000  Uiso   1.00
O873   O     0.95308   0.64096   0.63709   0.00000  Uiso   1.00
O874   O     0.98919   0.65093   0.40790   0.00000  Uiso   1.00
O875   O     0.54693   0.64097   0.36294   0.00000  Uiso   1.00
O876   O     0.98919   0.84907   0.59211   0.00000  Uiso   1.00
O877   O     0.54693   0.85903   0.63706   0.00000  Uiso   1.00
O878   O     0.76079   0.59906   0.40790   0.00000  Uiso   1.00
O879   O     0.70308   0.60904   0.36291   0.00000  Uiso   1.00
O880   O     0.76079   0.90094   0.59210   0.00000  Uiso   1.00
O881   O     0.70307   0.89096   0.63709   0.00000  Uiso   1.00
O882   O     0.73919   0.90093   0.40790   0.00000  Uiso   1.00
O883   O     0.95419   0.79581   0.53821   0.00000  Uiso   1.00
O884   O     0.79693   0.89097   0.36294   0.00000  Uiso   1.00
O885   O     0.73919   0.59907   0.59211   0.00000  Uiso   1.00
O886   O     0.79693   0.60903   0.63706   0.00000  Uiso   1.00
O887   O     0.54580   0.70419   0.46179   0.00000  Uiso   1.00
O888   O     0.95419   0.70419   0.46179   0.00000  Uiso   1.00
O889   O     0.54580   0.79581   0.53821   0.00000  Uiso   1.00
O890   O     0.54580   0.79581   0.46179   0.00000  Uiso   1.00
O891   O     0.95419   0.70419   0.53821   0.00000  Uiso   1.00
O892   O     0.79580   0.95419   0.53821   0.00000  Uiso   1.00
Zn893  Zn    0.50000   0.75000   0.55104   0.00000  Uiso   1.00
Zn894  Zn    0.50000   0.75000   0.44896   0.00000  Uiso   1.00
Zn895  Zn    0.75000   0.50000   0.55104   0.00000  Uiso   1.00
Zn896  Zn    0.75000   0.50000   0.44896   0.00000  Uiso   1.00
C897   C     0.06012   0.19029   0.83338   0.00000  Uiso   1.00
C898   C     0.49786   0.21021   0.97628   0.00000  Uiso   1.00
C899   C     0.00214   0.21021   0.69039   0.00000  Uiso   1.00
C900   C     0.00214   0.28979   0.97627   0.00000  Uiso   1.00
C901   C     0.24786   0.03979   0.69039   0.00000  Uiso   1.00
C902   C     0.24786   0.46021   0.97628   0.00000  Uiso   1.00
C903   C     0.25214   0.46021   0.69039   0.00000  Uiso   1.00
C904   C     0.25214   0.03979   0.97627   0.00000  Uiso   1.00
C905   C     0.39077   0.14121   0.79235   0.00000  Uiso   1.00
C906   C     0.10959   0.35848   0.87368   0.00000  Uiso   1.00
C907   C     0.10921   0.35882   0.79235   0.00000  Uiso   1.00
C908   C     0.43988   0.30971   0.83338   0.00000  Uiso   1.00
C909   C     0.39043   0.14150   0.87368   0.00000  Uiso   1.00
C910   C     0.10921   0.14118   0.87431   0.00000  Uiso   1.00
C911   C     0.39043   0.35850   0.79299   0.00000  Uiso   1.00
C912   C     0.39077   0.35880   0.87431   0.00000  Uiso   1.00
C913   C     0.10959   0.14152   0.79299   0.00000  Uiso   1.00
C914   C     0.14077   0.39120   0.79235   0.00000  Uiso   1.00
C915   C     0.35959   0.10848   0.87368   0.00000  Uiso   1.00
C916   C     0.35921   0.10882   0.79235   0.00000  Uiso   1.00
C917   C     0.14043   0.39150   0.87368   0.00000  Uiso   1.00
C918   C     0.35921   0.39119   0.87431   0.00000  Uiso   1.00
C919   C     0.43988   0.19029   0.83329   0.00000  Uiso   1.00
C920   C     0.14043   0.10850   0.79299   0.00000  Uiso   1.00
C921   C     0.14077   0.10880   0.87431   0.00000  Uiso   1.00
C922   C     0.35959   0.39152   0.79299   0.00000  Uiso   1.00
C923   C     0.09353   0.34263   0.83309   0.00000  Uiso   1.00
C924   C     0.40647   0.15737   0.83309   0.00000  Uiso   1.00
C925   C     0.40647   0.34263   0.83358   0.00000  Uiso   1.00
C926   C     0.09353   0.15737   0.83358   0.00000  Uiso   1.00
C927   C     0.34353   0.09263   0.83309   0.00000  Uiso   1.00
C928   C     0.15647   0.40737   0.83309   0.00000  Uiso   1.00
C929   C     0.15647   0.09263   0.83358   0.00000  Uiso   1.00
C930   C     0.06012   0.30971   0.83329   0.00000  Uiso   1.00
C931   C     0.34353   0.40737   0.83358   0.00000  Uiso   1.00
C932   C     0.48760   0.33346   0.71231   0.00000  Uiso   1.00
C933   C     0.48761   0.16654   0.95435   0.00000  Uiso   1.00
C934   C     0.01239   0.16654   0.71232   0.00000  Uiso   1.00
C935   C     0.01239   0.33346   0.95435   0.00000  Uiso   1.00
C936   C     0.23760   0.08346   0.71231   0.00000  Uiso   1.00
C937   C     0.23761   0.41654   0.95435   0.00000  Uiso   1.00
C938   C     0.26239   0.41654   0.71232   0.00000  Uiso   1.00
C939   C     0.26239   0.08346   0.95434   0.00000  Uiso   1.00
C940   C     0.31012   0.44029   0.83338   0.00000  Uiso   1.00
C941   C     0.18988   0.05971   0.83338   0.00000  Uiso   1.00
C942   C     0.18988   0.44029   0.83329   0.00000  Uiso   1.00
C943   C     0.31012   0.05971   0.83329   0.00000  Uiso   1.00
C944   C     0.49786   0.28979   0.69039   0.00000  Uiso   1.00
H945   H     0.40265   0.15347   0.76058   0.00000  Uiso   1.00
H946   H     0.34846   0.09550   0.90535   0.00000  Uiso   1.00
H947   H     0.34731   0.09658   0.76058   0.00000  Uiso   1.00
H948   H     0.15158   0.40446   0.90535   0.00000  Uiso   1.00
H949   H     0.34732   0.40343   0.90608   0.00000  Uiso   1.00
H950   H     0.15158   0.09554   0.76132   0.00000  Uiso   1.00
H951   H     0.15266   0.09654   0.90608   0.00000  Uiso   1.00
H952   H     0.34845   0.40450   0.76132   0.00000  Uiso   1.00
H953   H     0.45036   0.38945   0.71174   0.00000  Uiso   1.00
H954   H     0.45036   0.11055   0.95493   0.00000  Uiso   1.00
H955   H     0.04965   0.11056   0.71177   0.00000  Uiso   1.00
H956   H     0.09845   0.34550   0.90535   0.00000  Uiso   1.00
H957   H     0.04965   0.38944   0.95490   0.00000  Uiso   1.00
H958   H     0.20036   0.13945   0.71174   0.00000  Uiso   1.00
H959   H     0.20036   0.36055   0.95492   0.00000  Uiso   1.00
H960   H     0.29965   0.36056   0.71177   0.00000  Uiso   1.00
H961   H     0.29965   0.13944   0.95490   0.00000  Uiso   1.00
H962   H     0.09731   0.34658   0.76058   0.00000  Uiso   1.00
H963   H     0.40158   0.15445   0.90535   0.00000  Uiso   1.00
H964   H     0.09731   0.15343   0.90608   0.00000  Uiso   1.00
H965   H     0.40158   0.34554   0.76132   0.00000  Uiso   1.00
H966   H     0.40266   0.34654   0.90608   0.00000  Uiso   1.00
H967   H     0.09845   0.15450   0.76132   0.00000  Uiso   1.00
H968   H     0.15266   0.40346   0.76058   0.00000  Uiso   1.00
N969   N     0.00000   0.25000   0.95240   0.00000  Uiso   1.00
N970   N    -0.00000   0.25000   0.71427   0.00000  Uiso   1.00
N971   N     0.25000   0.00000   0.95240   0.00000  Uiso   1.00
N972   N     0.25000   0.00000   0.71427   0.00000  Uiso   1.00
O973   O     0.04580   0.20419   0.87154   0.00000  Uiso   1.00
O974   O     0.20419   0.04581   0.79513   0.00000  Uiso   1.00
O975   O     0.20419   0.04581   0.87154   0.00000  Uiso   1.00
O976   O     0.29580   0.45419   0.79513   0.00000  Uiso   1.00
O977   O     0.20419   0.45419   0.79513   0.00000  Uiso   1.00
O978   O     0.29580   0.04581   0.87154   0.00000  Uiso   1.00
O979   O     0.29580   0.04581   0.79513   0.00000  Uiso   1.00
O980   O     0.20419   0.45419   0.87154   0.00000  Uiso   1.00
O981   O     0.01079   0.34906   0.74123   0.00000  Uiso   1.00
O982   O     0.45307   0.35904   0.69625   0.00000  Uiso   1.00
O983   O     0.01079   0.15094   0.92543   0.00000  Uiso   1.00
O984   O     0.45419   0.29581   0.79513   0.00000  Uiso   1.00
O985   O     0.45308   0.14096   0.97042   0.00000  Uiso   1.00
O986   O     0.48919   0.15093   0.74123   0.00000  Uiso   1.00
O987   O     0.04693   0.14097   0.69627   0.00000  Uiso   1.00
O988   O     0.48919   0.34907   0.92544   0.00000  Uiso   1.00
O989   O     0.04693   0.35903   0.97040   0.00000  Uiso   1.00
O990   O     0.26079   0.09906   0.74124   0.00000  Uiso   1.00
O991   O     0.20308   0.10904   0.69624   0.00000  Uiso   1.00
O992   O     0.26079   0.40094   0.92543   0.00000  Uiso   1.00
O993   O     0.20307   0.39096   0.97042   0.00000  Uiso   1.00
O994   O     0.23919   0.40093   0.74123   0.00000  Uiso   1.00
O995   O     0.45419   0.29581   0.87154   0.00000  Uiso   1.00
O996   O     0.29693   0.39097   0.69627   0.00000  Uiso   1.00
O997   O     0.23919   0.09907   0.92544   0.00000  Uiso   1.00
O998   O     0.29693   0.10903   0.97039   0.00000  Uiso   1.00
O999   O     0.04580   0.20419   0.79513   0.00000  Uiso   1.00
O1000  O     0.45419   0.20419   0.79513   0.00000  Uiso   1.00
O1001  O     0.04580   0.29581   0.87154   0.00000  Uiso   1.00
O1002  O     0.04580   0.29581   0.79513   0.00000  Uiso   1.00
O1003  O     0.45419   0.20419   0.87154   0.00000  Uiso   1.00
O1004  O     0.29580   0.45419   0.87154   0.00000  Uiso   1.00
Zn1005 Zn    0.00000   0.25000   0.88437   0.00000  Uiso   1.00
Zn1006 Zn   -0.00000   0.25000   0.78229   0.00000  Uiso   1.00
Zn1007 Zn    0.25000   0.00000   0.88437   0.00000  Uiso   1.00
Zn1008 Zn    0.25000   0.00000   0.78229   0.00000  Uiso   1.00
C1009  C     0.56012   0.19029   0.83338   0.00000  Uiso   1.00
C1010  C     0.99786   0.21021   0.97628   0.00000  Uiso   1.00
C1011  C     0.50214   0.21021   0.69039   0.00000  Uiso   1.00
C1012  C     0.50214   0.28979   0.97627   0.00000  Uiso   1.00
C1013  C     0.74786   0.03979   0.69039   0.00000  Uiso   1.00
C1014  C     0.74786   0.46021   0.97628   0.00000  Uiso   1.00
C1015  C     0.75214   0.46021   0.69039   0.00000  Uiso   1.00
C1016  C     0.75214   0.03979   0.97627   0.00000  Uiso   1.00
C1017  C     0.89077   0.14121   0.79235   0.00000  Uiso   1.00
C1018  C     0.60959   0.35848   0.87368   0.00000  Uiso   1.00
C1019  C     0.60921   0.35882   0.79235   0.00000  Uiso   1.00
C1020  C     0.93988   0.30971   0.83338   0.00000  Uiso   1.00
C1021  C     0.89043   0.14150   0.87368   0.00000  Uiso   1.00
C1022  C     0.60921   0.14118   0.87431   0.00000  Uiso   1.00
C1023  C     0.89043   0.35850   0.79299   0.00000  Uiso   1.00
C1024  C     0.89077   0.35880   0.87431   0.00000  Uiso   1.00
C1025  C     0.60959   0.14152   0.79299   0.00000  Uiso   1.00
C1026  C     0.64077   0.39120   0.79235   0.00000  Uiso   1.00
C1027  C     0.85959   0.10848   0.87368   0.00000  Uiso   1.00
C1028  C     0.85921   0.10882   0.79235   0.00000  Uiso   1.00
C1029  C     0.64043   0.39150   0.87368   0.00000  Uiso   1.00
C1030  C     0.85921   0.39119   0.87431   0.00000  Uiso   1.00
C1031  C     0.93988   0.19029   0.83329   0.00000  Uiso   1.00
C1032  C     0.64043   0.10850   0.79299   0.00000  Uiso   1.00
C1033  C     0.64077   0.10880   0.87431   0.00000  Uiso   1.00
C1034  C     0.85959   0.39152   0.79299   0.00000  Uiso   1.00
C1035  C     0.59353   0.34263   0.83309   0.00000  Uiso   1.00
C1036  C     0.90647   0.15737   0.83309   0.00000  Uiso   1.00
C1037  C     0.90647   0.34263   0.83358   0.00000  Uiso   1.00
C1038  C     0.59353   0.15737   0.83358   0.00000  Uiso   1.00
C1039  C     0.84353   0.09263   0.83309   0.00000  Uiso   1.00
C1040  C     0.65647   0.40737   0.83309   0.00000  Uiso   1.00
C1041  C     0.65647   0.09263   0.83358   0.00000  Uiso   1.00
C1042  C     0.56012   0.30971   0.83329   0.00000  Uiso   1.00
C1043  C     0.84353   0.40737   0.83358   0.00000  Uiso   1.00
C1044  C     0.98760   0.33346   0.71231   0.00000  Uiso   1.00
C1045  C     0.98761   0.16654   0.95435   0.00000  Uiso   1.00
C1046  C     0.51239   0.16654   0.71232   0.00000  Uiso   1.00
C1047  C     0.51239   0.33346   0.95435   0.00000  Uiso   1.00
C1048  C     0.73760   0.08346   0.71231   0.00000  Uiso   1.00
C1049  C     0.73761   0.41654   0.95435   0.00000  Uiso   1.00
C1050  C     0.76239   0.41654   0.71232   0.00000  Uiso   1.00
C1051  C     0.76239   0.08346   0.95434   0.00000  Uiso   1.00
C1052  C     0.81012   0.44029   0.83338   0.00000  Uiso   1.00
C1053  C     0.68988   0.05971   0.83338   0.00000  Uiso   1.00
C1054  C     0.68988   0.44029   0.83329   0.00000  Uiso   1.00
C1055  C     0.81012   0.05971   0.83329   0.00000  Uiso   1.00
C1056  C     0.99786   0.28979   0.69039   0.00000  Uiso   1.00
H1057  H     0.90265   0.15347   0.76058   0.00000  Uiso   1.00
H1058  H     0.84846   0.09550   0.90535   0.00000  Uiso   1.00
H1059  H     0.84731   0.09658   0.76058   0.00000  Uiso   1.00
H1060  H     0.65158   0.40446   0.90535   0.00000  Uiso   1.00
H1061  H     0.84732   0.40343   0.90608   0.00000  Uiso   1.00
H1062  H     0.65158   0.09554   0.76132   0.00000  Uiso   1.00
H1063  H     0.65266   0.09654   0.90608   0.00000  Uiso   1.00
H1064  H     0.84845   0.40450   0.76132   0.00000  Uiso   1.00
H1065  H     0.95036   0.38945   0.71174   0.00000  Uiso   1.00
H1066  H     0.95036   0.11055   0.95493   0.00000  Uiso   1.00
H1067  H     0.54965   0.11056   0.71177   0.00000  Uiso   1.00
H1068  H     0.59845   0.34550   0.90535   0.00000  Uiso   1.00
H1069  H     0.54965   0.38944   0.95490   0.00000  Uiso   1.00
H1070  H     0.70036   0.13945   0.71174   0.00000  Uiso   1.00
H1071  H     0.70036   0.36055   0.95492   0.00000  Uiso   1.00
H1072  H     0.79965   0.36056   0.71177   0.00000  Uiso   1.00
H1073  H     0.79965   0.13944   0.95490   0.00000  Uiso   1.00
H1074  H     0.59731   0.34658   0.76058   0.00000  Uiso   1.00
H1075  H     0.90158   0.15445   0.90535   0.00000  Uiso   1.00
H1076  H     0.59731   0.15343   0.90608   0.00000  Uiso   1.00
H1077  H     0.90158   0.34554   0.76132   0.00000  Uiso   1.00
H1078  H     0.90266   0.34654   0.90608   0.00000  Uiso   1.00
H1079  H     0.59845   0.15450   0.76132   0.00000  Uiso   1.00
H1080  H     0.65266   0.40346   0.76058   0.00000  Uiso   1.00
N1081  N     0.50000   0.25000   0.95240   0.00000  Uiso   1.00
N1082  N     0.50000   0.25000   0.71427   0.00000  Uiso   1.00
N1083  N     0.75000   0.00000   0.95240   0.00000  Uiso   1.00
N1084  N     0.75000   0.00000   0.71427   0.00000  Uiso   1.00
O1085  O     0.54580   0.20419   0.87154   0.00000  Uiso   1.00
O1086  O     0.70419   0.04581   0.79513   0.00000  Uiso   1.00
O1087  O     0.70419   0.04581   0.87154   0.00000  Uiso   1.00
O1088  O     0.79580   0.45419   0.79513   0.00000  Uiso   1.00
O1089  O     0.70419   0.45419   0.79513   0.00000  Uiso   1.00
O1090  O     0.79580   0.04581   0.87154   0.00000  Uiso   1.00
O1091  O     0.79580   0.04581   0.79513   0.00000  Uiso   1.00
O1092  O     0.70419   0.45419   0.87154   0.00000  Uiso   1.00
O1093  O     0.51079   0.34906   0.74123   0.00000  Uiso   1.00
O1094  O     0.95307   0.35904   0.69625   0.00000  Uiso   1.00
O1095  O     0.51079   0.15094   0.92543   0.00000  Uiso   1.00
O1096  O     0.95419   0.29581   0.79513   0.00000  Uiso   1.00
O1097  O     0.95308   0.14096   0.97042   0.00000  Uiso   1.00
O1098  O     0.98919   0.15093   0.74123   0.00000  Uiso   1.00
O1099  O     0.54693   0.14097   0.69627   0.00000  Uiso   1.00
O1100  O     0.98919   0.34907   0.92544   0.00000  Uiso   1.00
O1101  O     0.54693   0.35903   0.97040   0.00000  Uiso   1.00
O1102  O     0.76079   0.09906   0.74124   0.00000  Uiso   1.00
O1103  O     0.70308   0.10904   0.69624   0.00000  Uiso   1.00
O1104  O     0.76079   0.40094   0.92543   0.00000  Uiso   1.00
O1105  O     0.70307   0.39096   0.97042   0.00000  Uiso   1.00
O1106  O     0.73919   0.40093   0.74123   0.00000  Uiso   1.00
O1107  O     0.95419   0.29581   0.87154   0.00000  Uiso   1.00
O1108  O     0.79693   0.39097   0.69627   0.00000  Uiso   1.00
O1109  O     0.73919   0.09907   0.92544   0.00000  Uiso   1.00
O1110  O     0.79693   0.10903   0.97039   0.00000  Uiso   1.00
O1111  O     0.54580   0.20419   0.79513   0.00000  Uiso   1.00
O1112  O     0.95419   0.20419   0.79513   0.00000  Uiso   1.00
O1113  O     0.54580   0.29581   0.87154   0.00000  Uiso   1.00
O1114  O     0.54580   0.29581   0.79513   0.00000  Uiso   1.00
O1115  O     0.95419   0.20419   0.87154   0.00000  Uiso   1.00
O1116  O     0.79580   0.45419   0.87154   0.00000  Uiso   1.00
Zn1117 Zn    0.50000   0.25000   0.88437   0.00000  Uiso   1.00
Zn1118 Zn    0.50000   0.25000   0.78229   0.00000  Uiso   1.00
Zn1119 Zn    0.75000   0.00000   0.88437   0.00000  Uiso   1.00
Zn1120 Zn    0.75000   0.00000   0.78229   0.00000  Uiso   1.00
C1121  C     0.06012   0.69029   0.83338   0.00000  Uiso   1.00
C1122  C     0.49786   0.71021   0.97628   0.00000  Uiso   1.00
C1123  C     0.00214   0.71021   0.69039   0.00000  Uiso   1.00
C1124  C     0.00214   0.78979   0.97627   0.00000  Uiso   1.00
C1125  C     0.24786   0.53979   0.69039   0.00000  Uiso   1.00
C1126  C     0.24786   0.96021   0.97628   0.00000  Uiso   1.00
C1127  C     0.25214   0.96021   0.69039   0.00000  Uiso   1.00
C1128  C     0.25214   0.53979   0.97627   0.00000  Uiso   1.00
C1129  C     0.39077   0.64121   0.79235   0.00000  Uiso   1.00
C1130  C     0.10959   0.85848   0.87368   0.00000  Uiso   1.00
C1131  C     0.10921   0.85882   0.79235   0.00000  Uiso   1.00
C1132  C     0.43988   0.80971   0.83338   0.00000  Uiso   1.00
C1133  C     0.39043   0.64150   0.87368   0.00000  Uiso   1.00
C1134  C     0.10921   0.64118   0.87431   0.00000  Uiso   1.00
C1135  C     0.39043   0.85850   0.79299   0.00000  Uiso   1.00
C1136  C     0.39077   0.85880   0.87431   0.00000  Uiso   1.00
C1137  C     0.10959   0.64152   0.79299   0.00000  Uiso   1.00
C1138  C     0.14077   0.89120   0.79235   0.00000  Uiso   1.00
C1139  C     0.35959   0.60848   0.87368   0.00000  Uiso   1.00
C1140  C     0.35921   0.60882   0.79235   0.00000  Uiso   1.00
C1141  C     0.14043   0.89150   0.87368   0.00000  Uiso   1.00
C1142  C     0.35921   0.89119   0.87431   0.00000  Uiso   1.00
C1143  C     0.43988   0.69029   0.83329   0.00000  Uiso   1.00
C1144  C     0.14043   0.60850   0.79299   0.00000  Uiso   1.00
C1145  C     0.14077   0.60880   0.87431   0.00000  Uiso   1.00
C1146  C     0.35959   0.89152   0.79299   0.00000  Uiso   1.00
C1147  C     0.09353   0.84263   0.83309   0.00000  Uiso   1.00
C1148  C     0.40647   0.65737   0.83309   0.00000  Uiso   1.00
C1149  C     0.40647   0.84263   0.83358   0.00000  Uiso   1.00
C1150  C     0.09353   0.65737   0.83358   0.00000  Uiso   1.00
C1151  C     0.34353   0.59263   0.83309   0.00000  Uiso   1.00
C1152  C     0.15647   0.90737   0.83309   0.00000  Uiso   1.00
C1153  C     0.15647   0.59263   0.83358   0.00000  Uiso   1.00
C1154  C     0.06012   0.80971   0.83329   0.00000  Uiso   1.00
C1155  C     0.34353   0.90737   0.83358   0.00000  Uiso   1.00
C1156  C     0.48760   0.83346   0.71231   0.00000  Uiso   1.00
C1157  C     0.48761   0.66654   0.95435   0.00000  Uiso   1.00
C1158  C     0.01239   0.66654   0.71232   0.00000  Uiso   1.00
C1159  C     0.01239   0.83346   0.95435   0.00000  Uiso   1.00
C1160  C     0.23760   0.58346   0.71231   0.00000  Uiso   1.00
C1161  C     0.23761   0.91654   0.95435   0.00000  Uiso   1.00
C1162  C     0.26239   0.91654   0.71232   0.00000  Uiso   1.00
C1163  C     0.26239   0.58346   0.95434   0.00000  Uiso   1.00
C1164  C     0.31012   0.94029   0.83338   0.00000  Uiso   1.00
C1165  C     0.18988   0.55971   0.83338   0.00000  Uiso   1.00
C1166  C     0.18988   0.94029   0.83329   0.00000  Uiso   1.00
C1167  C     0.31012   0.55971   0.83329   0.00000  Uiso   1.00
C1168  C     0.49786   0.78979   0.69039   0.00000  Uiso   1.00
H1169  H     0.40265   0.65347   0.76058   0.00000  Uiso   1.00
H1170  H     0.34846   0.59550   0.90535   0.00000  Uiso   1.00
H1171  H     0.34731   0.59658   0.76058   0.00000  Uiso   1.00
H1172  H     0.15158   0.90446   0.90535   0.00000  Uiso   1.00
H1173  H     0.34732   0.90343   0.90608   0.00000  Uiso   1.00
H1174  H     0.15158   0.59554   0.76132   0.00000  Uiso   1.00
H1175  H     0.15266   0.59654   0.90608   0.00000  Uiso   1.00
H1176  H     0.34845   0.90450   0.76132   0.00000  Uiso   1.00
H1177  H     0.45036   0.88945   0.71174   0.00000  Uiso   1.00
H1178  H     0.45036   0.61055   0.95493   0.00000  Uiso   1.00
H1179  H     0.04965   0.61056   0.71177   0.00000  Uiso   1.00
H1180  H     0.09845   0.84550   0.90535   0.00000  Uiso   1.00
H1181  H     0.04965   0.88944   0.95490   0.00000  Uiso   1.00
H1182  H     0.20036   0.63945   0.71174   0.00000  Uiso   1.00
H1183  H     0.20036   0.86055   0.95492   0.00000  Uiso   1.00
H1184  H     0.29965   0.86056   0.71177   0.00000  Uiso   1.00
H1185  H     0.29965   0.63944   0.95490   0.00000  Uiso   1.00
H1186  H     0.09731   0.84658   0.76058   0.00000  Uiso   1.00
H1187  H     0.40158   0.65445   0.90535   0.00000  Uiso   1.00
H1188  H     0.09731   0.65343   0.90608   0.00000  Uiso   1.00
H1189  H     0.40158   0.84554   0.76132   0.00000  Uiso   1.00
H1190  H     0.40266   0.84654   0.90608   0.00000  Uiso   1.00
H1191  H     0.09845   0.65450   0.76132   0.00000  Uiso   1.00
H1192  H     0.15266   0.90346   0.76058   0.00000  Uiso   1.00
N1193  N     0.00000   0.75000   0.95240   0.00000  Uiso   1.00
N1194  N    -0.00000   0.75000   0.71427   0.00000  Uiso   1.00
N1195  N     0.25000   0.50000   0.95240   0.00000  Uiso   1.00
N1196  N     0.25000   0.50000   0.71427   0.00000  Uiso   1.00
O1197  O     0.04580   0.70419   0.87154   0.00000  Uiso   1.00
O1198  O     0.20419   0.54581   0.79513   0.00000  Uiso   1.00
O1199  O     0.20419   0.54581   0.87154   0.00000  Uiso   1.00
O1200  O     0.29580   0.95419   0.79513   0.00000  Uiso   1.00
O1201  O     0.20419   0.95419   0.79513   0.00000  Uiso   1.00
O1202  O     0.29580   0.54581   0.87154   0.00000  Uiso   1.00
O1203  O     0.29580   0.54581   0.79513   0.00000  Uiso   1.00
O1204  O     0.20419   0.95419   0.87154   0.00000  Uiso   1.00
O1205  O     0.01079   0.84906   0.74123   0.00000  Uiso   1.00
O1206  O     0.45307   0.85904   0.69625   0.00000  Uiso   1.00
O1207  O     0.01079   0.65094   0.92543   0.00000  Uiso   1.00
O1208  O     0.45419   0.79581   0.79513   0.00000  Uiso   1.00
O1209  O     0.45308   0.64096   0.97042   0.00000  Uiso   1.00
O1210  O     0.48919   0.65093   0.74123   0.00000  Uiso   1.00
O1211  O     0.04693   0.64097   0.69627   0.00000  Uiso   1.00
O1212  O     0.48919   0.84907   0.92544   0.00000  Uiso   1.00
O1213  O     0.04693   0.85903   0.97040   0.00000  Uiso   1.00
O1214  O     0.26079   0.59906   0.74124   0.00000  Uiso   1.00
O1215  O     0.20308   0.60904   0.69624   0.00000  Uiso   1.00
O1216  O     0.26079   0.90094   0.92543   0.00000  Uiso   1.00
O1217  O     0.20307   0.89096   0.97042   0.00000  Uiso   1.00
O1218  O     0.23919   0.90093   0.74123   0.00000  Uiso   1.00
O1219  O     0.45419   0.79581   0.87154   0.00000  Uiso   1.00
O1220  O     0.29693   0.89097   0.69627   0.00000  Uiso   1.00
O1221  O     0.23919   0.59907   0.92544   0.00000  Uiso   1.00
O1222  O     0.29693   0.60903   0.97039   0.00000  Uiso   1.00
O1223  O     0.04580   0.70419   0.79513   0.00000  Uiso   1.00
O1224  O     0.45419   0.70419   0.79513   0.00000  Uiso   1.00
O1225  O     0.04580   0.79581   0.87154   0.00000  Uiso   1.00
O1226  O     0.04580   0.79581   0.79513   0.00000  Uiso   1.00
O1227  O     0.45419   0.70419   0.87154   0.00000  Uiso   1.00
O1228  O     0.29580   0.95419   0.87154   0.00000  Uiso   1.00
Zn1229 Zn    0.00000   0.75000   0.88437   0.00000  Uiso   1.00
Zn1230 Zn   -0.00000   0.75000   0.78229   0.00000  Uiso   1.00
Zn1231 Zn    0.25000   0.50000   0.88437   0.00000  Uiso   1.00
Zn1232 Zn    0.25000   0.50000   0.78229   0.00000  Uiso   1.00
C1233  C     0.56012   0.69029   0.83338   0.00000  Uiso   1.00
C1234  C     0.99786   0.71021   0.97628   0.00000  Uiso   1.00
C1235  C     0.50214   0.71021   0.69039   0.00000  Uiso   1.00
C1236  C     0.50214   0.78979   0.97627   0.00000  Uiso   1.00
C1237  C     0.74786   0.53979   0.69039   0.00000  Uiso   1.00
C1238  C     0.74786   0.96021   0.97628   0.00000  Uiso   1.00
C1239  C     0.75214   0.96021   0.69039   0.00000  Uiso   1.00
C1240  C     0.75214   0.53979   0.97627   0.00000  Uiso   1.00
C1241  C     0.89077   0.64121   0.79235   0.00000  Uiso   1.00
C1242  C     0.60959   0.85848   0.87368   0.00000  Uiso   1.00
C1243  C     0.60921   0.85882   0.79235   0.00000  Uiso   1.00
C1244  C     0.93988   0.80971   0.83338   0.00000  Uiso   1.00
C1245  C     0.89043   0.64150   0.87368   0.00000  Uiso   1.00
C1246  C     0.60921   0.64118   0.87431   0.00000  Uiso   1.00
C1247  C     0.89043   0.85850   0.79299   0.00000  Uiso   1.00
C1248  C     0.89077   0.85880   0.87431   0.00000  Uiso   1.00
C1249  C     0.60959   0.64152   0.79299   0.00000  Uiso   1.00
C1250  C     0.64077   0.89120   0.79235   0.00000  Uiso   1.00
C1251  C     0.85959   0.60848   0.87368   0.00000  Uiso   1.00
C1252  C     0.85921   0.60882   0.79235   0.00000  Uiso   1.00
C1253  C     0.64043   0.89150   0.87368   0.00000  Uiso   1.00
C1254  C     0.85921   0.89119   0.87431   0.00000  Uiso   1.00
C1255  C     0.93988   0.69029   0.83329   0.00000  Uiso   1.00
C1256  C     0.64043   0.60850   0.79299   0.00000  Uiso   1.00
C1257  C     0.64077   0.60880   0.87431   0.00000  Uiso   1.00
C1258  C     0.85959   0.89152   0.79299   0.00000  Uiso   1.00
C1259  C     0.59353   0.84263   0.83309   0.00000  Uiso   1.00
C1260  C     0.90647   0.65737   0.83309   0.00000  Uiso   1.00
C1261  C     0.90647   0.84263   0.83358   0.00000  Uiso   1.00
C1262  C     0.59353   0.65737   0.83358   0.00000  Uiso   1.00
C1263  C     0.84353   0.59263   0.83309   0.00000  Uiso   1.00
C1264  C     0.65647   0.90737   0.83309   0.00000  Uiso   1.00
C1265  C     0.65647   0.59263   0.83358   0.00000  Uiso   1.00
C1266  C     0.56012   0.80971   0.83329   0.00000  Uiso   1.00
C1267  C     0.84353   0.90737   0.83358   0.00000  Uiso   1.00
C1268  C     0.98760   0.83346   0.71231   0.00000  Uiso   1.00
C1269  C     0.98761   0.66654   0.95435   0.00000  Uiso   1.00
C1270  C     0.51239   0.66654   0.71232   0.00000  Uiso   1.00
C1271  C     0.51239   0.83346   0.95435   0.00000  Uiso   1.00
C1272  C     0.73760   0.58346   0.71231   0.00000  Uiso   1.00
C1273  C     0.73761   0.91654   0.95435   0.00000  Uiso   1.00
C1274  C     0.76239   0.91654   0.71232   0.00000  Uiso   1.00
C1275  C     0.76239   0.58346   0.95434   0.00000  Uiso   1.00
C1276  C     0.81012   0.94029   0.83338   0.00000  Uiso   1.00
C1277  C     0.68988   0.55971   0.83338   0.00000  Uiso   1.00
C1278  C     0.68988   0.94029   0.83329   0.00000  Uiso   1.00
C1279  C     0.81012   0.55971   0.83329   0.00000  Uiso   1.00
C1280  C     0.99786   0.78979   0.69039   0.00000  Uiso   1.00
H1281  H     0.90265   0.65347   0.76058   0.00000  Uiso   1.00
H1282  H     0.84846   0.59550   0.90535   0.00000  Uiso   1.00
H1283  H     0.84731   0.59658   0.76058   0.00000  Uiso   1.00
H1284  H     0.65158   0.90446   0.90535   0.00000  Uiso   1.00
H1285  H     0.84732   0.90343   0.90608   0.00000  Uiso   1.00
H1286  H     0.65158   0.59554   0.76132   0.00000  Uiso   1.00
H1287  H     0.65266   0.59654   0.90608   0.00000  Uiso   1.00
H1288  H     0.84845   0.90450   0.76132   0.00000  Uiso   1.00
H1289  H     0.95036   0.88945   0.71174   0.00000  Uiso   1.00
H1290  H     0.95036   0.61055   0.95493   0.00000  Uiso   1.00
H1291  H     0.54965   0.61056   0.71177   0.00000  Uiso   1.00
H1292  H     0.59845   0.84550   0.90535   0.00000  Uiso   1.00
H1293  H     0.54965   0.88944   0.95490   0.00000  Uiso   1.00
H1294  H     0.70036   0.63945   0.71174   0.00000  Uiso   1.00
H1295  H     0.70036   0.86055   0.95492   0.00000  Uiso   1.00
H1296  H     0.79965   0.86056   0.71177   0.00000  Uiso   1.00
H1297  H     0.79965   0.63944   0.95490   0.00000  Uiso   1.00
H1298  H     0.59731   0.84658   0.76058   0.00000  Uiso   1.00
H1299  H     0.90158   0.65445   0.90535   0.00000  Uiso   1.00
H1300  H     0.59731   0.65343   0.90608   0.00000  Uiso   1.00
H1301  H     0.90158   0.84554   0.76132   0.00000  Uiso   1.00
H1302  H     0.90266   0.84654   0.90608   0.00000  Uiso   1.00
H1303  H     0.59845   0.65450   0.76132   0.00000  Uiso   1.00
H1304  H     0.65266   0.90346   0.76058   0.00000  Uiso   1.00
N1305  N     0.50000   0.75000   0.95240   0.00000  Uiso   1.00
N1306  N     0.50000   0.75000   0.71427   0.00000  Uiso   1.00
N1307  N     0.75000   0.50000   0.95240   0.00000  Uiso   1.00
N1308  N     0.75000   0.50000   0.71427   0.00000  Uiso   1.00
O1309  O     0.54580   0.70419   0.87154   0.00000  Uiso   1.00
O1310  O     0.70419   0.54581   0.79513   0.00000  Uiso   1.00
O1311  O     0.70419   0.54581   0.87154   0.00000  Uiso   1.00
O1312  O     0.79580   0.95419   0.79513   0.00000  Uiso   1.00
O1313  O     0.70419   0.95419   0.79513   0.00000  Uiso   1.00
O1314  O     0.79580   0.54581   0.87154   0.00000  Uiso   1.00
O1315  O     0.79580   0.54581   0.79513   0.00000  Uiso   1.00
O1316  O     0.70419   0.95419   0.87154   0.00000  Uiso   1.00
O1317  O     0.51079   0.84906   0.74123   0.00000  Uiso   1.00
O1318  O     0.95307   0.85904   0.69625   0.00000  Uiso   1.00
O1319  O     0.51079   0.65094   0.92543   0.00000  Uiso   1.00
O1320  O     0.95419   0.79581   0.79513   0.00000  Uiso   1.00
O1321  O     0.95308   0.64096   0.97042   0.00000  Uiso   1.00
O1322  O     0.98919   0.65093   0.74123   0.00000  Uiso   1.00
O1323  O     0.54693   0.64097   0.69627   0.00000  Uiso   1.00
O1324  O     0.98919   0.84907   0.92544   0.00000  Uiso   1.00
O1325  O     0.54693   0.85903   0.97040   0.00000  Uiso   1.00
O1326  O     0.76079   0.59906   0.74124   0.00000  Uiso   1.00
O1327  O     0.70308   0.60904   0.69624   0.00000  Uiso   1.00
O1328  O     0.76079   0.90094   0.92543   0.00000  Uiso   1.00
O1329  O     0.70307   0.89096   0.97042   0.00000  Uiso   1.00
O1330  O     0.73919   0.90093   0.74123   0.00000  Uiso   1.00
O1331  O     0.95419   0.79581   0.87154   0.00000  Uiso   1.00
O1332  O     0.79693   0.89097   0.69627   0.00000  Uiso   1.00
O1333  O     0.73919   0.59907   0.92544   0.00000  Uiso   1.00
O1334  O     0.79693   0.60903   0.97039   0.00000  Uiso   1.00
O1335  O     0.54580   0.70419   0.79513   0.00000  Uiso   1.00
O1336  O     0.95419   0.70419   0.79513   0.00000  Uiso   1.00
O1337  O     0.54580   0.79581   0.87154   0.00000  Uiso   1.00
O1338  O     0.54580   0.79581   0.79513   0.00000  Uiso   1.00
O1339  O     0.95419   0.70419   0.87154   0.00000  Uiso   1.00
O1340  O     0.79580   0.95419   0.87154   0.00000  Uiso   1.00
Zn1341 Zn    0.50000   0.75000   0.88437   0.00000  Uiso   1.00
Zn1342 Zn    0.50000   0.75000   0.78229   0.00000  Uiso   1.00
Zn1343 Zn    0.75000   0.50000   0.88437   0.00000  Uiso   1.00
Zn1344 Zn    0.75000   0.50000   0.78229   0.00000  Uiso   1.00
loop_
_geom_bond_atom_site_label_1
_geom_bond_atom_site_label_2
_geom_bond_distance
_geom_bond_site_symmetry_2
_ccdc_geom_bond_type
C1     O77     1.293   .     A
C1     O103    1.296   .     A
C1     C30     1.423   .     S
C2     C37     1.482   .     S
C2     C563    1.427   .     S
C2     N185    1.377   .     S
C3     C38     1.482   .     S
C3     C1010   1.427   1_454 S
C3     N74     1.377   .     S
C4     C39     1.482   .     S
C4     N73     1.377   .     A
C4     C608    1.427   1_455 S
C5     N76     1.377   .     A
C5     C40     1.482   .     S
C5     C904    1.427   1_554 S
C6     C41     1.482   .     S
C6     C455    1.427   .     S
C6     N299    1.377   .     S
C7     C42     1.482   .     S
C7     C902    1.427   1_554 S
C7     N300    1.377   .     S
C8     C43     1.482   .     S
C8     N75     1.377   .     A
C8     C453    1.427   .     S
C9     C20     1.370   .     A
C9     H49     1.083   .     S
C9     C28     1.398   .     A
C10    C27     1.395   .     A
C10    C21     1.368   .     A
C10    H60     1.080   .     S
C11    C18     1.370   .     A
C11    H66     1.083   .     S
C11    C27     1.398   .     A
C12    C29     1.423   .     S
C12    O99     1.293   .     A
C12    O88     1.296   .     A
C13    C28     1.395   .     A
C13    C19     1.368   .     A
C13    H67     1.080   .     S
C14    C30     1.398   .     A
C14    C25     1.370   .     A
C14    H68     1.083   .     S
C15    C29     1.395   .     A
C15    H69     1.080   .     S
C15    C26     1.368   .     A
C16    H70     1.083   .     S
C16    C29     1.398   .     A
C16    C22     1.370   .     A
C17    C30     1.395   .     A
C17    C24     1.368   .     A
C17    H71     1.080   .     S
C18    H72     1.083   .     S
C18    C32     1.398   .     A
C19    C31     1.395   .     A
C19    H50     1.080   .     S
C20    H51     1.083   .     S
C20    C31     1.398   .     A
C21    C32     1.395   .     A
C21    H52     1.080   .     S
C22    C35     1.398   .     A
C22    H53     1.083   .     S
C23    O104    1.293   .     A
C23    O107    1.296   .     A
C23    C28     1.423   .     S
C24    H54     1.080   .     S
C24    C33     1.395   .     A
C25    H55     1.083   .     S
C25    C33     1.398   .     A
C26    H56     1.080   .     S
C26    C35     1.395   .     A
C27    C34     1.423   .     S
C31    C47     1.423   .     S
C32    C46     1.423   .     S
C33    C45     1.423   .     S
C34    O106    1.293   .     A
C34    O105    1.296   .     A
C35    C44     1.423   .     S
C36    O86     1.398   .     S
C36    C48     1.482   .     S
C36    O197    1.218   .     S
C37    O89     1.398   .     S
C37    O199    1.218   .     S
C38    O91     1.398   .     S
C38    O202    1.218   1_455 S
C39    O93     1.398   .     S
C39    O204    1.218   1_455 S
C40    O95     1.398   .     S
C40    O94     1.218   .     D
C41    O96     1.218   .     D
C41    O97     1.398   .     S
C42    O98     1.218   .     D
C42    O100    1.398   .     S
C43    O101    1.218   .     D
C43    O102    1.398   .     S
C44    O108    1.293   .     A
C44    O80     1.296   .     A
C45    O78     1.296   .     A
C45    O79     1.293   .     A
C46    O81     1.293   .     A
C46    O84     1.296   .     A
C47    O82     1.296   .     A
C47    O83     1.293   .     A
C48    N186    1.377   .     A
C48    C1012   1.427   1_554 S
H57    O86     1.014   .     S
H58    O89     1.014   .     S
H59    O91     1.014   .     S
H61    O93     1.014   .     S
H62    O95     1.014   .     S
H63    O97     1.014   .     S
H64    O100    1.014   .     S
H65    O102    1.014   .     S
N73    Zn109   2.037   .     S
N73    C114    1.377   1_455 S
N74    C160    1.377   1_455 A
N74    Zn110   2.037   .     S
N75    Zn111   2.037   .     S
N75    C230    1.377   1_545 S
N76    Zn112   2.037   .     S
N76    C231    1.377   1_545 S
O77    Zn109   2.002   .     S
O78    Zn112   2.002   .     S
O79    Zn111   2.002   .     S
O80    Zn336   2.002   .     S
O81    Zn336   2.002   .     S
O82    Zn111   2.002   .     S
O83    Zn112   2.002   .     S
O84    Zn335   2.002   .     S
O85    C148    1.218   1_455 S
O87    C149    1.218   1_455 S
O88    Zn222   2.002   .     S
O90    C150    1.218   .     S
O92    C151    1.218   .     S
O99    Zn221   2.002   .     S
O103   Zn110   2.002   .     S
O104   Zn222   2.002   .     S
O105   Zn109   2.002   .     S
O106   Zn110   2.002   .     S
O107   Zn221   2.002   .     S
O108   Zn335   2.002   .     S
Zn109  O219    2.002   1_455 S
Zn109  O211    2.002   1_455 S
Zn110  O200    2.002   1_455 S
Zn110  O216    2.002   1_455 S
Zn111  O308    2.002   1_545 S
Zn111  O332    2.002   1_545 S
Zn112  O305    2.002   1_545 S
Zn112  O304    2.002   1_545 S
C113   O189    1.293   .     A
C113   O215    1.296   .     A
C113   C142    1.423   .     S
C114   C149    1.482   .     S
C114   C451    1.427   1_655 S
C114   N73     1.377   1_655 S
C115   C150    1.482   .     S
C115   C898    1.427   1_554 S
C115   N186    1.377   .     S
C116   C151    1.482   .     S
C116   N185    1.377   .     A
C116   C496    1.427   .     S
C117   N188    1.377   .     A
C117   C152    1.482   .     S
C117   C1016   1.427   1_554 S
C118   C153    1.482   .     S
C118   C567    1.427   .     S
C118   N411    1.377   .     S
C119   C154    1.482   .     S
C119   C1014   1.427   1_554 S
C119   N412    1.377   .     S
C120   C155    1.482   .     S
C120   N187    1.377   .     A
C120   C565    1.427   .     S
C121   C132    1.370   .     A
C121   H161    1.083   .     S
C121   C140    1.398   .     A
C122   C139    1.395   .     A
C122   C133    1.368   .     A
C122   H172    1.080   .     S
C123   C130    1.370   .     A
C123   H178    1.083   .     S
C123   C139    1.398   .     A
C124   C141    1.423   .     S
C124   O211    1.293   .     A
C124   O200    1.296   .     A
C125   C140    1.395   .     A
C125   C131    1.368   .     A
C125   H179    1.080   .     S
C126   C142    1.398   .     A
C126   C137    1.370   .     A
C126   H180    1.083   .     S
C127   C141    1.395   .     A
C127   H181    1.080   .     S
C127   C138    1.368   .     A
C128   H182    1.083   .     S
C128   C141    1.398   .     A
C128   C134    1.370   .     A
C129   C142    1.395   .     A
C129   C136    1.368   .     A
C129   H183    1.080   .     S
C130   H184    1.083   .     S
C130   C144    1.398   .     A
C131   C143    1.395   .     A
C131   H162    1.080   .     S
C132   H163    1.083   .     S
C132   C143    1.398   .     A
C133   C144    1.395   .     A
C133   H164    1.080   .     S
C134   C147    1.398   .     A
C134   H165    1.083   .     S
C135   O216    1.293   .     A
C135   O219    1.296   .     A
C135   C140    1.423   .     S
C136   H166    1.080   .     S
C136   C145    1.395   .     A
C137   H167    1.083   .     S
C137   C145    1.398   .     A
C138   H168    1.080   .     S
C138   C147    1.395   .     A
C139   C146    1.423   .     S
C143   C159    1.423   .     S
C144   C158    1.423   .     S
C145   C157    1.423   .     S
C146   O218    1.293   .     A
C146   O217    1.296   .     A
C147   C156    1.423   .     S
C148   O198    1.398   .     S
C148   C160    1.482   .     S
C148   O85     1.218   1_655 S
C149   O201    1.398   .     S
C149   O87     1.218   1_655 S
C150   O203    1.398   .     S
C151   O205    1.398   .     S
C152   O207    1.398   .     S
C152   O206    1.218   .     D
C153   O208    1.218   .     D
C153   O209    1.398   .     S
C154   O210    1.218   .     D
C154   O212    1.398   .     S
C155   O213    1.218   .     D
C155   O214    1.398   .     S
C156   O220    1.293   .     A
C156   O192    1.296   .     A
C157   O190    1.296   .     A
C157   O191    1.293   .     A
C158   O193    1.293   .     A
C158   O196    1.296   .     A
C159   O194    1.296   .     A
C159   O195    1.293   .     A
C160   N74     1.377   1_655 A
C160   C900    1.427   1_654 S
H169   O198    1.014   .     S
H170   O201    1.014   .     S
H171   O203    1.014   .     S
H173   O205    1.014   .     S
H174   O207    1.014   .     S
H175   O209    1.014   .     S
H176   O212    1.014   .     S
H177   O214    1.014   .     S
N185   Zn221   2.037   .     S
N186   Zn222   2.037   .     S
N187   Zn223   2.037   .     S
N187   C342    1.377   1_545 S
N188   Zn224   2.037   .     S
N188   C343    1.377   1_545 S
O189   Zn221   2.002   .     S
O190   Zn224   2.002   .     S
O191   Zn223   2.002   .     S
O192   Zn448   2.002   .     S
O193   Zn448   2.002   .     S
O194   Zn223   2.002   .     S
O195   Zn224   2.002   .     S
O196   Zn447   2.002   .     S
O200   Zn110   2.002   1_655 S
O202   C38     1.218   1_655 S
O204   C39     1.218   1_655 S
O211   Zn109   2.002   1_655 S
O215   Zn222   2.002   .     S
O216   Zn110   2.002   1_655 S
O217   Zn221   2.002   .     S
O218   Zn222   2.002   .     S
O219   Zn109   2.002   1_655 S
O220   Zn447   2.002   .     S
Zn223  O420    2.002   1_545 S
Zn223  O444    2.002   1_545 S
Zn224  O417    2.002   1_545 S
Zn224  O416    2.002   1_545 S
C225   O301    1.293   .     A
C225   O327    1.296   .     A
C225   C254    1.423   .     S
C226   C261    1.482   .     S
C226   C787    1.427   .     S
C226   N409    1.377   .     S
C227   C262    1.482   .     S
C227   C1234   1.427   1_454 S
C227   N298    1.377   .     S
C228   C263    1.482   .     S
C228   N297    1.377   .     A
C228   C832    1.427   1_455 S
C229   N300    1.377   .     A
C229   C264    1.482   .     S
C229   C1128   1.427   1_554 S
C230   C265    1.482   .     S
C230   C679    1.427   .     S
C230   N75     1.377   1_565 S
C231   C266    1.482   .     S
C231   C1126   1.427   1_554 S
C231   N76     1.377   1_565 S
C232   C267    1.482   .     S
C232   N299    1.377   .     A
C232   C677    1.427   .     S
C233   C244    1.370   .     A
C233   H273    1.083   .     S
C233   C252    1.398   .     A
C234   C251    1.395   .     A
C234   C245    1.368   .     A
C234   H284    1.080   .     S
C235   C242    1.370   .     A
C235   H290    1.083   .     S
C235   C251    1.398   .     A
C236   C253    1.423   .     S
C236   O323    1.293   .     A
C236   O312    1.296   .     A
C237   C252    1.395   .     A
C237   C243    1.368   .     A
C237   H291    1.080   .     S
C238   C254    1.398   .     A
C238   C249    1.370   .     A
C238   H292    1.083   .     S
C239   C253    1.395   .     A
C239   H293    1.080   .     S
C239   C250    1.368   .     A
C240   H294    1.083   .     S
C240   C253    1.398   .     A
C240   C246    1.370   .     A
C241   C254    1.395   .     A
C241   C248    1.368   .     A
C241   H295    1.080   .     S
C242   H296    1.083   .     S
C242   C256    1.398   .     A
C243   C255    1.395   .     A
C243   H274    1.080   .     S
C244   H275    1.083   .     S
C244   C255    1.398   .     A
C245   C256    1.395   .     A
C245   H276    1.080   .     S
C246   C259    1.398   .     A
C246   H277    1.083   .     S
C247   O328    1.293   .     A
C247   O331    1.296   .     A
C247   C252    1.423   .     S
C248   H278    1.080   .     S
C248   C257    1.395   .     A
C249   H279    1.083   .     S
C249   C257    1.398   .     A
C250   H280    1.080   .     S
C250   C259    1.395   .     A
C251   C258    1.423   .     S
C255   C271    1.423   .     S
C256   C270    1.423   .     S
C257   C269    1.423   .     S
C258   O330    1.293   .     A
C258   O329    1.296   .     A
C259   C268    1.423   .     S
C260   O310    1.398   .     S
C260   C272    1.482   .     S
C260   O421    1.218   .     S
C261   O313    1.398   .     S
C261   O423    1.218   .     S
C262   O315    1.398   .     S
C262   O426    1.218   1_455 S
C263   O317    1.398   .     S
C263   O428    1.218   1_455 S
C264   O319    1.398   .     S
C264   O318    1.218   .     D
C265   O320    1.218   .     D
C265   O321    1.398   .     S
C266   O322    1.218   .     D
C266   O324    1.398   .     S
C267   O325    1.218   .     D
C267   O326    1.398   .     S
C268   O332    1.293   .     A
C268   O304    1.296   .     A
C269   O302    1.296   .     A
C269   O303    1.293   .     A
C270   O305    1.293   .     A
C270   O308    1.296   .     A
C271   O306    1.296   .     A
C271   O307    1.293   .     A
C272   N410    1.377   .     A
C272   C1236   1.427   1_554 S
H281   O310    1.014   .     S
H282   O313    1.014   .     S
H283   O315    1.014   .     S
H285   O317    1.014   .     S
H286   O319    1.014   .     S
H287   O321    1.014   .     S
H288   O324    1.014   .     S
H289   O326    1.014   .     S
N297   Zn333   2.037   .     S
N297   C338    1.377   1_455 S
N298   C384    1.377   1_455 A
N298   Zn334   2.037   .     S
N299   Zn335   2.037   .     S
N300   Zn336   2.037   .     S
O301   Zn333   2.002   .     S
O302   Zn336   2.002   .     S
O303   Zn335   2.002   .     S
O304   Zn112   2.002   1_565 S
O305   Zn112   2.002   1_565 S
O306   Zn335   2.002   .     S
O307   Zn336   2.002   .     S
O308   Zn111   2.002   1_565 S
O309   C372    1.218   1_455 S
O311   C373    1.218   1_455 S
O312   Zn446   2.002   .     S
O314   C374    1.218   .     S
O316   C375    1.218   .     S
O323   Zn445   2.002   .     S
O327   Zn334   2.002   .     S
O328   Zn446   2.002   .     S
O329   Zn333   2.002   .     S
O330   Zn334   2.002   .     S
O331   Zn445   2.002   .     S
O332   Zn111   2.002   1_565 S
Zn333  O443    2.002   1_455 S
Zn333  O435    2.002   1_455 S
Zn334  O424    2.002   1_455 S
Zn334  O440    2.002   1_455 S
C337   O413    1.293   .     A
C337   O439    1.296   .     A
C337   C366    1.423   .     S
C338   C373    1.482   .     S
C338   C675    1.427   1_655 S
C338   N297    1.377   1_655 S
C339   C374    1.482   .     S
C339   C1122   1.427   1_554 S
C339   N410    1.377   .     S
C340   C375    1.482   .     S
C340   N409    1.377   .     A
C340   C720    1.427   .     S
C341   N412    1.377   .     A
C341   C376    1.482   .     S
C341   C1240   1.427   1_554 S
C342   C377    1.482   .     S
C342   C791    1.427   .     S
C342   N187    1.377   1_565 S
C343   C378    1.482   .     S
C343   C1238   1.427   1_554 S
C343   N188    1.377   1_565 S
C344   C379    1.482   .     S
C344   N411    1.377   .     A
C344   C789    1.427   .     S
C345   C356    1.370   .     A
C345   H385    1.083   .     S
C345   C364    1.398   .     A
C346   C363    1.395   .     A
C346   C357    1.368   .     A
C346   H396    1.080   .     S
C347   C354    1.370   .     A
C347   H402    1.083   .     S
C347   C363    1.398   .     A
C348   C365    1.423   .     S
C348   O435    1.293   .     A
C348   O424    1.296   .     A
C349   C364    1.395   .     A
C349   C355    1.368   .     A
C349   H403    1.080   .     S
C350   C366    1.398   .     A
C350   C361    1.370   .     A
C350   H404    1.083   .     S
C351   C365    1.395   .     A
C351   H405    1.080   .     S
C351   C362    1.368   .     A
C352   H406    1.083   .     S
C352   C365    1.398   .     A
C352   C358    1.370   .     A
C353   C366    1.395   .     A
C353   C360    1.368   .     A
C353   H407    1.080   .     S
C354   H408    1.083   .     S
C354   C368    1.398   .     A
C355   C367    1.395   .     A
C355   H386    1.080   .     S
C356   H387    1.083   .     S
C356   C367    1.398   .     A
C357   C368    1.395   .     A
C357   H388    1.080   .     S
C358   C371    1.398   .     A
C358   H389    1.083   .     S
C359   O440    1.293   .     A
C359   O443    1.296   .     A
C359   C364    1.423   .     S
C360   H390    1.080   .     S
C360   C369    1.395   .     A
C361   H391    1.083   .     S
C361   C369    1.398   .     A
C362   H392    1.080   .     S
C362   C371    1.395   .     A
C363   C370    1.423   .     S
C367   C383    1.423   .     S
C368   C382    1.423   .     S
C369   C381    1.423   .     S
C370   O442    1.293   .     A
C370   O441    1.296   .     A
C371   C380    1.423   .     S
C372   O422    1.398   .     S
C372   C384    1.482   .     S
C372   O309    1.218   1_655 S
C373   O425    1.398   .     S
C373   O311    1.218   1_655 S
C374   O427    1.398   .     S
C375   O429    1.398   .     S
C376   O431    1.398   .     S
C376   O430    1.218   .     D
C377   O432    1.218   .     D
C377   O433    1.398   .     S
C378   O434    1.218   .     D
C378   O436    1.398   .     S
C379   O437    1.218   .     D
C379   O438    1.398   .     S
C380   O444    1.293   .     A
C380   O416    1.296   .     A
C381   O414    1.296   .     A
C381   O415    1.293   .     A
C382   O417    1.293   .     A
C382   O420    1.296   .     A
C383   O418    1.296   .     A
C383   O419    1.293   .     A
C384   N298    1.377   1_655 A
C384   C1124   1.427   1_654 S
H393   O422    1.014   .     S
H394   O425    1.014   .     S
H395   O427    1.014   .     S
H397   O429    1.014   .     S
H398   O431    1.014   .     S
H399   O433    1.014   .     S
H400   O436    1.014   .     S
H401   O438    1.014   .     S
N409   Zn445   2.037   .     S
N410   Zn446   2.037   .     S
N411   Zn447   2.037   .     S
N412   Zn448   2.037   .     S
O413   Zn445   2.002   .     S
O414   Zn448   2.002   .     S
O415   Zn447   2.002   .     S
O416   Zn224   2.002   1_565 S
O417   Zn224   2.002   1_565 S
O418   Zn447   2.002   .     S
O419   Zn448   2.002   .     S
O420   Zn223   2.002   1_565 S
O424   Zn334   2.002   1_655 S
O426   C262    1.218   1_655 S
O428   C263    1.218   1_655 S
O435   Zn333   2.002   1_655 S
O439   Zn446   2.002   .     S
O440   Zn334   2.002   1_655 S
O441   Zn445   2.002   .     S
O442   Zn446   2.002   .     S
O443   Zn333   2.002   1_655 S
O444   Zn223   2.002   1_565 S
C449   O525    1.293   .     A
C449   O551    1.296   .     A
C449   C478    1.423   .     S
C450   C485    1.482   .     S
C450   C1011   1.427   .     S
C450   N633    1.377   .     S
C451   C486    1.482   .     S
C451   C114    1.427   1_455 S
C451   N522    1.377   .     S
C452   C487    1.482   .     S
C452   N521    1.377   .     A
C452   C1056   1.427   1_455 S
C453   N524    1.377   .     A
C453   C488    1.482   .     S
C454   C489    1.482   .     S
C454   C903    1.427   .     S
C454   N747    1.377   .     S
C455   C490    1.482   .     S
C455   N748    1.377   .     S
C456   C491    1.482   .     S
C456   N523    1.377   .     A
C456   C901    1.427   .     S
C457   C468    1.370   .     A
C457   H497    1.083   .     S
C457   C476    1.398   .     A
C458   C475    1.395   .     A
C458   C469    1.368   .     A
C458   H508    1.080   .     S
C459   C466    1.370   .     A
C459   H514    1.083   .     S
C459   C475    1.398   .     A
C460   C477    1.423   .     S
C460   O547    1.293   .     A
C460   O536    1.296   .     A
C461   C476    1.395   .     A
C461   C467    1.368   .     A
C461   H515    1.080   .     S
C462   C478    1.398   .     A
C462   C473    1.370   .     A
C462   H516    1.083   .     S
C463   C477    1.395   .     A
C463   H517    1.080   .     S
C463   C474    1.368   .     A
C464   H518    1.083   .     S
C464   C477    1.398   .     A
C464   C470    1.370   .     A
C465   C478    1.395   .     A
C465   C472    1.368   .     A
C465   H519    1.080   .     S
C466   H520    1.083   .     S
C466   C480    1.398   .     A
C467   C479    1.395   .     A
C467   H498    1.080   .     S
C468   H499    1.083   .     S
C468   C479    1.398   .     A
C469   C480    1.395   .     A
C469   H500    1.080   .     S
C470   C483    1.398   .     A
C470   H501    1.083   .     S
C471   O552    1.293   .     A
C471   O555    1.296   .     A
C471   C476    1.423   .     S
C472   H502    1.080   .     S
C472   C481    1.395   .     A
C473   H503    1.083   .     S
C473   C481    1.398   .     A
C474   H504    1.080   .     S
C474   C483    1.395   .     A
C475   C482    1.423   .     S
C479   C495    1.423   .     S
C480   C494    1.423   .     S
C481   C493    1.423   .     S
C482   O554    1.293   .     A
C482   O553    1.296   .     A
C483   C492    1.423   .     S
C484   O534    1.398   .     S
C484   C496    1.482   .     S
C484   O645    1.218   .     S
C485   O537    1.398   .     S
C485   O647    1.218   .     S
C486   O539    1.398   .     S
C486   O650    1.218   1_455 S
C487   O541    1.398   .     S
C487   O652    1.218   1_455 S
C488   O543    1.398   .     S
C488   O542    1.218   .     D
C489   O544    1.218   .     D
C489   O545    1.398   .     S
C490   O546    1.218   .     D
C490   O548    1.398   .     S
C491   O549    1.218   .     D
C491   O550    1.398   .     S
C492   O556    1.293   .     A
C492   O528    1.296   .     A
C493   O526    1.296   .     A
C493   O527    1.293   .     A
C494   O529    1.293   .     A
C494   O532    1.296   .     A
C495   O530    1.296   .     A
C495   O531    1.293   .     A
C496   N634    1.377   .     A
H505   O534    1.014   .     S
H506   O537    1.014   .     S
H507   O539    1.014   .     S
H509   O541    1.014   .     S
H510   O543    1.014   .     S
H511   O545    1.014   .     S
H512   O548    1.014   .     S
H513   O550    1.014   .     S
N521   Zn557   2.037   .     S
N521   C562    1.377   1_455 S
N522   C608    1.377   1_455 A
N522   Zn558   2.037   .     S
N523   Zn559   2.037   .     S
N523   C678    1.377   1_545 S
N524   Zn560   2.037   .     S
N524   C679    1.377   1_545 S
O525   Zn557   2.002   .     S
O526   Zn560   2.002   .     S
O527   Zn559   2.002   .     S
O528   Zn784   2.002   .     S
O529   Zn784   2.002   .     S
O530   Zn559   2.002   .     S
O531   Zn560   2.002   .     S
O532   Zn783   2.002   .     S
O533   C596    1.218   1_455 S
O535   C597    1.218   1_455 S
O536   Zn670   2.002   .     S
O538   C598    1.218   .     S
O540   C599    1.218   .     S
O547   Zn669   2.002   .     S
O551   Zn558   2.002   .     S
O552   Zn670   2.002   .     S
O553   Zn557   2.002   .     S
O554   Zn558   2.002   .     S
O555   Zn669   2.002   .     S
O556   Zn783   2.002   .     S
Zn557  O667    2.002   1_455 S
Zn557  O659    2.002   1_455 S
Zn558  O648    2.002   1_455 S
Zn558  O664    2.002   1_455 S
Zn559  O756    2.002   1_545 S
Zn559  O780    2.002   1_545 S
Zn560  O753    2.002   1_545 S
Zn560  O752    2.002   1_545 S
C561   O637    1.293   .     A
C561   O663    1.296   .     A
C561   C590    1.423   .     S
C562   C597    1.482   .     S
C562   C899    1.427   1_655 S
C562   N521    1.377   1_655 S
C563   C598    1.482   .     S
C563   N634    1.377   .     S
C564   C599    1.482   .     S
C564   N633    1.377   .     A
C564   C944    1.427   .     S
C565   N636    1.377   .     A
C565   C600    1.482   .     S
C566   C601    1.482   .     S
C566   C1015   1.427   .     S
C566   N859    1.377   .     S
C567   C602    1.482   .     S
C567   N860    1.377   .     S
C568   C603    1.482   .     S
C568   N635    1.377   .     A
C568   C1013   1.427   .     S
C569   C580    1.370   .     A
C569   H609    1.083   .     S
C569   C588    1.398   .     A
C570   C587    1.395   .     A
C570   C581    1.368   .     A
C570   H620    1.080   .     S
C571   C578    1.370   .     A
C571   H626    1.083   .     S
C571   C587    1.398   .     A
C572   C589    1.423   .     S
C572   O659    1.293   .     A
C572   O648    1.296   .     A
C573   C588    1.395   .     A
C573   C579    1.368   .     A
C573   H627    1.080   .     S
C574   C590    1.398   .     A
C574   C585    1.370   .     A
C574   H628    1.083   .     S
C575   C589    1.395   .     A
C575   H629    1.080   .     S
C575   C586    1.368   .     A
C576   H630    1.083   .     S
C576   C589    1.398   .     A
C576   C582    1.370   .     A
C577   C590    1.395   .     A
C577   C584    1.368   .     A
C577   H631    1.080   .     S
C578   H632    1.083   .     S
C578   C592    1.398   .     A
C579   C591    1.395   .     A
C579   H610    1.080   .     S
C580   H611    1.083   .     S
C580   C591    1.398   .     A
C581   C592    1.395   .     A
C581   H612    1.080   .     S
C582   C595    1.398   .     A
C582   H613    1.083   .     S
C583   O664    1.293   .     A
C583   O667    1.296   .     A
C583   C588    1.423   .     S
C584   H614    1.080   .     S
C584   C593    1.395   .     A
C585   H615    1.083   .     S
C585   C593    1.398   .     A
C586   H616    1.080   .     S
C586   C595    1.395   .     A
C587   C594    1.423   .     S
C591   C607    1.423   .     S
C592   C606    1.423   .     S
C593   C605    1.423   .     S
C594   O666    1.293   .     A
C594   O665    1.296   .     A
C595   C604    1.423   .     S
C596   O646    1.398   .     S
C596   C608    1.482   .     S
C596   O533    1.218   1_655 S
C597   O649    1.398   .     S
C597   O535    1.218   1_655 S
C598   O651    1.398   .     S
C599   O653    1.398   .     S
C600   O655    1.398   .     S
C600   O654    1.218   .     D
C601   O656    1.218   .     D
C601   O657    1.398   .     S
C602   O658    1.218   .     D
C602   O660    1.398   .     S
C603   O661    1.218   .     D
C603   O662    1.398   .     S
C604   O668    1.293   .     A
C604   O640    1.296   .     A
C605   O638    1.296   .     A
C605   O639    1.293   .     A
C606   O641    1.293   .     A
C606   O644    1.296   .     A
C607   O642    1.296   .     A
C607   O643    1.293   .     A
C608   N522    1.377   1_655 A
C608   C4      1.427   1_655 S
H617   O646    1.014   .     S
H618   O649    1.014   .     S
H619   O651    1.014   .     S
H621   O653    1.014   .     S
H622   O655    1.014   .     S
H623   O657    1.014   .     S
H624   O660    1.014   .     S
H625   O662    1.014   .     S
N633   Zn669   2.037   .     S
N634   Zn670   2.037   .     S
N635   Zn671   2.037   .     S
N635   C790    1.377   1_545 S
N636   Zn672   2.037   .     S
N636   C791    1.377   1_545 S
O637   Zn669   2.002   .     S
O638   Zn672   2.002   .     S
O639   Zn671   2.002   .     S
O640   Zn896   2.002   .     S
O641   Zn896   2.002   .     S
O642   Zn671   2.002   .     S
O643   Zn672   2.002   .     S
O644   Zn895   2.002   .     S
O648   Zn558   2.002   1_655 S
O650   C486    1.218   1_655 S
O652   C487    1.218   1_655 S
O659   Zn557   2.002   1_655 S
O663   Zn670   2.002   .     S
O664   Zn558   2.002   1_655 S
O665   Zn669   2.002   .     S
O666   Zn670   2.002   .     S
O667   Zn557   2.002   1_655 S
O668   Zn895   2.002   .     S
Zn671  O868    2.002   1_545 S
Zn671  O892    2.002   1_545 S
Zn672  O865    2.002   1_545 S
Zn672  O864    2.002   1_545 S
C673   O749    1.293   .     A
C673   O775    1.296   .     A
C673   C702    1.423   .     S
C674   C709    1.482   .     S
C674   C1235   1.427   .     S
C674   N857    1.377   .     S
C675   C710    1.482   .     S
C675   C338    1.427   1_455 S
C675   N746    1.377   .     S
C676   C711    1.482   .     S
C676   N745    1.377   .     A
C676   C1280   1.427   1_455 S
C677   N748    1.377   .     A
C677   C712    1.482   .     S
C678   C713    1.482   .     S
C678   C1127   1.427   .     S
C678   N523    1.377   1_565 S
C679   C714    1.482   .     S
C679   N524    1.377   1_565 S
C680   C715    1.482   .     S
C680   N747    1.377   .     A
C680   C1125   1.427   .     S
C681   C692    1.370   .     A
C681   H721    1.083   .     S
C681   C700    1.398   .     A
C682   C699    1.395   .     A
C682   C693    1.368   .     A
C682   H732    1.080   .     S
C683   C690    1.370   .     A
C683   H738    1.083   .     S
C683   C699    1.398   .     A
C684   C701    1.423   .     S
C684   O771    1.293   .     A
C684   O760    1.296   .     A
C685   C700    1.395   .     A
C685   C691    1.368   .     A
C685   H739    1.080   .     S
C686   C702    1.398   .     A
C686   C697    1.370   .     A
C686   H740    1.083   .     S
C687   C701    1.395   .     A
C687   H741    1.080   .     S
C687   C698    1.368   .     A
C688   H742    1.083   .     S
C688   C701    1.398   .     A
C688   C694    1.370   .     A
C689   C702    1.395   .     A
C689   C696    1.368   .     A
C689   H743    1.080   .     S
C690   H744    1.083   .     S
C690   C704    1.398   .     A
C691   C703    1.395   .     A
C691   H722    1.080   .     S
C692   H723    1.083   .     S
C692   C703    1.398   .     A
C693   C704    1.395   .     A
C693   H724    1.080   .     S
C694   C707    1.398   .     A
C694   H725    1.083   .     S
C695   O776    1.293   .     A
C695   O779    1.296   .     A
C695   C700    1.423   .     S
C696   H726    1.080   .     S
C696   C705    1.395   .     A
C697   H727    1.083   .     S
C697   C705    1.398   .     A
C698   H728    1.080   .     S
C698   C707    1.395   .     A
C699   C706    1.423   .     S
C703   C719    1.423   .     S
C704   C718    1.423   .     S
C705   C717    1.423   .     S
C706   O778    1.293   .     A
C706   O777    1.296   .     A
C707   C716    1.423   .     S
C708   O758    1.398   .     S
C708   C720    1.482   .     S
C708   O869    1.218   .     S
C709   O761    1.398   .     S
C709   O871    1.218   .     S
C710   O763    1.398   .     S
C710   O874    1.218   1_455 S
C711   O765    1.398   .     S
C711   O876    1.218   1_455 S
C712   O767    1.398   .     S
C712   O766    1.218   .     D
C713   O768    1.218   .     D
C713   O769    1.398   .     S
C714   O770    1.218   .     D
C714   O772    1.398   .     S
C715   O773    1.218   .     D
C715   O774    1.398   .     S
C716   O780    1.293   .     A
C716   O752    1.296   .     A
C717   O750    1.296   .     A
C717   O751    1.293   .     A
C718   O753    1.293   .     A
C718   O756    1.296   .     A
C719   O754    1.296   .     A
C719   O755    1.293   .     A
C720   N858    1.377   .     A
H729   O758    1.014   .     S
H730   O761    1.014   .     S
H731   O763    1.014   .     S
H733   O765    1.014   .     S
H734   O767    1.014   .     S
H735   O769    1.014   .     S
H736   O772    1.014   .     S
H737   O774    1.014   .     S
N745   Zn781   2.037   .     S
N745   C786    1.377   1_455 S
N746   C832    1.377   1_455 A
N746   Zn782   2.037   .     S
N747   Zn783   2.037   .     S
N748   Zn784   2.037   .     S
O749   Zn781   2.002   .     S
O750   Zn784   2.002   .     S
O751   Zn783   2.002   .     S
O752   Zn560   2.002   1_565 S
O753   Zn560   2.002   1_565 S
O754   Zn783   2.002   .     S
O755   Zn784   2.002   .     S
O756   Zn559   2.002   1_565 S
O757   C820    1.218   1_455 S
O759   C821    1.218   1_455 S
O760   Zn894   2.002   .     S
O762   C822    1.218   .     S
O764   C823    1.218   .     S
O771   Zn893   2.002   .     S
O775   Zn782   2.002   .     S
O776   Zn894   2.002   .     S
O777   Zn781   2.002   .     S
O778   Zn782   2.002   .     S
O779   Zn893   2.002   .     S
O780   Zn559   2.002   1_565 S
Zn781  O891    2.002   1_455 S
Zn781  O883    2.002   1_455 S
Zn782  O872    2.002   1_455 S
Zn782  O888    2.002   1_455 S
C785   O861    1.293   .     A
C785   O887    1.296   .     A
C785   C814    1.423   .     S
C786   C821    1.482   .     S
C786   C1123   1.427   1_655 S
C786   N745    1.377   1_655 S
C787   C822    1.482   .     S
C787   N858    1.377   .     S
C788   C823    1.482   .     S
C788   N857    1.377   .     A
C788   C1168   1.427   .     S
C789   N860    1.377   .     A
C789   C824    1.482   .     S
C790   C825    1.482   .     S
C790   C1239   1.427   .     S
C790   N635    1.377   1_565 S
C791   C826    1.482   .     S
C791   N636    1.377   1_565 S
C792   C827    1.482   .     S
C792   N859    1.377   .     A
C792   C1237   1.427   .     S
C793   C804    1.370   .     A
C793   H833    1.083   .     S
C793   C812    1.398   .     A
C794   C811    1.395   .     A
C794   C805    1.368   .     A
C794   H844    1.080   .     S
C795   C802    1.370   .     A
C795   H850    1.083   .     S
C795   C811    1.398   .     A
C796   C813    1.423   .     S
C796   O883    1.293   .     A
C796   O872    1.296   .     A
C797   C812    1.395   .     A
C797   C803    1.368   .     A
C797   H851    1.080   .     S
C798   C814    1.398   .     A
C798   C809    1.370   .     A
C798   H852    1.083   .     S
C799   C813    1.395   .     A
C799   H853    1.080   .     S
C799   C810    1.368   .     A
C800   H854    1.083   .     S
C800   C813    1.398   .     A
C800   C806    1.370   .     A
C801   C814    1.395   .     A
C801   C808    1.368   .     A
C801   H855    1.080   .     S
C802   H856    1.083   .     S
C802   C816    1.398   .     A
C803   C815    1.395   .     A
C803   H834    1.080   .     S
C804   H835    1.083   .     S
C804   C815    1.398   .     A
C805   C816    1.395   .     A
C805   H836    1.080   .     S
C806   C819    1.398   .     A
C806   H837    1.083   .     S
C807   O888    1.293   .     A
C807   O891    1.296   .     A
C807   C812    1.423   .     S
C808   H838    1.080   .     S
C808   C817    1.395   .     A
C809   H839    1.083   .     S
C809   C817    1.398   .     A
C810   H840    1.080   .     S
C810   C819    1.395   .     A
C811   C818    1.423   .     S
C815   C831    1.423   .     S
C816   C830    1.423   .     S
C817   C829    1.423   .     S
C818   O890    1.293   .     A
C818   O889    1.296   .     A
C819   C828    1.423   .     S
C820   O870    1.398   .     S
C820   C832    1.482   .     S
C820   O757    1.218   1_655 S
C821   O873    1.398   .     S
C821   O759    1.218   1_655 S
C822   O875    1.398   .     S
C823   O877    1.398   .     S
C824   O879    1.398   .     S
C824   O878    1.218   .     D
C825   O880    1.218   .     D
C825   O881    1.398   .     S
C826   O882    1.218   .     D
C826   O884    1.398   .     S
C827   O885    1.218   .     D
C827   O886    1.398   .     S
C828   O892    1.293   .     A
C828   O864    1.296   .     A
C829   O862    1.296   .     A
C829   O863    1.293   .     A
C830   O865    1.293   .     A
C830   O868    1.296   .     A
C831   O866    1.296   .     A
C831   O867    1.293   .     A
C832   N746    1.377   1_655 A
C832   C228    1.427   1_655 S
H841   O870    1.014   .     S
H842   O873    1.014   .     S
H843   O875    1.014   .     S
H845   O877    1.014   .     S
H846   O879    1.014   .     S
H847   O881    1.014   .     S
H848   O884    1.014   .     S
H849   O886    1.014   .     S
N857   Zn893   2.037   .     S
N858   Zn894   2.037   .     S
N859   Zn895   2.037   .     S
N860   Zn896   2.037   .     S
O861   Zn893   2.002   .     S
O862   Zn896   2.002   .     S
O863   Zn895   2.002   .     S
O864   Zn672   2.002   1_565 S
O865   Zn672   2.002   1_565 S
O866   Zn895   2.002   .     S
O867   Zn896   2.002   .     S
O868   Zn671   2.002   1_565 S
O872   Zn782   2.002   1_655 S
O874   C710    1.218   1_655 S
O876   C711    1.218   1_655 S
O883   Zn781   2.002   1_655 S
O887   Zn894   2.002   .     S
O888   Zn782   2.002   1_655 S
O889   Zn893   2.002   .     S
O890   Zn894   2.002   .     S
O891   Zn781   2.002   1_655 S
O892   Zn671   2.002   1_565 S
C897   O973    1.293   .     A
C897   O999    1.296   .     A
C897   C926    1.423   .     S
C898   C933    1.482   .     S
C898   C115    1.427   1_556 S
C898   N1081   1.377   .     S
C899   C934    1.482   .     S
C899   C562    1.427   1_455 S
C899   N970    1.377   .     S
C900   C935    1.482   .     S
C900   N969    1.377   .     A
C900   C160    1.427   1_456 S
C901   N972    1.377   .     A
C901   C936    1.482   .     S
C902   C937    1.482   .     S
C902   C7      1.427   1_556 S
C902   N1195   1.377   .     S
C903   C938    1.482   .     S
C903   N1196   1.377   .     S
C904   C939    1.482   .     S
C904   N971    1.377   .     A
C904   C5      1.427   1_556 S
C905   C916    1.370   .     A
C905   H945    1.083   .     S
C905   C924    1.398   .     A
C906   C923    1.395   .     A
C906   C917    1.368   .     A
C906   H956    1.080   .     S
C907   C914    1.370   .     A
C907   H962    1.083   .     S
C907   C923    1.398   .     A
C908   C925    1.423   .     S
C908   O995    1.293   .     A
C908   O984    1.296   .     A
C909   C924    1.395   .     A
C909   C915    1.368   .     A
C909   H963    1.080   .     S
C910   C926    1.398   .     A
C910   C921    1.370   .     A
C910   H964    1.083   .     S
C911   C925    1.395   .     A
C911   H965    1.080   .     S
C911   C922    1.368   .     A
C912   H966    1.083   .     S
C912   C925    1.398   .     A
C912   C918    1.370   .     A
C913   C926    1.395   .     A
C913   C920    1.368   .     A
C913   H967    1.080   .     S
C914   H968    1.083   .     S
C914   C928    1.398   .     A
C915   C927    1.395   .     A
C915   H946    1.080   .     S
C916   H947    1.083   .     S
C916   C927    1.398   .     A
C917   C928    1.395   .     A
C917   H948    1.080   .     S
C918   C931    1.398   .     A
C918   H949    1.083   .     S
C919   O1000   1.293   .     A
C919   O1003   1.296   .     A
C919   C924    1.423   .     S
C920   H950    1.080   .     S
C920   C929    1.395   .     A
C921   H951    1.083   .     S
C921   C929    1.398   .     A
C922   H952    1.080   .     S
C922   C931    1.395   .     A
C923   C930    1.423   .     S
C927   C943    1.423   .     S
C928   C942    1.423   .     S
C929   C941    1.423   .     S
C930   O1002   1.293   .     A
C930   O1001   1.296   .     A
C931   C940    1.423   .     S
C932   O982    1.398   .     S
C932   C944    1.482   .     S
C932   O1093   1.218   .     S
C933   O985    1.398   .     S
C933   O1095   1.218   .     S
C934   O987    1.398   .     S
C934   O1098   1.218   1_455 S
C935   O989    1.398   .     S
C935   O1100   1.218   1_455 S
C936   O991    1.398   .     S
C936   O990    1.218   .     D
C937   O992    1.218   .     D
C937   O993    1.398   .     S
C938   O994    1.218   .     D
C938   O996    1.398   .     S
C939   O997    1.218   .     D
C939   O998    1.398   .     S
C940   O1004   1.293   .     A
C940   O976    1.296   .     A
C941   O974    1.296   .     A
C941   O975    1.293   .     A
C942   O977    1.293   .     A
C942   O980    1.296   .     A
C943   O978    1.296   .     A
C943   O979    1.293   .     A
C944   N1082   1.377   .     A
H953   O982    1.014   .     S
H954   O985    1.014   .     S
H955   O987    1.014   .     S
H957   O989    1.014   .     S
H958   O991    1.014   .     S
H959   O993    1.014   .     S
H960   O996    1.014   .     S
H961   O998    1.014   .     S
N969   Zn1005  2.037   .     S
N969   C1010   1.377   1_455 S
N970   C1056   1.377   1_455 A
N970   Zn1006  2.037   .     S
N971   Zn1007  2.037   .     S
N971   C1126   1.377   1_545 S
N972   Zn1008  2.037   .     S
N972   C1127   1.377   1_545 S
O973   Zn1005  2.002   .     S
O974   Zn1008  2.002   .     S
O975   Zn1007  2.002   .     S
O976   Zn1232  2.002   .     S
O977   Zn1232  2.002   .     S
O978   Zn1007  2.002   .     S
O979   Zn1008  2.002   .     S
O980   Zn1231  2.002   .     S
O981   C1044   1.218   1_455 S
O983   C1045   1.218   1_455 S
O984   Zn1118  2.002   .     S
O986   C1046   1.218   .     S
O988   C1047   1.218   .     S
O995   Zn1117  2.002   .     S
O999   Zn1006  2.002   .     S
O1000  Zn1118  2.002   .     S
O1001  Zn1005  2.002   .     S
O1002  Zn1006  2.002   .     S
O1003  Zn1117  2.002   .     S
O1004  Zn1231  2.002   .     S
Zn1005 O1115   2.002   1_455 S
Zn1005 O1107   2.002   1_455 S
Zn1006 O1096   2.002   1_455 S
Zn1006 O1112   2.002   1_455 S
Zn1007 O1204   2.002   1_545 S
Zn1007 O1228   2.002   1_545 S
Zn1008 O1201   2.002   1_545 S
Zn1008 O1200   2.002   1_545 S
C1009  O1085   1.293   .     A
C1009  O1111   1.296   .     A
C1009  C1038   1.423   .     S
C1010  C1045   1.482   .     S
C1010  C3      1.427   1_656 S
C1010  N969    1.377   1_655 S
C1011  C1046   1.482   .     S
C1011  N1082   1.377   .     S
C1012  C1047   1.482   .     S
C1012  N1081   1.377   .     A
C1012  C48     1.427   1_556 S
C1013  N1084   1.377   .     A
C1013  C1048   1.482   .     S
C1014  C1049   1.482   .     S
C1014  C119    1.427   1_556 S
C1014  N1307   1.377   .     S
C1015  C1050   1.482   .     S
C1015  N1308   1.377   .     S
C1016  C1051   1.482   .     S
C1016  N1083   1.377   .     A
C1016  C117    1.427   1_556 S
C1017  C1028   1.370   .     A
C1017  H1057   1.083   .     S
C1017  C1036   1.398   .     A
C1018  C1035   1.395   .     A
C1018  C1029   1.368   .     A
C1018  H1068   1.080   .     S
C1019  C1026   1.370   .     A
C1019  H1074   1.083   .     S
C1019  C1035   1.398   .     A
C1020  C1037   1.423   .     S
C1020  O1107   1.293   .     A
C1020  O1096   1.296   .     A
C1021  C1036   1.395   .     A
C1021  C1027   1.368   .     A
C1021  H1075   1.080   .     S
C1022  C1038   1.398   .     A
C1022  C1033   1.370   .     A
C1022  H1076   1.083   .     S
C1023  C1037   1.395   .     A
C1023  H1077   1.080   .     S
C1023  C1034   1.368   .     A
C1024  H1078   1.083   .     S
C1024  C1037   1.398   .     A
C1024  C1030   1.370   .     A
C1025  C1038   1.395   .     A
C1025  C1032   1.368   .     A
C1025  H1079   1.080   .     S
C1026  H1080   1.083   .     S
C1026  C1040   1.398   .     A
C1027  C1039   1.395   .     A
C1027  H1058   1.080   .     S
C1028  H1059   1.083   .     S
C1028  C1039   1.398   .     A
C1029  C1040   1.395   .     A
C1029  H1060   1.080   .     S
C1030  C1043   1.398   .     A
C1030  H1061   1.083   .     S
C1031  O1112   1.293   .     A
C1031  O1115   1.296   .     A
C1031  C1036   1.423   .     S
C1032  H1062   1.080   .     S
C1032  C1041   1.395   .     A
C1033  H1063   1.083   .     S
C1033  C1041   1.398   .     A
C1034  H1064   1.080   .     S
C1034  C1043   1.395   .     A
C1035  C1042   1.423   .     S
C1039  C1055   1.423   .     S
C1040  C1054   1.423   .     S
C1041  C1053   1.423   .     S
C1042  O1114   1.293   .     A
C1042  O1113   1.296   .     A
C1043  C1052   1.423   .     S
C1044  O1094   1.398   .     S
C1044  C1056   1.482   .     S
C1044  O981    1.218   1_655 S
C1045  O1097   1.398   .     S
C1045  O983    1.218   1_655 S
C1046  O1099   1.398   .     S
C1047  O1101   1.398   .     S
C1048  O1103   1.398   .     S
C1048  O1102   1.218   .     D
C1049  O1104   1.218   .     D
C1049  O1105   1.398   .     S
C1050  O1106   1.218   .     D
C1050  O1108   1.398   .     S
C1051  O1109   1.218   .     D
C1051  O1110   1.398   .     S
C1052  O1116   1.293   .     A
C1052  O1088   1.296   .     A
C1053  O1086   1.296   .     A
C1053  O1087   1.293   .     A
C1054  O1089   1.293   .     A
C1054  O1092   1.296   .     A
C1055  O1090   1.296   .     A
C1055  O1091   1.293   .     A
C1056  N970    1.377   1_655 A
C1056  C452    1.427   1_655 S
H1065  O1094   1.014   .     S
H1066  O1097   1.014   .     S
H1067  O1099   1.014   .     S
H1069  O1101   1.014   .     S
H1070  O1103   1.014   .     S
H1071  O1105   1.014   .     S
H1072  O1108   1.014   .     S
H1073  O1110   1.014   .     S
N1081  Zn1117  2.037   .     S
N1082  Zn1118  2.037   .     S
N1083  Zn1119  2.037   .     S
N1083  C1238   1.377   1_545 S
N1084  Zn1120  2.037   .     S
N1084  C1239   1.377   1_545 S
O1085  Zn1117  2.002   .     S
O1086  Zn1120  2.002   .     S
O1087  Zn1119  2.002   .     S
O1088  Zn1344  2.002   .     S
O1089  Zn1344  2.002   .     S
O1090  Zn1119  2.002   .     S
O1091  Zn1120  2.002   .     S
O1092  Zn1343  2.002   .     S
O1096  Zn1006  2.002   1_655 S
O1098  C934    1.218   1_655 S
O1100  C935    1.218   1_655 S
O1107  Zn1005  2.002   1_655 S
O1111  Zn1118  2.002   .     S
O1112  Zn1006  2.002   1_655 S
O1113  Zn1117  2.002   .     S
O1114  Zn1118  2.002   .     S
O1115  Zn1005  2.002   1_655 S
O1116  Zn1343  2.002   .     S
Zn1119 O1316   2.002   1_545 S
Zn1119 O1340   2.002   1_545 S
Zn1120 O1313   2.002   1_545 S
Zn1120 O1312   2.002   1_545 S
C1121  O1197   1.293   .     A
C1121  O1223   1.296   .     A
C1121  C1150   1.423   .     S
C1122  C1157   1.482   .     S
C1122  C339    1.427   1_556 S
C1122  N1305   1.377   .     S
C1123  C1158   1.482   .     S
C1123  C786    1.427   1_455 S
C1123  N1194   1.377   .     S
C1124  C1159   1.482   .     S
C1124  N1193   1.377   .     A
C1124  C384    1.427   1_456 S
C1125  N1196   1.377   .     A
C1125  C1160   1.482   .     S
C1126  C1161   1.482   .     S
C1126  C231    1.427   1_556 S
C1126  N971    1.377   1_565 S
C1127  C1162   1.482   .     S
C1127  N972    1.377   1_565 S
C1128  C1163   1.482   .     S
C1128  N1195   1.377   .     A
C1128  C229    1.427   1_556 S
C1129  C1140   1.370   .     A
C1129  H1169   1.083   .     S
C1129  C1148   1.398   .     A
C1130  C1147   1.395   .     A
C1130  C1141   1.368   .     A
C1130  H1180   1.080   .     S
C1131  C1138   1.370   .     A
C1131  H1186   1.083   .     S
C1131  C1147   1.398   .     A
C1132  C1149   1.423   .     S
C1132  O1219   1.293   .     A
C1132  O1208   1.296   .     A
C1133  C1148   1.395   .     A
C1133  C1139   1.368   .     A
C1133  H1187   1.080   .     S
C1134  C1150   1.398   .     A
C1134  C1145   1.370   .     A
C1134  H1188   1.083   .     S
C1135  C1149   1.395   .     A
C1135  H1189   1.080   .     S
C1135  C1146   1.368   .     A
C1136  H1190   1.083   .     S
C1136  C1149   1.398   .     A
C1136  C1142   1.370   .     A
C1137  C1150   1.395   .     A
C1137  C1144   1.368   .     A
C1137  H1191   1.080   .     S
C1138  H1192   1.083   .     S
C1138  C1152   1.398   .     A
C1139  C1151   1.395   .     A
C1139  H1170   1.080   .     S
C1140  H1171   1.083   .     S
C1140  C1151   1.398   .     A
C1141  C1152   1.395   .     A
C1141  H1172   1.080   .     S
C1142  C1155   1.398   .     A
C1142  H1173   1.083   .     S
C1143  O1224   1.293   .     A
C1143  O1227   1.296   .     A
C1143  C1148   1.423   .     S
C1144  H1174   1.080   .     S
C1144  C1153   1.395   .     A
C1145  H1175   1.083   .     S
C1145  C1153   1.398   .     A
C1146  H1176   1.080   .     S
C1146  C1155   1.395   .     A
C1147  C1154   1.423   .     S
C1151  C1167   1.423   .     S
C1152  C1166   1.423   .     S
C1153  C1165   1.423   .     S
C1154  O1226   1.293   .     A
C1154  O1225   1.296   .     A
C1155  C1164   1.423   .     S
C1156  O1206   1.398   .     S
C1156  C1168   1.482   .     S
C1156  O1317   1.218   .     S
C1157  O1209   1.398   .     S
C1157  O1319   1.218   .     S
C1158  O1211   1.398   .     S
C1158  O1322   1.218   1_455 S
C1159  O1213   1.398   .     S
C1159  O1324   1.218   1_455 S
C1160  O1215   1.398   .     S
C1160  O1214   1.218   .     D
C1161  O1216   1.218   .     D
C1161  O1217   1.398   .     S
C1162  O1218   1.218   .     D
C1162  O1220   1.398   .     S
C1163  O1221   1.218   .     D
C1163  O1222   1.398   .     S
C1164  O1228   1.293   .     A
C1164  O1200   1.296   .     A
C1165  O1198   1.296   .     A
C1165  O1199   1.293   .     A
C1166  O1201   1.293   .     A
C1166  O1204   1.296   .     A
C1167  O1202   1.296   .     A
C1167  O1203   1.293   .     A
C1168  N1306   1.377   .     A
H1177  O1206   1.014   .     S
H1178  O1209   1.014   .     S
H1179  O1211   1.014   .     S
H1181  O1213   1.014   .     S
H1182  O1215   1.014   .     S
H1183  O1217   1.014   .     S
H1184  O1220   1.014   .     S
H1185  O1222   1.014   .     S
N1193  Zn1229  2.037   .     S
N1193  C1234   1.377   1_455 S
N1194  C1280   1.377   1_455 A
N1194  Zn1230  2.037   .     S
N1195  Zn1231  2.037   .     S
N1196  Zn1232  2.037   .     S
O1197  Zn1229  2.002   .     S
O1198  Zn1232  2.002   .     S
O1199  Zn1231  2.002   .     S
O1200  Zn1008  2.002   1_565 S
O1201  Zn1008  2.002   1_565 S
O1202  Zn1231  2.002   .     S
O1203  Zn1232  2.002   .     S
O1204  Zn1007  2.002   1_565 S
O1205  C1268   1.218   1_455 S
O1207  C1269   1.218   1_455 S
O1208  Zn1342  2.002   .     S
O1210  C1270   1.218   .     S
O1212  C1271   1.218   .     S
O1219  Zn1341  2.002   .     S
O1223  Zn1230  2.002   .     S
O1224  Zn1342  2.002   .     S
O1225  Zn1229  2.002   .     S
O1226  Zn1230  2.002   .     S
O1227  Zn1341  2.002   .     S
O1228  Zn1007  2.002   1_565 S
Zn1229 O1339   2.002   1_455 S
Zn1229 O1331   2.002   1_455 S
Zn1230 O1320   2.002   1_455 S
Zn1230 O1336   2.002   1_455 S
C1233  O1309   1.293   .     A
C1233  O1335   1.296   .     A
C1233  C1262   1.423   .     S
C1234  C1269   1.482   .     S
C1234  C227    1.427   1_656 S
C1234  N1193   1.377   1_655 S
C1235  C1270   1.482   .     S
C1235  N1306   1.377   .     S
C1236  C1271   1.482   .     S
C1236  N1305   1.377   .     A
C1236  C272    1.427   1_556 S
C1237  N1308   1.377   .     A
C1237  C1272   1.482   .     S
C1238  C1273   1.482   .     S
C1238  C343    1.427   1_556 S
C1238  N1083   1.377   1_565 S
C1239  C1274   1.482   .     S
C1239  N1084   1.377   1_565 S
C1240  C1275   1.482   .     S
C1240  N1307   1.377   .     A
C1240  C341    1.427   1_556 S
C1241  C1252   1.370   .     A
C1241  H1281   1.083   .     S
C1241  C1260   1.398   .     A
C1242  C1259   1.395   .     A
C1242  C1253   1.368   .     A
C1242  H1292   1.080   .     S
C1243  C1250   1.370   .     A
C1243  H1298   1.083   .     S
C1243  C1259   1.398   .     A
C1244  C1261   1.423   .     S
C1244  O1331   1.293   .     A
C1244  O1320   1.296   .     A
C1245  C1260   1.395   .     A
C1245  C1251   1.368   .     A
C1245  H1299   1.080   .     S
C1246  C1262   1.398   .     A
C1246  C1257   1.370   .     A
C1246  H1300   1.083   .     S
C1247  C1261   1.395   .     A
C1247  H1301   1.080   .     S
C1247  C1258   1.368   .     A
C1248  H1302   1.083   .     S
C1248  C1261   1.398   .     A
C1248  C1254   1.370   .     A
C1249  C1262   1.395   .     A
C1249  C1256   1.368   .     A
C1249  H1303   1.080   .     S
C1250  H1304   1.083   .     S
C1250  C1264   1.398   .     A
C1251  C1263   1.395   .     A
C1251  H1282   1.080   .     S
C1252  H1283   1.083   .     S
C1252  C1263   1.398   .     A
C1253  C1264   1.395   .     A
C1253  H1284   1.080   .     S
C1254  C1267   1.398   .     A
C1254  H1285   1.083   .     S
C1255  O1336   1.293   .     A
C1255  O1339   1.296   .     A
C1255  C1260   1.423   .     S
C1256  H1286   1.080   .     S
C1256  C1265   1.395   .     A
C1257  H1287   1.083   .     S
C1257  C1265   1.398   .     A
C1258  H1288   1.080   .     S
C1258  C1267   1.395   .     A
C1259  C1266   1.423   .     S
C1263  C1279   1.423   .     S
C1264  C1278   1.423   .     S
C1265  C1277   1.423   .     S
C1266  O1338   1.293   .     A
C1266  O1337   1.296   .     A
C1267  C1276   1.423   .     S
C1268  O1318   1.398   .     S
C1268  C1280   1.482   .     S
C1268  O1205   1.218   1_655 S
C1269  O1321   1.398   .     S
C1269  O1207   1.218   1_655 S
C1270  O1323   1.398   .     S
C1271  O1325   1.398   .     S
C1272  O1327   1.398   .     S
C1272  O1326   1.218   .     D
C1273  O1328   1.218   .     D
C1273  O1329   1.398   .     S
C1274  O1330   1.218   .     D
C1274  O1332   1.398   .     S
C1275  O1333   1.218   .     D
C1275  O1334   1.398   .     S
C1276  O1340   1.293   .     A
C1276  O1312   1.296   .     A
C1277  O1310   1.296   .     A
C1277  O1311   1.293   .     A
C1278  O1313   1.293   .     A
C1278  O1316   1.296   .     A
C1279  O1314   1.296   .     A
C1279  O1315   1.293   .     A
C1280  N1194   1.377   1_655 A
C1280  C676    1.427   1_655 S
H1289  O1318   1.014   .     S
H1290  O1321   1.014   .     S
H1291  O1323   1.014   .     S
H1293  O1325   1.014   .     S
H1294  O1327   1.014   .     S
H1295  O1329   1.014   .     S
H1296  O1332   1.014   .     S
H1297  O1334   1.014   .     S
N1305  Zn1341  2.037   .     S
N1306  Zn1342  2.037   .     S
N1307  Zn1343  2.037   .     S
N1308  Zn1344  2.037   .     S
O1309  Zn1341  2.002   .     S
O1310  Zn1344  2.002   .     S
O1311  Zn1343  2.002   .     S
O1312  Zn1120  2.002   1_565 S
O1313  Zn1120  2.002   1_565 S
O1314  Zn1343  2.002   .     S
O1315  Zn1344  2.002   .     S
O1316  Zn1119  2.002   1_565 S
O1320  Zn1230  2.002   1_655 S
O1322  C1158   1.218   1_655 S
O1324  C1159   1.218   1_655 S
O1331  Zn1229  2.002   1_655 S
O1335  Zn1342  2.002   .     S
O1336  Zn1230  2.002   1_655 S
O1337  Zn1341  2.002   .     S
O1338  Zn1342  2.002   .     S
O1339  Zn1229  2.002   1_655 S
O1340  Zn1119  2.002   1_565 S
