data_str_m1_o10_o16_pcu_sym.225
_audit_creation_date              2020-01-03
_audit_creation_method            'Materials Studio'
_symmetry_space_group_name_H-M    'P1'
_symmetry_Int_Tables_number       1
_symmetry_cell_setting            triclinic
loop_
_symmetry_equiv_pos_as_xyz
  x,y,z
_cell_length_a                    32.6310
_cell_length_b                    32.7002
_cell_length_c                    30.9364
_cell_angle_alpha                 96.4253
_cell_angle_beta                  74.7696
_cell_angle_gamma                 98.8976
loop_
_atom_site_label
_atom_site_type_symbol
_atom_site_fract_x
_atom_site_fract_y
_atom_site_fract_z
_atom_site_U_iso_or_equiv
_atom_site_adp_type
_atom_site_occupancy
C1     C     0.05315   0.15995   0.25913   0.00000  Uiso   1.00
C2     C     0.16755   0.15626   0.05916   0.00000  Uiso   1.00
C3     C     0.22978   0.12405   0.05658   0.00000  Uiso   1.00
C4     C     0.28071   0.17375   0.24025   0.00000  Uiso   1.00
C5     C     0.13765   0.18782   0.42044   0.00000  Uiso   1.00
C6     C     0.32617   0.17734   0.23829   0.00000  Uiso   1.00
C7     C     0.00801   0.15545   0.26373   0.00000  Uiso   1.00
C8     C     0.18515   0.32377   0.24238   0.00000  Uiso   1.00
C9     C     0.15139   0.01167   0.26093   0.00000  Uiso   1.00
C10    C     0.15612   0.05596   0.25980   0.00000  Uiso   1.00
C11    C     0.17769   0.27820   0.24120   0.00000  Uiso   1.00
C12    C     0.07878   0.18381   0.48704   0.00000  Uiso   1.00
C13    C     0.18532   0.14835   0.12935   0.00000  Uiso   1.00
C14    C     0.14908   0.18495   0.37087   0.00000  Uiso   1.00
C15    C     0.24253   0.12423   0.00967   0.00000  Uiso   1.00
C16    C     0.19374   0.14170   0.08095   0.00000  Uiso   1.00
C17    C     0.09585   0.19449   0.44309   0.00000  Uiso   1.00
C18    C     0.22999   0.01442   0.22507   0.00000  Uiso   1.00
C19    C     0.26737   0.32240   0.20696   0.00000  Uiso   1.00
C20    C     0.27886   0.09947   0.48557   0.00000  Uiso   1.00
C21    C     0.26457   0.06450   0.45345   0.00000  Uiso   1.00
C22    C     0.10355   0.16642   0.00927   0.00000  Uiso   1.00
C23    C     0.14842   0.16607   0.48959   0.00000  Uiso   1.00
C24    C     0.16503   0.17651   0.44451   0.00000  Uiso   1.00
C25    C     0.17716   0.15432   0.01220   0.00000  Uiso   1.00
C26    C     0.21866   0.14456   0.48767   0.00000  Uiso   1.00
C27    C     0.23499   0.15840   0.44395   0.00000  Uiso   1.00
C28    C     0.20879   0.17563   0.42414   0.00000  Uiso   1.00
Cl29   Cl    0.31141   0.11623   0.29873   0.00000  Uiso   1.00
Cl30   Cl    0.09706   0.32211   0.27623   0.00000  Uiso   1.00
Cl31   Cl    0.28947   0.16296   0.41451   0.00000  Uiso   1.00
Cl32   Cl    0.07495   0.13795   0.05593   0.00000  Uiso   1.00
Cl33   Cl    0.02443   0.18877   0.01183   0.00000  Uiso   1.00
H34    H     0.24851   0.11103   0.07456   0.00000  Uiso   1.00
H35    H     0.23812   0.03559   0.25315   0.00000  Uiso   1.00
H36    H     0.23714   0.04347   0.47212   0.00000  Uiso   1.00
H37    H     0.25486   0.07690   0.42624   0.00000  Uiso   1.00
H38    H     0.29144   0.04623   0.43788   0.00000  Uiso   1.00
H39    H     0.30755   0.11949   0.46823   0.00000  Uiso   1.00
H40    H     0.29019   0.08459   0.01013   0.00000  Uiso   1.00
H41    H     0.14171   0.17237   0.07944   0.00000  Uiso   1.00
H42    H     0.07492   0.20429   0.42534   0.00000  Uiso   1.00
H43    H     0.22343   0.18889   0.39230   0.00000  Uiso   1.00
H44    H     0.01477   0.19879   0.21573   0.00000  Uiso   1.00
H45    H     0.26910   0.30162   0.23230   0.00000  Uiso   1.00
H46    H     0.26456   0.30432   0.17505   0.00000  Uiso   1.00
H47    H     0.29784   0.01053   0.19957   0.00000  Uiso   1.00
H48    H     0.22905   0.03380   0.19810   0.00000  Uiso   1.00
O49    O     0.16667   0.16667   0.25000   0.00000  Uiso   1.00
O50    O     0.15451   0.12637   0.15459   0.00000  Uiso   1.00
O51    O     0.12940   0.20391   0.34968   0.00000  Uiso   1.00
O52    O     0.20824   0.17759   0.14606   0.00000  Uiso   1.00
O53    O     0.17451   0.15880   0.34968   0.00000  Uiso   1.00
O54    O     0.17930   0.08019   0.28214   0.00000  Uiso   1.00
O55    O     0.14632   0.26085   0.27014   0.00000  Uiso   1.00
O56    O     0.07412   0.13291   0.23413   0.00000  Uiso   1.00
O57    O     0.26693   0.19272   0.21361   0.00000  Uiso   1.00
O58    O     0.07071   0.18878   0.28213   0.00000  Uiso   1.00
O59    O     0.25491   0.15226   0.27014   0.00000  Uiso   1.00
O60    O     0.13760   0.06944   0.23413   0.00000  Uiso   1.00
O61    O     0.20345   0.25620   0.21361   0.00000  Uiso   1.00
Zn62   Zn    0.19338   0.13994   0.28734   0.00000  Uiso   1.00
Zn63   Zn    0.13379   0.12458   0.21876   0.00000  Uiso   1.00
Zn64   Zn    0.21056   0.19775   0.20657   0.00000  Uiso   1.00
Zn65   Zn    0.12893   0.20439   0.28734   0.00000  Uiso   1.00
C66    C     0.38648   0.15995   0.25913   0.00000  Uiso   1.00
C67    C     0.50088   0.15626   0.05916   0.00000  Uiso   1.00
C68    C     0.56311   0.12405   0.05658   0.00000  Uiso   1.00
C69    C     0.61405   0.17375   0.24025   0.00000  Uiso   1.00
C70    C     0.47099   0.18782   0.42044   0.00000  Uiso   1.00
C71    C     0.65950   0.17734   0.23829   0.00000  Uiso   1.00
C72    C     0.34134   0.15545   0.26373   0.00000  Uiso   1.00
C73    C     0.51849   0.32377   0.24238   0.00000  Uiso   1.00
C74    C     0.48472   0.01167   0.26093   0.00000  Uiso   1.00
C75    C     0.48945   0.05596   0.25980   0.00000  Uiso   1.00
C76    C     0.51103   0.27820   0.24120   0.00000  Uiso   1.00
C77    C     0.41211   0.18381   0.48704   0.00000  Uiso   1.00
C78    C     0.51865   0.14835   0.12935   0.00000  Uiso   1.00
C79    C     0.48241   0.18495   0.37087   0.00000  Uiso   1.00
C80    C     0.57586   0.12423   0.00967   0.00000  Uiso   1.00
C81    C     0.52707   0.14170   0.08095   0.00000  Uiso   1.00
C82    C     0.42918   0.19449   0.44309   0.00000  Uiso   1.00
C83    C     0.56332   0.01442   0.22507   0.00000  Uiso   1.00
C84    C     0.60070   0.32240   0.20696   0.00000  Uiso   1.00
C85    C     0.61219   0.09947   0.48557   0.00000  Uiso   1.00
C86    C     0.59790   0.06450   0.45345   0.00000  Uiso   1.00
C87    C     0.43688   0.16642   0.00927   0.00000  Uiso   1.00
C88    C     0.48176   0.16607   0.48959   0.00000  Uiso   1.00
C89    C     0.49836   0.17651   0.44451   0.00000  Uiso   1.00
C90    C     0.51050   0.15432   0.01220   0.00000  Uiso   1.00
C91    C     0.55200   0.14456   0.48767   0.00000  Uiso   1.00
C92    C     0.56833   0.15840   0.44395   0.00000  Uiso   1.00
C93    C     0.54213   0.17563   0.42414   0.00000  Uiso   1.00
Cl94   Cl    0.64474   0.11623   0.29873   0.00000  Uiso   1.00
Cl95   Cl    0.43039   0.32211   0.27623   0.00000  Uiso   1.00
Cl96   Cl    0.62280   0.16296   0.41451   0.00000  Uiso   1.00
Cl97   Cl    0.40828   0.13795   0.05593   0.00000  Uiso   1.00
Cl98   Cl    0.35776   0.18877   0.01183   0.00000  Uiso   1.00
H99    H     0.58184   0.11103   0.07456   0.00000  Uiso   1.00
H100   H     0.57146   0.03559   0.25315   0.00000  Uiso   1.00
H101   H     0.57047   0.04347   0.47212   0.00000  Uiso   1.00
H102   H     0.58819   0.07690   0.42624   0.00000  Uiso   1.00
H103   H     0.62477   0.04623   0.43788   0.00000  Uiso   1.00
H104   H     0.64088   0.11949   0.46823   0.00000  Uiso   1.00
H105   H     0.62352   0.08459   0.01013   0.00000  Uiso   1.00
H106   H     0.47504   0.17237   0.07944   0.00000  Uiso   1.00
H107   H     0.40826   0.20429   0.42534   0.00000  Uiso   1.00
H108   H     0.55676   0.18889   0.39230   0.00000  Uiso   1.00
H109   H     0.34811   0.19879   0.21573   0.00000  Uiso   1.00
H110   H     0.60243   0.30162   0.23230   0.00000  Uiso   1.00
H111   H     0.59789   0.30432   0.17505   0.00000  Uiso   1.00
H112   H     0.63117   0.01053   0.19957   0.00000  Uiso   1.00
H113   H     0.56238   0.03380   0.19810   0.00000  Uiso   1.00
O114   O     0.50000   0.16667   0.25000   0.00000  Uiso   1.00
O115   O     0.48784   0.12637   0.15459   0.00000  Uiso   1.00
O116   O     0.46274   0.20391   0.34968   0.00000  Uiso   1.00
O117   O     0.54157   0.17759   0.14606   0.00000  Uiso   1.00
O118   O     0.50785   0.15880   0.34968   0.00000  Uiso   1.00
O119   O     0.51264   0.08019   0.28214   0.00000  Uiso   1.00
O120   O     0.47965   0.26085   0.27014   0.00000  Uiso   1.00
O121   O     0.40745   0.13291   0.23413   0.00000  Uiso   1.00
O122   O     0.60026   0.19272   0.21361   0.00000  Uiso   1.00
O123   O     0.40405   0.18878   0.28213   0.00000  Uiso   1.00
O124   O     0.58824   0.15226   0.27014   0.00000  Uiso   1.00
O125   O     0.47093   0.06944   0.23413   0.00000  Uiso   1.00
O126   O     0.53678   0.25620   0.21361   0.00000  Uiso   1.00
Zn127  Zn    0.52672   0.13994   0.28734   0.00000  Uiso   1.00
Zn128  Zn    0.46713   0.12458   0.21876   0.00000  Uiso   1.00
Zn129  Zn    0.54389   0.19775   0.20657   0.00000  Uiso   1.00
Zn130  Zn    0.46226   0.20439   0.28734   0.00000  Uiso   1.00
C131   C     0.71981   0.15995   0.25913   0.00000  Uiso   1.00
C132   C     0.83421   0.15626   0.05916   0.00000  Uiso   1.00
C133   C     0.89645   0.12405   0.05658   0.00000  Uiso   1.00
C134   C     0.94738   0.17375   0.24025   0.00000  Uiso   1.00
C135   C     0.80432   0.18782   0.42044   0.00000  Uiso   1.00
C136   C     0.99284   0.17734   0.23829   0.00000  Uiso   1.00
C137   C     0.67468   0.15545   0.26373   0.00000  Uiso   1.00
C138   C     0.85182   0.32377   0.24238   0.00000  Uiso   1.00
C139   C     0.81805   0.01167   0.26093   0.00000  Uiso   1.00
C140   C     0.82279   0.05596   0.25980   0.00000  Uiso   1.00
C141   C     0.84436   0.27820   0.24120   0.00000  Uiso   1.00
C142   C     0.74545   0.18381   0.48704   0.00000  Uiso   1.00
C143   C     0.85198   0.14835   0.12935   0.00000  Uiso   1.00
C144   C     0.81575   0.18495   0.37087   0.00000  Uiso   1.00
C145   C     0.90919   0.12423   0.00967   0.00000  Uiso   1.00
C146   C     0.86041   0.14170   0.08095   0.00000  Uiso   1.00
C147   C     0.76252   0.19449   0.44309   0.00000  Uiso   1.00
C148   C     0.89666   0.01442   0.22507   0.00000  Uiso   1.00
C149   C     0.93403   0.32240   0.20696   0.00000  Uiso   1.00
C150   C     0.94552   0.09947   0.48557   0.00000  Uiso   1.00
C151   C     0.93124   0.06450   0.45345   0.00000  Uiso   1.00
C152   C     0.77021   0.16642   0.00927   0.00000  Uiso   1.00
C153   C     0.81509   0.16607   0.48959   0.00000  Uiso   1.00
C154   C     0.83169   0.17651   0.44451   0.00000  Uiso   1.00
C155   C     0.84383   0.15432   0.01220   0.00000  Uiso   1.00
C156   C     0.88533   0.14456   0.48767   0.00000  Uiso   1.00
C157   C     0.90166   0.15840   0.44395   0.00000  Uiso   1.00
C158   C     0.87546   0.17563   0.42414   0.00000  Uiso   1.00
Cl159  Cl    0.97808   0.11623   0.29873   0.00000  Uiso   1.00
Cl160  Cl    0.76373   0.32211   0.27623   0.00000  Uiso   1.00
Cl161  Cl    0.95613   0.16296   0.41451   0.00000  Uiso   1.00
Cl162  Cl    0.74162   0.13795   0.05593   0.00000  Uiso   1.00
Cl163  Cl    0.69110   0.18877   0.01183   0.00000  Uiso   1.00
H164   H     0.91518   0.11103   0.07456   0.00000  Uiso   1.00
H165   H     0.90479   0.03559   0.25315   0.00000  Uiso   1.00
H166   H     0.90380   0.04347   0.47212   0.00000  Uiso   1.00
H167   H     0.92153   0.07690   0.42624   0.00000  Uiso   1.00
H168   H     0.95810   0.04623   0.43788   0.00000  Uiso   1.00
H169   H     0.97421   0.11949   0.46823   0.00000  Uiso   1.00
H170   H     0.95686   0.08459   0.01013   0.00000  Uiso   1.00
H171   H     0.80838   0.17237   0.07944   0.00000  Uiso   1.00
H172   H     0.74159   0.20429   0.42534   0.00000  Uiso   1.00
H173   H     0.89010   0.18889   0.39230   0.00000  Uiso   1.00
H174   H     0.68144   0.19879   0.21573   0.00000  Uiso   1.00
H175   H     0.93577   0.30162   0.23230   0.00000  Uiso   1.00
H176   H     0.93123   0.30432   0.17505   0.00000  Uiso   1.00
H177   H     0.96451   0.01053   0.19957   0.00000  Uiso   1.00
H178   H     0.89572   0.03380   0.19810   0.00000  Uiso   1.00
O179   O     0.83333   0.16667   0.25000   0.00000  Uiso   1.00
O180   O     0.82118   0.12637   0.15459   0.00000  Uiso   1.00
O181   O     0.79607   0.20391   0.34968   0.00000  Uiso   1.00
O182   O     0.87491   0.17759   0.14606   0.00000  Uiso   1.00
O183   O     0.84118   0.15880   0.34968   0.00000  Uiso   1.00
O184   O     0.84597   0.08019   0.28214   0.00000  Uiso   1.00
O185   O     0.81298   0.26085   0.27014   0.00000  Uiso   1.00
O186   O     0.74078   0.13291   0.23413   0.00000  Uiso   1.00
O187   O     0.93360   0.19272   0.21361   0.00000  Uiso   1.00
O188   O     0.73738   0.18878   0.28213   0.00000  Uiso   1.00
O189   O     0.92158   0.15226   0.27014   0.00000  Uiso   1.00
O190   O     0.80426   0.06944   0.23413   0.00000  Uiso   1.00
O191   O     0.87012   0.25620   0.21361   0.00000  Uiso   1.00
Zn192  Zn    0.86005   0.13994   0.28734   0.00000  Uiso   1.00
Zn193  Zn    0.80046   0.12458   0.21876   0.00000  Uiso   1.00
Zn194  Zn    0.87723   0.19775   0.20657   0.00000  Uiso   1.00
Zn195  Zn    0.79560   0.20439   0.28734   0.00000  Uiso   1.00
C196   C     0.05315   0.49328   0.25913   0.00000  Uiso   1.00
C197   C     0.16755   0.48960   0.05916   0.00000  Uiso   1.00
C198   C     0.22978   0.45739   0.05658   0.00000  Uiso   1.00
C199   C     0.28071   0.50708   0.24025   0.00000  Uiso   1.00
C200   C     0.13765   0.52116   0.42044   0.00000  Uiso   1.00
C201   C     0.32617   0.51068   0.23829   0.00000  Uiso   1.00
C202   C     0.00801   0.48879   0.26373   0.00000  Uiso   1.00
C203   C     0.18515   0.65710   0.24238   0.00000  Uiso   1.00
C204   C     0.15139   0.34500   0.26093   0.00000  Uiso   1.00
C205   C     0.15612   0.38929   0.25980   0.00000  Uiso   1.00
C206   C     0.17769   0.61153   0.24120   0.00000  Uiso   1.00
C207   C     0.07878   0.51714   0.48704   0.00000  Uiso   1.00
C208   C     0.18532   0.48168   0.12935   0.00000  Uiso   1.00
C209   C     0.14908   0.51828   0.37087   0.00000  Uiso   1.00
C210   C     0.24253   0.45756   0.00967   0.00000  Uiso   1.00
C211   C     0.19374   0.47503   0.08095   0.00000  Uiso   1.00
C212   C     0.09585   0.52782   0.44309   0.00000  Uiso   1.00
C213   C     0.22999   0.34776   0.22507   0.00000  Uiso   1.00
C214   C     0.26737   0.65574   0.20696   0.00000  Uiso   1.00
C215   C     0.27886   0.43281   0.48557   0.00000  Uiso   1.00
C216   C     0.26457   0.39783   0.45345   0.00000  Uiso   1.00
C217   C     0.10355   0.49975   0.00927   0.00000  Uiso   1.00
C218   C     0.14842   0.49941   0.48959   0.00000  Uiso   1.00
C219   C     0.16503   0.50984   0.44451   0.00000  Uiso   1.00
C220   C     0.17716   0.48766   0.01220   0.00000  Uiso   1.00
C221   C     0.21866   0.47789   0.48767   0.00000  Uiso   1.00
C222   C     0.23499   0.49174   0.44395   0.00000  Uiso   1.00
C223   C     0.20879   0.50896   0.42414   0.00000  Uiso   1.00
Cl224  Cl    0.31141   0.44956   0.29873   0.00000  Uiso   1.00
Cl225  Cl    0.09706   0.65544   0.27623   0.00000  Uiso   1.00
Cl226  Cl    0.28947   0.49629   0.41451   0.00000  Uiso   1.00
Cl227  Cl    0.07495   0.47128   0.05593   0.00000  Uiso   1.00
Cl228  Cl    0.02443   0.52211   0.01183   0.00000  Uiso   1.00
H229   H     0.24851   0.44437   0.07456   0.00000  Uiso   1.00
H230   H     0.23812   0.36893   0.25315   0.00000  Uiso   1.00
H231   H     0.23714   0.37680   0.47212   0.00000  Uiso   1.00
H232   H     0.25486   0.41023   0.42624   0.00000  Uiso   1.00
H233   H     0.29144   0.37956   0.43788   0.00000  Uiso   1.00
H234   H     0.30755   0.45282   0.46823   0.00000  Uiso   1.00
H235   H     0.29019   0.41792   0.01013   0.00000  Uiso   1.00
H236   H     0.14171   0.50570   0.07944   0.00000  Uiso   1.00
H237   H     0.07492   0.53762   0.42534   0.00000  Uiso   1.00
H238   H     0.22343   0.52223   0.39230   0.00000  Uiso   1.00
H239   H     0.01477   0.53213   0.21573   0.00000  Uiso   1.00
H240   H     0.26910   0.63495   0.23230   0.00000  Uiso   1.00
H241   H     0.26456   0.63766   0.17505   0.00000  Uiso   1.00
H242   H     0.29784   0.34386   0.19957   0.00000  Uiso   1.00
H243   H     0.22905   0.36714   0.19810   0.00000  Uiso   1.00
O244   O     0.16667   0.50000   0.25000   0.00000  Uiso   1.00
O245   O     0.15451   0.45970   0.15459   0.00000  Uiso   1.00
O246   O     0.12940   0.53724   0.34968   0.00000  Uiso   1.00
O247   O     0.20824   0.51092   0.14606   0.00000  Uiso   1.00
O248   O     0.17451   0.49213   0.34968   0.00000  Uiso   1.00
O249   O     0.17930   0.41352   0.28214   0.00000  Uiso   1.00
O250   O     0.14632   0.59418   0.27014   0.00000  Uiso   1.00
O251   O     0.07412   0.46625   0.23413   0.00000  Uiso   1.00
O252   O     0.26693   0.52605   0.21361   0.00000  Uiso   1.00
O253   O     0.07071   0.52211   0.28213   0.00000  Uiso   1.00
O254   O     0.25491   0.48559   0.27014   0.00000  Uiso   1.00
O255   O     0.13760   0.40277   0.23413   0.00000  Uiso   1.00
O256   O     0.20345   0.58953   0.21361   0.00000  Uiso   1.00
Zn257  Zn    0.19338   0.47327   0.28734   0.00000  Uiso   1.00
Zn258  Zn    0.13379   0.45791   0.21876   0.00000  Uiso   1.00
Zn259  Zn    0.21056   0.53109   0.20657   0.00000  Uiso   1.00
Zn260  Zn    0.12893   0.53773   0.28734   0.00000  Uiso   1.00
C261   C     0.38648   0.49328   0.25913   0.00000  Uiso   1.00
C262   C     0.50088   0.48960   0.05916   0.00000  Uiso   1.00
C263   C     0.56311   0.45739   0.05658   0.00000  Uiso   1.00
C264   C     0.61405   0.50708   0.24025   0.00000  Uiso   1.00
C265   C     0.47099   0.52116   0.42044   0.00000  Uiso   1.00
C266   C     0.65950   0.51068   0.23829   0.00000  Uiso   1.00
C267   C     0.34134   0.48879   0.26373   0.00000  Uiso   1.00
C268   C     0.51849   0.65710   0.24238   0.00000  Uiso   1.00
C269   C     0.48472   0.34500   0.26093   0.00000  Uiso   1.00
C270   C     0.48945   0.38929   0.25980   0.00000  Uiso   1.00
C271   C     0.51103   0.61153   0.24120   0.00000  Uiso   1.00
C272   C     0.41211   0.51714   0.48704   0.00000  Uiso   1.00
C273   C     0.51865   0.48168   0.12935   0.00000  Uiso   1.00
C274   C     0.48241   0.51828   0.37087   0.00000  Uiso   1.00
C275   C     0.57586   0.45756   0.00967   0.00000  Uiso   1.00
C276   C     0.52707   0.47503   0.08095   0.00000  Uiso   1.00
C277   C     0.42918   0.52782   0.44309   0.00000  Uiso   1.00
C278   C     0.56332   0.34776   0.22507   0.00000  Uiso   1.00
C279   C     0.60070   0.65574   0.20696   0.00000  Uiso   1.00
C280   C     0.61219   0.43281   0.48557   0.00000  Uiso   1.00
C281   C     0.59790   0.39783   0.45345   0.00000  Uiso   1.00
C282   C     0.43688   0.49975   0.00927   0.00000  Uiso   1.00
C283   C     0.48176   0.49941   0.48959   0.00000  Uiso   1.00
C284   C     0.49836   0.50984   0.44451   0.00000  Uiso   1.00
C285   C     0.51050   0.48766   0.01220   0.00000  Uiso   1.00
C286   C     0.55200   0.47789   0.48767   0.00000  Uiso   1.00
C287   C     0.56833   0.49174   0.44395   0.00000  Uiso   1.00
C288   C     0.54213   0.50896   0.42414   0.00000  Uiso   1.00
Cl289  Cl    0.64474   0.44956   0.29873   0.00000  Uiso   1.00
Cl290  Cl    0.43039   0.65544   0.27623   0.00000  Uiso   1.00
Cl291  Cl    0.62280   0.49629   0.41451   0.00000  Uiso   1.00
Cl292  Cl    0.40828   0.47128   0.05593   0.00000  Uiso   1.00
Cl293  Cl    0.35776   0.52211   0.01183   0.00000  Uiso   1.00
H294   H     0.58184   0.44437   0.07456   0.00000  Uiso   1.00
H295   H     0.57146   0.36893   0.25315   0.00000  Uiso   1.00
H296   H     0.57047   0.37680   0.47212   0.00000  Uiso   1.00
H297   H     0.58819   0.41023   0.42624   0.00000  Uiso   1.00
H298   H     0.62477   0.37956   0.43788   0.00000  Uiso   1.00
H299   H     0.64088   0.45282   0.46823   0.00000  Uiso   1.00
H300   H     0.62352   0.41792   0.01013   0.00000  Uiso   1.00
H301   H     0.47504   0.50570   0.07944   0.00000  Uiso   1.00
H302   H     0.40826   0.53762   0.42534   0.00000  Uiso   1.00
H303   H     0.55676   0.52223   0.39230   0.00000  Uiso   1.00
H304   H     0.34811   0.53213   0.21573   0.00000  Uiso   1.00
H305   H     0.60243   0.63495   0.23230   0.00000  Uiso   1.00
H306   H     0.59789   0.63766   0.17505   0.00000  Uiso   1.00
H307   H     0.63117   0.34386   0.19957   0.00000  Uiso   1.00
H308   H     0.56238   0.36714   0.19810   0.00000  Uiso   1.00
O309   O     0.50000   0.50000   0.25000   0.00000  Uiso   1.00
O310   O     0.48784   0.45970   0.15459   0.00000  Uiso   1.00
O311   O     0.46274   0.53724   0.34968   0.00000  Uiso   1.00
O312   O     0.54157   0.51092   0.14606   0.00000  Uiso   1.00
O313   O     0.50785   0.49213   0.34968   0.00000  Uiso   1.00
O314   O     0.51264   0.41352   0.28214   0.00000  Uiso   1.00
O315   O     0.47965   0.59418   0.27014   0.00000  Uiso   1.00
O316   O     0.40745   0.46625   0.23413   0.00000  Uiso   1.00
O317   O     0.60026   0.52605   0.21361   0.00000  Uiso   1.00
O318   O     0.40405   0.52211   0.28213   0.00000  Uiso   1.00
O319   O     0.58824   0.48559   0.27014   0.00000  Uiso   1.00
O320   O     0.47093   0.40277   0.23413   0.00000  Uiso   1.00
O321   O     0.53678   0.58953   0.21361   0.00000  Uiso   1.00
Zn322  Zn    0.52672   0.47327   0.28734   0.00000  Uiso   1.00
Zn323  Zn    0.46713   0.45791   0.21876   0.00000  Uiso   1.00
Zn324  Zn    0.54389   0.53109   0.20657   0.00000  Uiso   1.00
Zn325  Zn    0.46226   0.53773   0.28734   0.00000  Uiso   1.00
C326   C     0.71981   0.49328   0.25913   0.00000  Uiso   1.00
C327   C     0.83421   0.48960   0.05916   0.00000  Uiso   1.00
C328   C     0.89645   0.45739   0.05658   0.00000  Uiso   1.00
C329   C     0.94738   0.50708   0.24025   0.00000  Uiso   1.00
C330   C     0.80432   0.52116   0.42044   0.00000  Uiso   1.00
C331   C     0.99284   0.51068   0.23829   0.00000  Uiso   1.00
C332   C     0.67468   0.48879   0.26373   0.00000  Uiso   1.00
C333   C     0.85182   0.65710   0.24238   0.00000  Uiso   1.00
C334   C     0.81805   0.34500   0.26093   0.00000  Uiso   1.00
C335   C     0.82279   0.38929   0.25980   0.00000  Uiso   1.00
C336   C     0.84436   0.61153   0.24120   0.00000  Uiso   1.00
C337   C     0.74545   0.51714   0.48704   0.00000  Uiso   1.00
C338   C     0.85198   0.48168   0.12935   0.00000  Uiso   1.00
C339   C     0.81575   0.51828   0.37087   0.00000  Uiso   1.00
C340   C     0.90919   0.45756   0.00967   0.00000  Uiso   1.00
C341   C     0.86041   0.47503   0.08095   0.00000  Uiso   1.00
C342   C     0.76252   0.52782   0.44309   0.00000  Uiso   1.00
C343   C     0.89666   0.34776   0.22507   0.00000  Uiso   1.00
C344   C     0.93403   0.65574   0.20696   0.00000  Uiso   1.00
C345   C     0.94552   0.43281   0.48557   0.00000  Uiso   1.00
C346   C     0.93124   0.39783   0.45345   0.00000  Uiso   1.00
C347   C     0.77021   0.49975   0.00927   0.00000  Uiso   1.00
C348   C     0.81509   0.49941   0.48959   0.00000  Uiso   1.00
C349   C     0.83169   0.50984   0.44451   0.00000  Uiso   1.00
C350   C     0.84383   0.48766   0.01220   0.00000  Uiso   1.00
C351   C     0.88533   0.47789   0.48767   0.00000  Uiso   1.00
C352   C     0.90166   0.49174   0.44395   0.00000  Uiso   1.00
C353   C     0.87546   0.50896   0.42414   0.00000  Uiso   1.00
Cl354  Cl    0.97808   0.44956   0.29873   0.00000  Uiso   1.00
Cl355  Cl    0.76373   0.65544   0.27623   0.00000  Uiso   1.00
Cl356  Cl    0.95613   0.49629   0.41451   0.00000  Uiso   1.00
Cl357  Cl    0.74162   0.47128   0.05593   0.00000  Uiso   1.00
Cl358  Cl    0.69110   0.52211   0.01183   0.00000  Uiso   1.00
H359   H     0.91518   0.44437   0.07456   0.00000  Uiso   1.00
H360   H     0.90479   0.36893   0.25315   0.00000  Uiso   1.00
H361   H     0.90380   0.37680   0.47212   0.00000  Uiso   1.00
H362   H     0.92153   0.41023   0.42624   0.00000  Uiso   1.00
H363   H     0.95810   0.37956   0.43788   0.00000  Uiso   1.00
H364   H     0.97421   0.45282   0.46823   0.00000  Uiso   1.00
H365   H     0.95686   0.41792   0.01013   0.00000  Uiso   1.00
H366   H     0.80838   0.50570   0.07944   0.00000  Uiso   1.00
H367   H     0.74159   0.53762   0.42534   0.00000  Uiso   1.00
H368   H     0.89010   0.52223   0.39230   0.00000  Uiso   1.00
H369   H     0.68144   0.53213   0.21573   0.00000  Uiso   1.00
H370   H     0.93577   0.63495   0.23230   0.00000  Uiso   1.00
H371   H     0.93123   0.63766   0.17505   0.00000  Uiso   1.00
H372   H     0.96451   0.34386   0.19957   0.00000  Uiso   1.00
H373   H     0.89572   0.36714   0.19810   0.00000  Uiso   1.00
O374   O     0.83333   0.50000   0.25000   0.00000  Uiso   1.00
O375   O     0.82118   0.45970   0.15459   0.00000  Uiso   1.00
O376   O     0.79607   0.53724   0.34968   0.00000  Uiso   1.00
O377   O     0.87491   0.51092   0.14606   0.00000  Uiso   1.00
O378   O     0.84118   0.49213   0.34968   0.00000  Uiso   1.00
O379   O     0.84597   0.41352   0.28214   0.00000  Uiso   1.00
O380   O     0.81298   0.59418   0.27014   0.00000  Uiso   1.00
O381   O     0.74078   0.46625   0.23413   0.00000  Uiso   1.00
O382   O     0.93360   0.52605   0.21361   0.00000  Uiso   1.00
O383   O     0.73738   0.52211   0.28213   0.00000  Uiso   1.00
O384   O     0.92158   0.48559   0.27014   0.00000  Uiso   1.00
O385   O     0.80426   0.40277   0.23413   0.00000  Uiso   1.00
O386   O     0.87012   0.58953   0.21361   0.00000  Uiso   1.00
Zn387  Zn    0.86005   0.47327   0.28734   0.00000  Uiso   1.00
Zn388  Zn    0.80046   0.45791   0.21876   0.00000  Uiso   1.00
Zn389  Zn    0.87723   0.53109   0.20657   0.00000  Uiso   1.00
Zn390  Zn    0.79560   0.53773   0.28734   0.00000  Uiso   1.00
C391   C     0.05315   0.82662   0.25913   0.00000  Uiso   1.00
C392   C     0.16755   0.82293   0.05916   0.00000  Uiso   1.00
C393   C     0.22978   0.79072   0.05658   0.00000  Uiso   1.00
C394   C     0.28071   0.84042   0.24025   0.00000  Uiso   1.00
C395   C     0.13765   0.85449   0.42044   0.00000  Uiso   1.00
C396   C     0.32617   0.84401   0.23829   0.00000  Uiso   1.00
C397   C     0.00801   0.82212   0.26373   0.00000  Uiso   1.00
C398   C     0.18515   0.99043   0.24238   0.00000  Uiso   1.00
C399   C     0.15139   0.67834   0.26093   0.00000  Uiso   1.00
C400   C     0.15612   0.72262   0.25980   0.00000  Uiso   1.00
C401   C     0.17769   0.94486   0.24120   0.00000  Uiso   1.00
C402   C     0.07878   0.85048   0.48704   0.00000  Uiso   1.00
C403   C     0.18532   0.81502   0.12935   0.00000  Uiso   1.00
C404   C     0.14908   0.85162   0.37087   0.00000  Uiso   1.00
C405   C     0.24253   0.79090   0.00967   0.00000  Uiso   1.00
C406   C     0.19374   0.80836   0.08095   0.00000  Uiso   1.00
C407   C     0.09585   0.86115   0.44309   0.00000  Uiso   1.00
C408   C     0.22999   0.68109   0.22507   0.00000  Uiso   1.00
C409   C     0.26737   0.98907   0.20696   0.00000  Uiso   1.00
C410   C     0.27886   0.76614   0.48557   0.00000  Uiso   1.00
C411   C     0.26457   0.73116   0.45345   0.00000  Uiso   1.00
C412   C     0.10355   0.83309   0.00927   0.00000  Uiso   1.00
C413   C     0.14842   0.83274   0.48959   0.00000  Uiso   1.00
C414   C     0.16503   0.84318   0.44451   0.00000  Uiso   1.00
C415   C     0.17716   0.82099   0.01220   0.00000  Uiso   1.00
C416   C     0.21866   0.81122   0.48767   0.00000  Uiso   1.00
C417   C     0.23499   0.82507   0.44395   0.00000  Uiso   1.00
C418   C     0.20879   0.84230   0.42414   0.00000  Uiso   1.00
Cl419  Cl    0.31141   0.78290   0.29873   0.00000  Uiso   1.00
Cl420  Cl    0.09706   0.98878   0.27623   0.00000  Uiso   1.00
Cl421  Cl    0.28947   0.82962   0.41451   0.00000  Uiso   1.00
Cl422  Cl    0.07495   0.80461   0.05593   0.00000  Uiso   1.00
Cl423  Cl    0.02443   0.85544   0.01183   0.00000  Uiso   1.00
H424   H     0.24851   0.77770   0.07456   0.00000  Uiso   1.00
H425   H     0.23812   0.70226   0.25315   0.00000  Uiso   1.00
H426   H     0.23714   0.71013   0.47212   0.00000  Uiso   1.00
H427   H     0.25486   0.74356   0.42624   0.00000  Uiso   1.00
H428   H     0.29144   0.71290   0.43788   0.00000  Uiso   1.00
H429   H     0.30755   0.78615   0.46823   0.00000  Uiso   1.00
H430   H     0.29019   0.75126   0.01013   0.00000  Uiso   1.00
H431   H     0.14171   0.83903   0.07944   0.00000  Uiso   1.00
H432   H     0.07492   0.87096   0.42534   0.00000  Uiso   1.00
H433   H     0.22343   0.85556   0.39230   0.00000  Uiso   1.00
H434   H     0.01477   0.86546   0.21573   0.00000  Uiso   1.00
H435   H     0.26910   0.96829   0.23230   0.00000  Uiso   1.00
H436   H     0.26456   0.97099   0.17505   0.00000  Uiso   1.00
H437   H     0.29784   0.67719   0.19957   0.00000  Uiso   1.00
H438   H     0.22905   0.70047   0.19810   0.00000  Uiso   1.00
O439   O     0.16667   0.83333   0.25000   0.00000  Uiso   1.00
O440   O     0.15451   0.79304   0.15459   0.00000  Uiso   1.00
O441   O     0.12940   0.87058   0.34968   0.00000  Uiso   1.00
O442   O     0.20824   0.84425   0.14606   0.00000  Uiso   1.00
O443   O     0.17451   0.82546   0.34968   0.00000  Uiso   1.00
O444   O     0.17930   0.74686   0.28214   0.00000  Uiso   1.00
O445   O     0.14632   0.92751   0.27014   0.00000  Uiso   1.00
O446   O     0.07412   0.79958   0.23413   0.00000  Uiso   1.00
O447   O     0.26693   0.85939   0.21361   0.00000  Uiso   1.00
O448   O     0.07071   0.85544   0.28213   0.00000  Uiso   1.00
O449   O     0.25491   0.81892   0.27014   0.00000  Uiso   1.00
O450   O     0.13760   0.73610   0.23413   0.00000  Uiso   1.00
O451   O     0.20345   0.92286   0.21361   0.00000  Uiso   1.00
Zn452  Zn    0.19338   0.80661   0.28734   0.00000  Uiso   1.00
Zn453  Zn    0.13379   0.79124   0.21876   0.00000  Uiso   1.00
Zn454  Zn    0.21056   0.86442   0.20657   0.00000  Uiso   1.00
Zn455  Zn    0.12893   0.87106   0.28734   0.00000  Uiso   1.00
C456   C     0.38648   0.82662   0.25913   0.00000  Uiso   1.00
C457   C     0.50088   0.82293   0.05916   0.00000  Uiso   1.00
C458   C     0.56311   0.79072   0.05658   0.00000  Uiso   1.00
C459   C     0.61405   0.84042   0.24025   0.00000  Uiso   1.00
C460   C     0.47099   0.85449   0.42044   0.00000  Uiso   1.00
C461   C     0.65950   0.84401   0.23829   0.00000  Uiso   1.00
C462   C     0.34134   0.82212   0.26373   0.00000  Uiso   1.00
C463   C     0.51849   0.99043   0.24238   0.00000  Uiso   1.00
C464   C     0.48472   0.67834   0.26093   0.00000  Uiso   1.00
C465   C     0.48945   0.72262   0.25980   0.00000  Uiso   1.00
C466   C     0.51103   0.94486   0.24120   0.00000  Uiso   1.00
C467   C     0.41211   0.85048   0.48704   0.00000  Uiso   1.00
C468   C     0.51865   0.81502   0.12935   0.00000  Uiso   1.00
C469   C     0.48241   0.85162   0.37087   0.00000  Uiso   1.00
C470   C     0.57586   0.79090   0.00967   0.00000  Uiso   1.00
C471   C     0.52707   0.80836   0.08095   0.00000  Uiso   1.00
C472   C     0.42918   0.86115   0.44309   0.00000  Uiso   1.00
C473   C     0.56332   0.68109   0.22507   0.00000  Uiso   1.00
C474   C     0.60070   0.98907   0.20696   0.00000  Uiso   1.00
C475   C     0.61219   0.76614   0.48557   0.00000  Uiso   1.00
C476   C     0.59790   0.73116   0.45345   0.00000  Uiso   1.00
C477   C     0.43688   0.83309   0.00927   0.00000  Uiso   1.00
C478   C     0.48176   0.83274   0.48959   0.00000  Uiso   1.00
C479   C     0.49836   0.84318   0.44451   0.00000  Uiso   1.00
C480   C     0.51050   0.82099   0.01220   0.00000  Uiso   1.00
C481   C     0.55200   0.81122   0.48767   0.00000  Uiso   1.00
C482   C     0.56833   0.82507   0.44395   0.00000  Uiso   1.00
C483   C     0.54213   0.84230   0.42414   0.00000  Uiso   1.00
Cl484  Cl    0.64474   0.78290   0.29873   0.00000  Uiso   1.00
Cl485  Cl    0.43039   0.98878   0.27623   0.00000  Uiso   1.00
Cl486  Cl    0.62280   0.82962   0.41451   0.00000  Uiso   1.00
Cl487  Cl    0.40828   0.80461   0.05593   0.00000  Uiso   1.00
Cl488  Cl    0.35776   0.85544   0.01183   0.00000  Uiso   1.00
H489   H     0.58184   0.77770   0.07456   0.00000  Uiso   1.00
H490   H     0.57146   0.70226   0.25315   0.00000  Uiso   1.00
H491   H     0.57047   0.71013   0.47212   0.00000  Uiso   1.00
H492   H     0.58819   0.74356   0.42624   0.00000  Uiso   1.00
H493   H     0.62477   0.71290   0.43788   0.00000  Uiso   1.00
H494   H     0.64088   0.78615   0.46823   0.00000  Uiso   1.00
H495   H     0.62352   0.75126   0.01013   0.00000  Uiso   1.00
H496   H     0.47504   0.83903   0.07944   0.00000  Uiso   1.00
H497   H     0.40826   0.87096   0.42534   0.00000  Uiso   1.00
H498   H     0.55676   0.85556   0.39230   0.00000  Uiso   1.00
H499   H     0.34811   0.86546   0.21573   0.00000  Uiso   1.00
H500   H     0.60243   0.96829   0.23230   0.00000  Uiso   1.00
H501   H     0.59789   0.97099   0.17505   0.00000  Uiso   1.00
H502   H     0.63117   0.67719   0.19957   0.00000  Uiso   1.00
H503   H     0.56238   0.70047   0.19810   0.00000  Uiso   1.00
O504   O     0.50000   0.83333   0.25000   0.00000  Uiso   1.00
O505   O     0.48784   0.79304   0.15459   0.00000  Uiso   1.00
O506   O     0.46274   0.87058   0.34968   0.00000  Uiso   1.00
O507   O     0.54157   0.84425   0.14606   0.00000  Uiso   1.00
O508   O     0.50785   0.82546   0.34968   0.00000  Uiso   1.00
O509   O     0.51264   0.74686   0.28214   0.00000  Uiso   1.00
O510   O     0.47965   0.92751   0.27014   0.00000  Uiso   1.00
O511   O     0.40745   0.79958   0.23413   0.00000  Uiso   1.00
O512   O     0.60026   0.85939   0.21361   0.00000  Uiso   1.00
O513   O     0.40405   0.85544   0.28213   0.00000  Uiso   1.00
O514   O     0.58824   0.81892   0.27014   0.00000  Uiso   1.00
O515   O     0.47093   0.73610   0.23413   0.00000  Uiso   1.00
O516   O     0.53678   0.92286   0.21361   0.00000  Uiso   1.00
Zn517  Zn    0.52672   0.80661   0.28734   0.00000  Uiso   1.00
Zn518  Zn    0.46713   0.79124   0.21876   0.00000  Uiso   1.00
Zn519  Zn    0.54389   0.86442   0.20657   0.00000  Uiso   1.00
Zn520  Zn    0.46226   0.87106   0.28734   0.00000  Uiso   1.00
C521   C     0.71981   0.82662   0.25913   0.00000  Uiso   1.00
C522   C     0.83421   0.82293   0.05916   0.00000  Uiso   1.00
C523   C     0.89645   0.79072   0.05658   0.00000  Uiso   1.00
C524   C     0.94738   0.84042   0.24025   0.00000  Uiso   1.00
C525   C     0.80432   0.85449   0.42044   0.00000  Uiso   1.00
C526   C     0.99284   0.84401   0.23829   0.00000  Uiso   1.00
C527   C     0.67468   0.82212   0.26373   0.00000  Uiso   1.00
C528   C     0.85182   0.99043   0.24238   0.00000  Uiso   1.00
C529   C     0.81805   0.67834   0.26093   0.00000  Uiso   1.00
C530   C     0.82279   0.72262   0.25980   0.00000  Uiso   1.00
C531   C     0.84436   0.94486   0.24120   0.00000  Uiso   1.00
C532   C     0.74545   0.85048   0.48704   0.00000  Uiso   1.00
C533   C     0.85198   0.81502   0.12935   0.00000  Uiso   1.00
C534   C     0.81575   0.85162   0.37087   0.00000  Uiso   1.00
C535   C     0.90919   0.79090   0.00967   0.00000  Uiso   1.00
C536   C     0.86041   0.80836   0.08095   0.00000  Uiso   1.00
C537   C     0.76252   0.86115   0.44309   0.00000  Uiso   1.00
C538   C     0.89666   0.68109   0.22507   0.00000  Uiso   1.00
C539   C     0.93403   0.98907   0.20696   0.00000  Uiso   1.00
C540   C     0.94552   0.76614   0.48557   0.00000  Uiso   1.00
C541   C     0.93124   0.73116   0.45345   0.00000  Uiso   1.00
C542   C     0.77021   0.83309   0.00927   0.00000  Uiso   1.00
C543   C     0.81509   0.83274   0.48959   0.00000  Uiso   1.00
C544   C     0.83169   0.84318   0.44451   0.00000  Uiso   1.00
C545   C     0.84383   0.82099   0.01220   0.00000  Uiso   1.00
C546   C     0.88533   0.81122   0.48767   0.00000  Uiso   1.00
C547   C     0.90166   0.82507   0.44395   0.00000  Uiso   1.00
C548   C     0.87546   0.84230   0.42414   0.00000  Uiso   1.00
Cl549  Cl    0.97808   0.78290   0.29873   0.00000  Uiso   1.00
Cl550  Cl    0.76373   0.98878   0.27623   0.00000  Uiso   1.00
Cl551  Cl    0.95613   0.82962   0.41451   0.00000  Uiso   1.00
Cl552  Cl    0.74162   0.80461   0.05593   0.00000  Uiso   1.00
Cl553  Cl    0.69110   0.85544   0.01183   0.00000  Uiso   1.00
H554   H     0.91518   0.77770   0.07456   0.00000  Uiso   1.00
H555   H     0.90479   0.70226   0.25315   0.00000  Uiso   1.00
H556   H     0.90380   0.71013   0.47212   0.00000  Uiso   1.00
H557   H     0.92153   0.74356   0.42624   0.00000  Uiso   1.00
H558   H     0.95810   0.71290   0.43788   0.00000  Uiso   1.00
H559   H     0.97421   0.78615   0.46823   0.00000  Uiso   1.00
H560   H     0.95686   0.75126   0.01013   0.00000  Uiso   1.00
H561   H     0.80838   0.83903   0.07944   0.00000  Uiso   1.00
H562   H     0.74159   0.87096   0.42534   0.00000  Uiso   1.00
H563   H     0.89010   0.85556   0.39230   0.00000  Uiso   1.00
H564   H     0.68144   0.86546   0.21573   0.00000  Uiso   1.00
H565   H     0.93577   0.96829   0.23230   0.00000  Uiso   1.00
H566   H     0.93123   0.97099   0.17505   0.00000  Uiso   1.00
H567   H     0.96451   0.67719   0.19957   0.00000  Uiso   1.00
H568   H     0.89572   0.70047   0.19810   0.00000  Uiso   1.00
O569   O     0.83333   0.83333   0.25000   0.00000  Uiso   1.00
O570   O     0.82118   0.79304   0.15459   0.00000  Uiso   1.00
O571   O     0.79607   0.87058   0.34968   0.00000  Uiso   1.00
O572   O     0.87491   0.84425   0.14606   0.00000  Uiso   1.00
O573   O     0.84118   0.82546   0.34968   0.00000  Uiso   1.00
O574   O     0.84597   0.74686   0.28214   0.00000  Uiso   1.00
O575   O     0.81298   0.92751   0.27014   0.00000  Uiso   1.00
O576   O     0.74078   0.79958   0.23413   0.00000  Uiso   1.00
O577   O     0.93360   0.85939   0.21361   0.00000  Uiso   1.00
O578   O     0.73738   0.85544   0.28213   0.00000  Uiso   1.00
O579   O     0.92158   0.81892   0.27014   0.00000  Uiso   1.00
O580   O     0.80426   0.73610   0.23413   0.00000  Uiso   1.00
O581   O     0.87012   0.92286   0.21361   0.00000  Uiso   1.00
Zn582  Zn    0.86005   0.80661   0.28734   0.00000  Uiso   1.00
Zn583  Zn    0.80046   0.79124   0.21876   0.00000  Uiso   1.00
Zn584  Zn    0.87723   0.86442   0.20657   0.00000  Uiso   1.00
Zn585  Zn    0.79560   0.87106   0.28734   0.00000  Uiso   1.00
C586   C     0.05315   0.15995   0.75913   0.00000  Uiso   1.00
C587   C     0.16755   0.15626   0.55916   0.00000  Uiso   1.00
C588   C     0.22978   0.12405   0.55658   0.00000  Uiso   1.00
C589   C     0.28071   0.17375   0.74025   0.00000  Uiso   1.00
C590   C     0.13765   0.18782   0.92044   0.00000  Uiso   1.00
C591   C     0.32617   0.17734   0.73829   0.00000  Uiso   1.00
C592   C     0.00801   0.15545   0.76373   0.00000  Uiso   1.00
C593   C     0.18515   0.32377   0.74238   0.00000  Uiso   1.00
C594   C     0.15139   0.01167   0.76093   0.00000  Uiso   1.00
C595   C     0.15612   0.05596   0.75980   0.00000  Uiso   1.00
C596   C     0.17769   0.27820   0.74120   0.00000  Uiso   1.00
C597   C     0.07878   0.18381   0.98704   0.00000  Uiso   1.00
C598   C     0.18532   0.14835   0.62935   0.00000  Uiso   1.00
C599   C     0.14908   0.18495   0.87087   0.00000  Uiso   1.00
C600   C     0.24253   0.12423   0.50967   0.00000  Uiso   1.00
C601   C     0.19374   0.14170   0.58095   0.00000  Uiso   1.00
C602   C     0.09585   0.19449   0.94309   0.00000  Uiso   1.00
C603   C     0.22999   0.01442   0.72507   0.00000  Uiso   1.00
C604   C     0.26737   0.32240   0.70696   0.00000  Uiso   1.00
C605   C     0.27886   0.09947   0.98557   0.00000  Uiso   1.00
C606   C     0.26457   0.06450   0.95345   0.00000  Uiso   1.00
C607   C     0.10355   0.16642   0.50927   0.00000  Uiso   1.00
C608   C     0.14842   0.16607   0.98959   0.00000  Uiso   1.00
C609   C     0.16503   0.17651   0.94451   0.00000  Uiso   1.00
C610   C     0.17716   0.15432   0.51220   0.00000  Uiso   1.00
C611   C     0.21866   0.14456   0.98767   0.00000  Uiso   1.00
C612   C     0.23499   0.15840   0.94395   0.00000  Uiso   1.00
C613   C     0.20879   0.17563   0.92414   0.00000  Uiso   1.00
Cl614  Cl    0.31141   0.11623   0.79873   0.00000  Uiso   1.00
Cl615  Cl    0.09706   0.32211   0.77623   0.00000  Uiso   1.00
Cl616  Cl    0.28947   0.16296   0.91451   0.00000  Uiso   1.00
Cl617  Cl    0.07495   0.13795   0.55593   0.00000  Uiso   1.00
Cl618  Cl    0.02443   0.18877   0.51183   0.00000  Uiso   1.00
H619   H     0.24851   0.11103   0.57456   0.00000  Uiso   1.00
H620   H     0.23812   0.03559   0.75315   0.00000  Uiso   1.00
H621   H     0.23714   0.04347   0.97212   0.00000  Uiso   1.00
H622   H     0.25486   0.07690   0.92624   0.00000  Uiso   1.00
H623   H     0.29144   0.04623   0.93788   0.00000  Uiso   1.00
H624   H     0.30755   0.11949   0.96823   0.00000  Uiso   1.00
H625   H     0.29019   0.08459   0.51013   0.00000  Uiso   1.00
H626   H     0.14171   0.17237   0.57944   0.00000  Uiso   1.00
H627   H     0.07492   0.20429   0.92534   0.00000  Uiso   1.00
H628   H     0.22343   0.18889   0.89230   0.00000  Uiso   1.00
H629   H     0.01477   0.19879   0.71573   0.00000  Uiso   1.00
H630   H     0.26910   0.30162   0.73230   0.00000  Uiso   1.00
H631   H     0.26456   0.30432   0.67505   0.00000  Uiso   1.00
H632   H     0.29784   0.01053   0.69957   0.00000  Uiso   1.00
H633   H     0.22905   0.03380   0.69810   0.00000  Uiso   1.00
O634   O     0.16667   0.16667   0.75000   0.00000  Uiso   1.00
O635   O     0.15451   0.12637   0.65459   0.00000  Uiso   1.00
O636   O     0.12940   0.20391   0.84968   0.00000  Uiso   1.00
O637   O     0.20824   0.17759   0.64606   0.00000  Uiso   1.00
O638   O     0.17451   0.15880   0.84968   0.00000  Uiso   1.00
O639   O     0.17930   0.08019   0.78214   0.00000  Uiso   1.00
O640   O     0.14632   0.26085   0.77014   0.00000  Uiso   1.00
O641   O     0.07412   0.13291   0.73413   0.00000  Uiso   1.00
O642   O     0.26693   0.19272   0.71361   0.00000  Uiso   1.00
O643   O     0.07071   0.18878   0.78213   0.00000  Uiso   1.00
O644   O     0.25491   0.15226   0.77014   0.00000  Uiso   1.00
O645   O     0.13760   0.06944   0.73413   0.00000  Uiso   1.00
O646   O     0.20345   0.25620   0.71361   0.00000  Uiso   1.00
Zn647  Zn    0.19338   0.13994   0.78734   0.00000  Uiso   1.00
Zn648  Zn    0.13379   0.12458   0.71876   0.00000  Uiso   1.00
Zn649  Zn    0.21056   0.19775   0.70657   0.00000  Uiso   1.00
Zn650  Zn    0.12893   0.20439   0.78734   0.00000  Uiso   1.00
C651   C     0.38648   0.15995   0.75913   0.00000  Uiso   1.00
C652   C     0.50088   0.15626   0.55916   0.00000  Uiso   1.00
C653   C     0.56311   0.12405   0.55658   0.00000  Uiso   1.00
C654   C     0.61405   0.17375   0.74025   0.00000  Uiso   1.00
C655   C     0.47099   0.18782   0.92044   0.00000  Uiso   1.00
C656   C     0.65950   0.17734   0.73829   0.00000  Uiso   1.00
C657   C     0.34134   0.15545   0.76373   0.00000  Uiso   1.00
C658   C     0.51849   0.32377   0.74238   0.00000  Uiso   1.00
C659   C     0.48472   0.01167   0.76093   0.00000  Uiso   1.00
C660   C     0.48945   0.05596   0.75980   0.00000  Uiso   1.00
C661   C     0.51103   0.27820   0.74120   0.00000  Uiso   1.00
C662   C     0.41211   0.18381   0.98704   0.00000  Uiso   1.00
C663   C     0.51865   0.14835   0.62935   0.00000  Uiso   1.00
C664   C     0.48241   0.18495   0.87087   0.00000  Uiso   1.00
C665   C     0.57586   0.12423   0.50967   0.00000  Uiso   1.00
C666   C     0.52707   0.14170   0.58095   0.00000  Uiso   1.00
C667   C     0.42918   0.19449   0.94309   0.00000  Uiso   1.00
C668   C     0.56332   0.01442   0.72507   0.00000  Uiso   1.00
C669   C     0.60070   0.32240   0.70696   0.00000  Uiso   1.00
C670   C     0.61219   0.09947   0.98557   0.00000  Uiso   1.00
C671   C     0.59790   0.06450   0.95345   0.00000  Uiso   1.00
C672   C     0.43688   0.16642   0.50927   0.00000  Uiso   1.00
C673   C     0.48176   0.16607   0.98959   0.00000  Uiso   1.00
C674   C     0.49836   0.17651   0.94451   0.00000  Uiso   1.00
C675   C     0.51050   0.15432   0.51220   0.00000  Uiso   1.00
C676   C     0.55200   0.14456   0.98767   0.00000  Uiso   1.00
C677   C     0.56833   0.15840   0.94395   0.00000  Uiso   1.00
C678   C     0.54213   0.17563   0.92414   0.00000  Uiso   1.00
Cl679  Cl    0.64474   0.11623   0.79873   0.00000  Uiso   1.00
Cl680  Cl    0.43039   0.32211   0.77623   0.00000  Uiso   1.00
Cl681  Cl    0.62280   0.16296   0.91451   0.00000  Uiso   1.00
Cl682  Cl    0.40828   0.13795   0.55593   0.00000  Uiso   1.00
Cl683  Cl    0.35776   0.18877   0.51183   0.00000  Uiso   1.00
H684   H     0.58184   0.11103   0.57456   0.00000  Uiso   1.00
H685   H     0.57146   0.03559   0.75315   0.00000  Uiso   1.00
H686   H     0.57047   0.04347   0.97212   0.00000  Uiso   1.00
H687   H     0.58819   0.07690   0.92624   0.00000  Uiso   1.00
H688   H     0.62477   0.04623   0.93788   0.00000  Uiso   1.00
H689   H     0.64088   0.11949   0.96823   0.00000  Uiso   1.00
H690   H     0.62352   0.08459   0.51013   0.00000  Uiso   1.00
H691   H     0.47504   0.17237   0.57944   0.00000  Uiso   1.00
H692   H     0.40826   0.20429   0.92534   0.00000  Uiso   1.00
H693   H     0.55676   0.18889   0.89230   0.00000  Uiso   1.00
H694   H     0.34811   0.19879   0.71573   0.00000  Uiso   1.00
H695   H     0.60243   0.30162   0.73230   0.00000  Uiso   1.00
H696   H     0.59789   0.30432   0.67505   0.00000  Uiso   1.00
H697   H     0.63117   0.01053   0.69957   0.00000  Uiso   1.00
H698   H     0.56238   0.03380   0.69810   0.00000  Uiso   1.00
O699   O     0.50000   0.16667   0.75000   0.00000  Uiso   1.00
O700   O     0.48784   0.12637   0.65459   0.00000  Uiso   1.00
O701   O     0.46274   0.20391   0.84968   0.00000  Uiso   1.00
O702   O     0.54157   0.17759   0.64606   0.00000  Uiso   1.00
O703   O     0.50785   0.15880   0.84968   0.00000  Uiso   1.00
O704   O     0.51264   0.08019   0.78214   0.00000  Uiso   1.00
O705   O     0.47965   0.26085   0.77014   0.00000  Uiso   1.00
O706   O     0.40745   0.13291   0.73413   0.00000  Uiso   1.00
O707   O     0.60026   0.19272   0.71361   0.00000  Uiso   1.00
O708   O     0.40405   0.18878   0.78213   0.00000  Uiso   1.00
O709   O     0.58824   0.15226   0.77014   0.00000  Uiso   1.00
O710   O     0.47093   0.06944   0.73413   0.00000  Uiso   1.00
O711   O     0.53678   0.25620   0.71361   0.00000  Uiso   1.00
Zn712  Zn    0.52672   0.13994   0.78734   0.00000  Uiso   1.00
Zn713  Zn    0.46713   0.12458   0.71876   0.00000  Uiso   1.00
Zn714  Zn    0.54389   0.19775   0.70657   0.00000  Uiso   1.00
Zn715  Zn    0.46226   0.20439   0.78734   0.00000  Uiso   1.00
C716   C     0.71981   0.15995   0.75913   0.00000  Uiso   1.00
C717   C     0.83421   0.15626   0.55916   0.00000  Uiso   1.00
C718   C     0.89645   0.12405   0.55658   0.00000  Uiso   1.00
C719   C     0.94738   0.17375   0.74025   0.00000  Uiso   1.00
C720   C     0.80432   0.18782   0.92044   0.00000  Uiso   1.00
C721   C     0.99284   0.17734   0.73829   0.00000  Uiso   1.00
C722   C     0.67468   0.15545   0.76373   0.00000  Uiso   1.00
C723   C     0.85182   0.32377   0.74238   0.00000  Uiso   1.00
C724   C     0.81805   0.01167   0.76093   0.00000  Uiso   1.00
C725   C     0.82279   0.05596   0.75980   0.00000  Uiso   1.00
C726   C     0.84436   0.27820   0.74120   0.00000  Uiso   1.00
C727   C     0.74545   0.18381   0.98704   0.00000  Uiso   1.00
C728   C     0.85198   0.14835   0.62935   0.00000  Uiso   1.00
C729   C     0.81575   0.18495   0.87087   0.00000  Uiso   1.00
C730   C     0.90919   0.12423   0.50967   0.00000  Uiso   1.00
C731   C     0.86041   0.14170   0.58095   0.00000  Uiso   1.00
C732   C     0.76252   0.19449   0.94309   0.00000  Uiso   1.00
C733   C     0.89666   0.01442   0.72507   0.00000  Uiso   1.00
C734   C     0.93403   0.32240   0.70696   0.00000  Uiso   1.00
C735   C     0.94552   0.09947   0.98557   0.00000  Uiso   1.00
C736   C     0.93124   0.06450   0.95345   0.00000  Uiso   1.00
C737   C     0.77021   0.16642   0.50927   0.00000  Uiso   1.00
C738   C     0.81509   0.16607   0.98959   0.00000  Uiso   1.00
C739   C     0.83169   0.17651   0.94451   0.00000  Uiso   1.00
C740   C     0.84383   0.15432   0.51220   0.00000  Uiso   1.00
C741   C     0.88533   0.14456   0.98767   0.00000  Uiso   1.00
C742   C     0.90166   0.15840   0.94395   0.00000  Uiso   1.00
C743   C     0.87546   0.17563   0.92414   0.00000  Uiso   1.00
Cl744  Cl    0.97808   0.11623   0.79873   0.00000  Uiso   1.00
Cl745  Cl    0.76373   0.32211   0.77623   0.00000  Uiso   1.00
Cl746  Cl    0.95613   0.16296   0.91451   0.00000  Uiso   1.00
Cl747  Cl    0.74162   0.13795   0.55593   0.00000  Uiso   1.00
Cl748  Cl    0.69110   0.18877   0.51183   0.00000  Uiso   1.00
H749   H     0.91518   0.11103   0.57456   0.00000  Uiso   1.00
H750   H     0.90479   0.03559   0.75315   0.00000  Uiso   1.00
H751   H     0.90380   0.04347   0.97212   0.00000  Uiso   1.00
H752   H     0.92153   0.07690   0.92624   0.00000  Uiso   1.00
H753   H     0.95810   0.04623   0.93788   0.00000  Uiso   1.00
H754   H     0.97421   0.11949   0.96823   0.00000  Uiso   1.00
H755   H     0.95686   0.08459   0.51013   0.00000  Uiso   1.00
H756   H     0.80838   0.17237   0.57944   0.00000  Uiso   1.00
H757   H     0.74159   0.20429   0.92534   0.00000  Uiso   1.00
H758   H     0.89010   0.18889   0.89230   0.00000  Uiso   1.00
H759   H     0.68144   0.19879   0.71573   0.00000  Uiso   1.00
H760   H     0.93577   0.30162   0.73230   0.00000  Uiso   1.00
H761   H     0.93123   0.30432   0.67505   0.00000  Uiso   1.00
H762   H     0.96451   0.01053   0.69957   0.00000  Uiso   1.00
H763   H     0.89572   0.03380   0.69810   0.00000  Uiso   1.00
O764   O     0.83333   0.16667   0.75000   0.00000  Uiso   1.00
O765   O     0.82118   0.12637   0.65459   0.00000  Uiso   1.00
O766   O     0.79607   0.20391   0.84968   0.00000  Uiso   1.00
O767   O     0.87491   0.17759   0.64606   0.00000  Uiso   1.00
O768   O     0.84118   0.15880   0.84968   0.00000  Uiso   1.00
O769   O     0.84597   0.08019   0.78214   0.00000  Uiso   1.00
O770   O     0.81298   0.26085   0.77014   0.00000  Uiso   1.00
O771   O     0.74078   0.13291   0.73413   0.00000  Uiso   1.00
O772   O     0.93360   0.19272   0.71361   0.00000  Uiso   1.00
O773   O     0.73738   0.18878   0.78213   0.00000  Uiso   1.00
O774   O     0.92158   0.15226   0.77014   0.00000  Uiso   1.00
O775   O     0.80426   0.06944   0.73413   0.00000  Uiso   1.00
O776   O     0.87012   0.25620   0.71361   0.00000  Uiso   1.00
Zn777  Zn    0.86005   0.13994   0.78734   0.00000  Uiso   1.00
Zn778  Zn    0.80046   0.12458   0.71876   0.00000  Uiso   1.00
Zn779  Zn    0.87723   0.19775   0.70657   0.00000  Uiso   1.00
Zn780  Zn    0.79560   0.20439   0.78734   0.00000  Uiso   1.00
C781   C     0.05315   0.49328   0.75913   0.00000  Uiso   1.00
C782   C     0.16755   0.48960   0.55916   0.00000  Uiso   1.00
C783   C     0.22978   0.45739   0.55658   0.00000  Uiso   1.00
C784   C     0.28071   0.50708   0.74025   0.00000  Uiso   1.00
C785   C     0.13765   0.52116   0.92044   0.00000  Uiso   1.00
C786   C     0.32617   0.51068   0.73829   0.00000  Uiso   1.00
C787   C     0.00801   0.48879   0.76373   0.00000  Uiso   1.00
C788   C     0.18515   0.65710   0.74238   0.00000  Uiso   1.00
C789   C     0.15139   0.34500   0.76093   0.00000  Uiso   1.00
C790   C     0.15612   0.38929   0.75980   0.00000  Uiso   1.00
C791   C     0.17769   0.61153   0.74120   0.00000  Uiso   1.00
C792   C     0.07878   0.51714   0.98704   0.00000  Uiso   1.00
C793   C     0.18532   0.48168   0.62935   0.00000  Uiso   1.00
C794   C     0.14908   0.51828   0.87087   0.00000  Uiso   1.00
C795   C     0.24253   0.45756   0.50967   0.00000  Uiso   1.00
C796   C     0.19374   0.47503   0.58095   0.00000  Uiso   1.00
C797   C     0.09585   0.52782   0.94309   0.00000  Uiso   1.00
C798   C     0.22999   0.34776   0.72507   0.00000  Uiso   1.00
C799   C     0.26737   0.65574   0.70696   0.00000  Uiso   1.00
C800   C     0.27886   0.43281   0.98557   0.00000  Uiso   1.00
C801   C     0.26457   0.39783   0.95345   0.00000  Uiso   1.00
C802   C     0.10355   0.49975   0.50927   0.00000  Uiso   1.00
C803   C     0.14842   0.49941   0.98959   0.00000  Uiso   1.00
C804   C     0.16503   0.50984   0.94451   0.00000  Uiso   1.00
C805   C     0.17716   0.48766   0.51220   0.00000  Uiso   1.00
C806   C     0.21866   0.47789   0.98767   0.00000  Uiso   1.00
C807   C     0.23499   0.49174   0.94395   0.00000  Uiso   1.00
C808   C     0.20879   0.50896   0.92414   0.00000  Uiso   1.00
Cl809  Cl    0.31141   0.44956   0.79873   0.00000  Uiso   1.00
Cl810  Cl    0.09706   0.65544   0.77623   0.00000  Uiso   1.00
Cl811  Cl    0.28947   0.49629   0.91451   0.00000  Uiso   1.00
Cl812  Cl    0.07495   0.47128   0.55593   0.00000  Uiso   1.00
Cl813  Cl    0.02443   0.52211   0.51183   0.00000  Uiso   1.00
H814   H     0.24851   0.44437   0.57456   0.00000  Uiso   1.00
H815   H     0.23812   0.36893   0.75315   0.00000  Uiso   1.00
H816   H     0.23714   0.37680   0.97212   0.00000  Uiso   1.00
H817   H     0.25486   0.41023   0.92624   0.00000  Uiso   1.00
H818   H     0.29144   0.37956   0.93788   0.00000  Uiso   1.00
H819   H     0.30755   0.45282   0.96823   0.00000  Uiso   1.00
H820   H     0.29019   0.41792   0.51013   0.00000  Uiso   1.00
H821   H     0.14171   0.50570   0.57944   0.00000  Uiso   1.00
H822   H     0.07492   0.53762   0.92534   0.00000  Uiso   1.00
H823   H     0.22343   0.52223   0.89230   0.00000  Uiso   1.00
H824   H     0.01477   0.53213   0.71573   0.00000  Uiso   1.00
H825   H     0.26910   0.63495   0.73230   0.00000  Uiso   1.00
H826   H     0.26456   0.63766   0.67505   0.00000  Uiso   1.00
H827   H     0.29784   0.34386   0.69957   0.00000  Uiso   1.00
H828   H     0.22905   0.36714   0.69810   0.00000  Uiso   1.00
O829   O     0.16667   0.50000   0.75000   0.00000  Uiso   1.00
O830   O     0.15451   0.45970   0.65459   0.00000  Uiso   1.00
O831   O     0.12940   0.53724   0.84968   0.00000  Uiso   1.00
O832   O     0.20824   0.51092   0.64606   0.00000  Uiso   1.00
O833   O     0.17451   0.49213   0.84968   0.00000  Uiso   1.00
O834   O     0.17930   0.41352   0.78214   0.00000  Uiso   1.00
O835   O     0.14632   0.59418   0.77014   0.00000  Uiso   1.00
O836   O     0.07412   0.46625   0.73413   0.00000  Uiso   1.00
O837   O     0.26693   0.52605   0.71361   0.00000  Uiso   1.00
O838   O     0.07071   0.52211   0.78213   0.00000  Uiso   1.00
O839   O     0.25491   0.48559   0.77014   0.00000  Uiso   1.00
O840   O     0.13760   0.40277   0.73413   0.00000  Uiso   1.00
O841   O     0.20345   0.58953   0.71361   0.00000  Uiso   1.00
Zn842  Zn    0.19338   0.47327   0.78734   0.00000  Uiso   1.00
Zn843  Zn    0.13379   0.45791   0.71876   0.00000  Uiso   1.00
Zn844  Zn    0.21056   0.53109   0.70657   0.00000  Uiso   1.00
Zn845  Zn    0.12893   0.53773   0.78734   0.00000  Uiso   1.00
C846   C     0.38648   0.49328   0.75913   0.00000  Uiso   1.00
C847   C     0.50088   0.48960   0.55916   0.00000  Uiso   1.00
C848   C     0.56311   0.45739   0.55658   0.00000  Uiso   1.00
C849   C     0.61405   0.50708   0.74025   0.00000  Uiso   1.00
C850   C     0.47099   0.52116   0.92044   0.00000  Uiso   1.00
C851   C     0.65950   0.51068   0.73829   0.00000  Uiso   1.00
C852   C     0.34134   0.48879   0.76373   0.00000  Uiso   1.00
C853   C     0.51849   0.65710   0.74238   0.00000  Uiso   1.00
C854   C     0.48472   0.34500   0.76093   0.00000  Uiso   1.00
C855   C     0.48945   0.38929   0.75980   0.00000  Uiso   1.00
C856   C     0.51103   0.61153   0.74120   0.00000  Uiso   1.00
C857   C     0.41211   0.51714   0.98704   0.00000  Uiso   1.00
C858   C     0.51865   0.48168   0.62935   0.00000  Uiso   1.00
C859   C     0.48241   0.51828   0.87087   0.00000  Uiso   1.00
C860   C     0.57586   0.45756   0.50967   0.00000  Uiso   1.00
C861   C     0.52707   0.47503   0.58095   0.00000  Uiso   1.00
C862   C     0.42918   0.52782   0.94309   0.00000  Uiso   1.00
C863   C     0.56332   0.34776   0.72507   0.00000  Uiso   1.00
C864   C     0.60070   0.65574   0.70696   0.00000  Uiso   1.00
C865   C     0.61219   0.43281   0.98557   0.00000  Uiso   1.00
C866   C     0.59790   0.39783   0.95345   0.00000  Uiso   1.00
C867   C     0.43688   0.49975   0.50927   0.00000  Uiso   1.00
C868   C     0.48176   0.49941   0.98959   0.00000  Uiso   1.00
C869   C     0.49836   0.50984   0.94451   0.00000  Uiso   1.00
C870   C     0.51050   0.48766   0.51220   0.00000  Uiso   1.00
C871   C     0.55200   0.47789   0.98767   0.00000  Uiso   1.00
C872   C     0.56833   0.49174   0.94395   0.00000  Uiso   1.00
C873   C     0.54213   0.50896   0.92414   0.00000  Uiso   1.00
Cl874  Cl    0.64474   0.44956   0.79873   0.00000  Uiso   1.00
Cl875  Cl    0.43039   0.65544   0.77623   0.00000  Uiso   1.00
Cl876  Cl    0.62280   0.49629   0.91451   0.00000  Uiso   1.00
Cl877  Cl    0.40828   0.47128   0.55593   0.00000  Uiso   1.00
Cl878  Cl    0.35776   0.52211   0.51183   0.00000  Uiso   1.00
H879   H     0.58184   0.44437   0.57456   0.00000  Uiso   1.00
H880   H     0.57146   0.36893   0.75315   0.00000  Uiso   1.00
H881   H     0.57047   0.37680   0.97212   0.00000  Uiso   1.00
H882   H     0.58819   0.41023   0.92624   0.00000  Uiso   1.00
H883   H     0.62477   0.37956   0.93788   0.00000  Uiso   1.00
H884   H     0.64088   0.45282   0.96823   0.00000  Uiso   1.00
H885   H     0.62352   0.41792   0.51013   0.00000  Uiso   1.00
H886   H     0.47504   0.50570   0.57944   0.00000  Uiso   1.00
H887   H     0.40826   0.53762   0.92534   0.00000  Uiso   1.00
H888   H     0.55676   0.52223   0.89230   0.00000  Uiso   1.00
H889   H     0.34811   0.53213   0.71573   0.00000  Uiso   1.00
H890   H     0.60243   0.63495   0.73230   0.00000  Uiso   1.00
H891   H     0.59789   0.63766   0.67505   0.00000  Uiso   1.00
H892   H     0.63117   0.34386   0.69957   0.00000  Uiso   1.00
H893   H     0.56238   0.36714   0.69810   0.00000  Uiso   1.00
O894   O     0.50000   0.50000   0.75000   0.00000  Uiso   1.00
O895   O     0.48784   0.45970   0.65459   0.00000  Uiso   1.00
O896   O     0.46274   0.53724   0.84968   0.00000  Uiso   1.00
O897   O     0.54157   0.51092   0.64606   0.00000  Uiso   1.00
O898   O     0.50785   0.49213   0.84968   0.00000  Uiso   1.00
O899   O     0.51264   0.41352   0.78214   0.00000  Uiso   1.00
O900   O     0.47965   0.59418   0.77014   0.00000  Uiso   1.00
O901   O     0.40745   0.46625   0.73413   0.00000  Uiso   1.00
O902   O     0.60026   0.52605   0.71361   0.00000  Uiso   1.00
O903   O     0.40405   0.52211   0.78213   0.00000  Uiso   1.00
O904   O     0.58824   0.48559   0.77014   0.00000  Uiso   1.00
O905   O     0.47093   0.40277   0.73413   0.00000  Uiso   1.00
O906   O     0.53678   0.58953   0.71361   0.00000  Uiso   1.00
Zn907  Zn    0.52672   0.47327   0.78734   0.00000  Uiso   1.00
Zn908  Zn    0.46713   0.45791   0.71876   0.00000  Uiso   1.00
Zn909  Zn    0.54389   0.53109   0.70657   0.00000  Uiso   1.00
Zn910  Zn    0.46226   0.53773   0.78734   0.00000  Uiso   1.00
C911   C     0.71981   0.49328   0.75913   0.00000  Uiso   1.00
C912   C     0.83421   0.48960   0.55916   0.00000  Uiso   1.00
C913   C     0.89645   0.45739   0.55658   0.00000  Uiso   1.00
C914   C     0.94738   0.50708   0.74025   0.00000  Uiso   1.00
C915   C     0.80432   0.52116   0.92044   0.00000  Uiso   1.00
C916   C     0.99284   0.51068   0.73829   0.00000  Uiso   1.00
C917   C     0.67468   0.48879   0.76373   0.00000  Uiso   1.00
C918   C     0.85182   0.65710   0.74238   0.00000  Uiso   1.00
C919   C     0.81805   0.34500   0.76093   0.00000  Uiso   1.00
C920   C     0.82279   0.38929   0.75980   0.00000  Uiso   1.00
C921   C     0.84436   0.61153   0.74120   0.00000  Uiso   1.00
C922   C     0.74545   0.51714   0.98704   0.00000  Uiso   1.00
C923   C     0.85198   0.48168   0.62935   0.00000  Uiso   1.00
C924   C     0.81575   0.51828   0.87087   0.00000  Uiso   1.00
C925   C     0.90919   0.45756   0.50967   0.00000  Uiso   1.00
C926   C     0.86041   0.47503   0.58095   0.00000  Uiso   1.00
C927   C     0.76252   0.52782   0.94309   0.00000  Uiso   1.00
C928   C     0.89666   0.34776   0.72507   0.00000  Uiso   1.00
C929   C     0.93403   0.65574   0.70696   0.00000  Uiso   1.00
C930   C     0.94552   0.43281   0.98557   0.00000  Uiso   1.00
C931   C     0.93124   0.39783   0.95345   0.00000  Uiso   1.00
C932   C     0.77021   0.49975   0.50927   0.00000  Uiso   1.00
C933   C     0.81509   0.49941   0.98959   0.00000  Uiso   1.00
C934   C     0.83169   0.50984   0.94451   0.00000  Uiso   1.00
C935   C     0.84383   0.48766   0.51220   0.00000  Uiso   1.00
C936   C     0.88533   0.47789   0.98767   0.00000  Uiso   1.00
C937   C     0.90166   0.49174   0.94395   0.00000  Uiso   1.00
C938   C     0.87546   0.50896   0.92414   0.00000  Uiso   1.00
Cl939  Cl    0.97808   0.44956   0.79873   0.00000  Uiso   1.00
Cl940  Cl    0.76373   0.65544   0.77623   0.00000  Uiso   1.00
Cl941  Cl    0.95613   0.49629   0.91451   0.00000  Uiso   1.00
Cl942  Cl    0.74162   0.47128   0.55593   0.00000  Uiso   1.00
Cl943  Cl    0.69110   0.52211   0.51183   0.00000  Uiso   1.00
H944   H     0.91518   0.44437   0.57456   0.00000  Uiso   1.00
H945   H     0.90479   0.36893   0.75315   0.00000  Uiso   1.00
H946   H     0.90380   0.37680   0.97212   0.00000  Uiso   1.00
H947   H     0.92153   0.41023   0.92624   0.00000  Uiso   1.00
H948   H     0.95810   0.37956   0.93788   0.00000  Uiso   1.00
H949   H     0.97421   0.45282   0.96823   0.00000  Uiso   1.00
H950   H     0.95686   0.41792   0.51013   0.00000  Uiso   1.00
H951   H     0.80838   0.50570   0.57944   0.00000  Uiso   1.00
H952   H     0.74159   0.53762   0.92534   0.00000  Uiso   1.00
H953   H     0.89010   0.52223   0.89230   0.00000  Uiso   1.00
H954   H     0.68144   0.53213   0.71573   0.00000  Uiso   1.00
H955   H     0.93577   0.63495   0.73230   0.00000  Uiso   1.00
H956   H     0.93123   0.63766   0.67505   0.00000  Uiso   1.00
H957   H     0.96451   0.34386   0.69957   0.00000  Uiso   1.00
H958   H     0.89572   0.36714   0.69810   0.00000  Uiso   1.00
O959   O     0.83333   0.50000   0.75000   0.00000  Uiso   1.00
O960   O     0.82118   0.45970   0.65459   0.00000  Uiso   1.00
O961   O     0.79607   0.53724   0.84968   0.00000  Uiso   1.00
O962   O     0.87491   0.51092   0.64606   0.00000  Uiso   1.00
O963   O     0.84118   0.49213   0.84968   0.00000  Uiso   1.00
O964   O     0.84597   0.41352   0.78214   0.00000  Uiso   1.00
O965   O     0.81298   0.59418   0.77014   0.00000  Uiso   1.00
O966   O     0.74078   0.46625   0.73413   0.00000  Uiso   1.00
O967   O     0.93360   0.52605   0.71361   0.00000  Uiso   1.00
O968   O     0.73738   0.52211   0.78213   0.00000  Uiso   1.00
O969   O     0.92158   0.48559   0.77014   0.00000  Uiso   1.00
O970   O     0.80426   0.40277   0.73413   0.00000  Uiso   1.00
O971   O     0.87012   0.58953   0.71361   0.00000  Uiso   1.00
Zn972  Zn    0.86005   0.47327   0.78734   0.00000  Uiso   1.00
Zn973  Zn    0.80046   0.45791   0.71876   0.00000  Uiso   1.00
Zn974  Zn    0.87723   0.53109   0.70657   0.00000  Uiso   1.00
Zn975  Zn    0.79560   0.53773   0.78734   0.00000  Uiso   1.00
C976   C     0.05315   0.82662   0.75913   0.00000  Uiso   1.00
C977   C     0.16755   0.82293   0.55916   0.00000  Uiso   1.00
C978   C     0.22978   0.79072   0.55658   0.00000  Uiso   1.00
C979   C     0.28071   0.84042   0.74025   0.00000  Uiso   1.00
C980   C     0.13765   0.85449   0.92044   0.00000  Uiso   1.00
C981   C     0.32617   0.84401   0.73829   0.00000  Uiso   1.00
C982   C     0.00801   0.82212   0.76373   0.00000  Uiso   1.00
C983   C     0.18515   0.99043   0.74238   0.00000  Uiso   1.00
C984   C     0.15139   0.67834   0.76093   0.00000  Uiso   1.00
C985   C     0.15612   0.72262   0.75980   0.00000  Uiso   1.00
C986   C     0.17769   0.94486   0.74120   0.00000  Uiso   1.00
C987   C     0.07878   0.85048   0.98704   0.00000  Uiso   1.00
C988   C     0.18532   0.81502   0.62935   0.00000  Uiso   1.00
C989   C     0.14908   0.85162   0.87087   0.00000  Uiso   1.00
C990   C     0.24253   0.79090   0.50967   0.00000  Uiso   1.00
C991   C     0.19374   0.80836   0.58095   0.00000  Uiso   1.00
C992   C     0.09585   0.86115   0.94309   0.00000  Uiso   1.00
C993   C     0.22999   0.68109   0.72507   0.00000  Uiso   1.00
C994   C     0.26737   0.98907   0.70696   0.00000  Uiso   1.00
C995   C     0.27886   0.76614   0.98557   0.00000  Uiso   1.00
C996   C     0.26457   0.73116   0.95345   0.00000  Uiso   1.00
C997   C     0.10355   0.83309   0.50927   0.00000  Uiso   1.00
C998   C     0.14842   0.83274   0.98959   0.00000  Uiso   1.00
C999   C     0.16503   0.84318   0.94451   0.00000  Uiso   1.00
C1000  C     0.17716   0.82099   0.51220   0.00000  Uiso   1.00
C1001  C     0.21866   0.81122   0.98767   0.00000  Uiso   1.00
C1002  C     0.23499   0.82507   0.94395   0.00000  Uiso   1.00
C1003  C     0.20879   0.84230   0.92414   0.00000  Uiso   1.00
Cl1004 Cl    0.31141   0.78290   0.79873   0.00000  Uiso   1.00
Cl1005 Cl    0.09706   0.98878   0.77623   0.00000  Uiso   1.00
Cl1006 Cl    0.28947   0.82962   0.91451   0.00000  Uiso   1.00
Cl1007 Cl    0.07495   0.80461   0.55593   0.00000  Uiso   1.00
Cl1008 Cl    0.02443   0.85544   0.51183   0.00000  Uiso   1.00
H1009  H     0.24851   0.77770   0.57456   0.00000  Uiso   1.00
H1010  H     0.23812   0.70226   0.75315   0.00000  Uiso   1.00
H1011  H     0.23714   0.71013   0.97212   0.00000  Uiso   1.00
H1012  H     0.25486   0.74356   0.92624   0.00000  Uiso   1.00
H1013  H     0.29144   0.71290   0.93788   0.00000  Uiso   1.00
H1014  H     0.30755   0.78615   0.96823   0.00000  Uiso   1.00
H1015  H     0.29019   0.75126   0.51013   0.00000  Uiso   1.00
H1016  H     0.14171   0.83903   0.57944   0.00000  Uiso   1.00
H1017  H     0.07492   0.87096   0.92534   0.00000  Uiso   1.00
H1018  H     0.22343   0.85556   0.89230   0.00000  Uiso   1.00
H1019  H     0.01477   0.86546   0.71573   0.00000  Uiso   1.00
H1020  H     0.26910   0.96829   0.73230   0.00000  Uiso   1.00
H1021  H     0.26456   0.97099   0.67505   0.00000  Uiso   1.00
H1022  H     0.29784   0.67719   0.69957   0.00000  Uiso   1.00
H1023  H     0.22905   0.70047   0.69810   0.00000  Uiso   1.00
O1024  O     0.16667   0.83333   0.75000   0.00000  Uiso   1.00
O1025  O     0.15451   0.79304   0.65459   0.00000  Uiso   1.00
O1026  O     0.12940   0.87058   0.84968   0.00000  Uiso   1.00
O1027  O     0.20824   0.84425   0.64606   0.00000  Uiso   1.00
O1028  O     0.17451   0.82546   0.84968   0.00000  Uiso   1.00
O1029  O     0.17930   0.74686   0.78214   0.00000  Uiso   1.00
O1030  O     0.14632   0.92751   0.77014   0.00000  Uiso   1.00
O1031  O     0.07412   0.79958   0.73413   0.00000  Uiso   1.00
O1032  O     0.26693   0.85939   0.71361   0.00000  Uiso   1.00
O1033  O     0.07071   0.85544   0.78213   0.00000  Uiso   1.00
O1034  O     0.25491   0.81892   0.77014   0.00000  Uiso   1.00
O1035  O     0.13760   0.73610   0.73413   0.00000  Uiso   1.00
O1036  O     0.20345   0.92286   0.71361   0.00000  Uiso   1.00
Zn1037 Zn    0.19338   0.80661   0.78734   0.00000  Uiso   1.00
Zn1038 Zn    0.13379   0.79124   0.71876   0.00000  Uiso   1.00
Zn1039 Zn    0.21056   0.86442   0.70657   0.00000  Uiso   1.00
Zn1040 Zn    0.12893   0.87106   0.78734   0.00000  Uiso   1.00
C1041  C     0.38648   0.82662   0.75913   0.00000  Uiso   1.00
C1042  C     0.50088   0.82293   0.55916   0.00000  Uiso   1.00
C1043  C     0.56311   0.79072   0.55658   0.00000  Uiso   1.00
C1044  C     0.61405   0.84042   0.74025   0.00000  Uiso   1.00
C1045  C     0.47099   0.85449   0.92044   0.00000  Uiso   1.00
C1046  C     0.65950   0.84401   0.73829   0.00000  Uiso   1.00
C1047  C     0.34134   0.82212   0.76373   0.00000  Uiso   1.00
C1048  C     0.51849   0.99043   0.74238   0.00000  Uiso   1.00
C1049  C     0.48472   0.67834   0.76093   0.00000  Uiso   1.00
C1050  C     0.48945   0.72262   0.75980   0.00000  Uiso   1.00
C1051  C     0.51103   0.94486   0.74120   0.00000  Uiso   1.00
C1052  C     0.41211   0.85048   0.98704   0.00000  Uiso   1.00
C1053  C     0.51865   0.81502   0.62935   0.00000  Uiso   1.00
C1054  C     0.48241   0.85162   0.87087   0.00000  Uiso   1.00
C1055  C     0.57586   0.79090   0.50967   0.00000  Uiso   1.00
C1056  C     0.52707   0.80836   0.58095   0.00000  Uiso   1.00
C1057  C     0.42918   0.86115   0.94309   0.00000  Uiso   1.00
C1058  C     0.56332   0.68109   0.72507   0.00000  Uiso   1.00
C1059  C     0.60070   0.98907   0.70696   0.00000  Uiso   1.00
C1060  C     0.61219   0.76614   0.98557   0.00000  Uiso   1.00
C1061  C     0.59790   0.73116   0.95345   0.00000  Uiso   1.00
C1062  C     0.43688   0.83309   0.50927   0.00000  Uiso   1.00
C1063  C     0.48176   0.83274   0.98959   0.00000  Uiso   1.00
C1064  C     0.49836   0.84318   0.94451   0.00000  Uiso   1.00
C1065  C     0.51050   0.82099   0.51220   0.00000  Uiso   1.00
C1066  C     0.55200   0.81122   0.98767   0.00000  Uiso   1.00
C1067  C     0.56833   0.82507   0.94395   0.00000  Uiso   1.00
C1068  C     0.54213   0.84230   0.92414   0.00000  Uiso   1.00
Cl1069 Cl    0.64474   0.78290   0.79873   0.00000  Uiso   1.00
Cl1070 Cl    0.43039   0.98878   0.77623   0.00000  Uiso   1.00
Cl1071 Cl    0.62280   0.82962   0.91451   0.00000  Uiso   1.00
Cl1072 Cl    0.40828   0.80461   0.55593   0.00000  Uiso   1.00
Cl1073 Cl    0.35776   0.85544   0.51183   0.00000  Uiso   1.00
H1074  H     0.58184   0.77770   0.57456   0.00000  Uiso   1.00
H1075  H     0.57146   0.70226   0.75315   0.00000  Uiso   1.00
H1076  H     0.57047   0.71013   0.97212   0.00000  Uiso   1.00
H1077  H     0.58819   0.74356   0.92624   0.00000  Uiso   1.00
H1078  H     0.62477   0.71290   0.93788   0.00000  Uiso   1.00
H1079  H     0.64088   0.78615   0.96823   0.00000  Uiso   1.00
H1080  H     0.62352   0.75126   0.51013   0.00000  Uiso   1.00
H1081  H     0.47504   0.83903   0.57944   0.00000  Uiso   1.00
H1082  H     0.40826   0.87096   0.92534   0.00000  Uiso   1.00
H1083  H     0.55676   0.85556   0.89230   0.00000  Uiso   1.00
H1084  H     0.34811   0.86546   0.71573   0.00000  Uiso   1.00
H1085  H     0.60243   0.96829   0.73230   0.00000  Uiso   1.00
H1086  H     0.59789   0.97099   0.67505   0.00000  Uiso   1.00
H1087  H     0.63117   0.67719   0.69957   0.00000  Uiso   1.00
H1088  H     0.56238   0.70047   0.69810   0.00000  Uiso   1.00
O1089  O     0.50000   0.83333   0.75000   0.00000  Uiso   1.00
O1090  O     0.48784   0.79304   0.65459   0.00000  Uiso   1.00
O1091  O     0.46274   0.87058   0.84968   0.00000  Uiso   1.00
O1092  O     0.54157   0.84425   0.64606   0.00000  Uiso   1.00
O1093  O     0.50785   0.82546   0.84968   0.00000  Uiso   1.00
O1094  O     0.51264   0.74686   0.78214   0.00000  Uiso   1.00
O1095  O     0.47965   0.92751   0.77014   0.00000  Uiso   1.00
O1096  O     0.40745   0.79958   0.73413   0.00000  Uiso   1.00
O1097  O     0.60026   0.85939   0.71361   0.00000  Uiso   1.00
O1098  O     0.40405   0.85544   0.78213   0.00000  Uiso   1.00
O1099  O     0.58824   0.81892   0.77014   0.00000  Uiso   1.00
O1100  O     0.47093   0.73610   0.73413   0.00000  Uiso   1.00
O1101  O     0.53678   0.92286   0.71361   0.00000  Uiso   1.00
Zn1102 Zn    0.52672   0.80661   0.78734   0.00000  Uiso   1.00
Zn1103 Zn    0.46713   0.79124   0.71876   0.00000  Uiso   1.00
Zn1104 Zn    0.54389   0.86442   0.70657   0.00000  Uiso   1.00
Zn1105 Zn    0.46226   0.87106   0.78734   0.00000  Uiso   1.00
C1106  C     0.71981   0.82662   0.75913   0.00000  Uiso   1.00
C1107  C     0.83421   0.82293   0.55916   0.00000  Uiso   1.00
C1108  C     0.89645   0.79072   0.55658   0.00000  Uiso   1.00
C1109  C     0.94738   0.84042   0.74025   0.00000  Uiso   1.00
C1110  C     0.80432   0.85449   0.92044   0.00000  Uiso   1.00
C1111  C     0.99284   0.84401   0.73829   0.00000  Uiso   1.00
C1112  C     0.67468   0.82212   0.76373   0.00000  Uiso   1.00
C1113  C     0.85182   0.99043   0.74238   0.00000  Uiso   1.00
C1114  C     0.81805   0.67834   0.76093   0.00000  Uiso   1.00
C1115  C     0.82279   0.72262   0.75980   0.00000  Uiso   1.00
C1116  C     0.84436   0.94486   0.74120   0.00000  Uiso   1.00
C1117  C     0.74545   0.85048   0.98704   0.00000  Uiso   1.00
C1118  C     0.85198   0.81502   0.62935   0.00000  Uiso   1.00
C1119  C     0.81575   0.85162   0.87087   0.00000  Uiso   1.00
C1120  C     0.90919   0.79090   0.50967   0.00000  Uiso   1.00
C1121  C     0.86041   0.80836   0.58095   0.00000  Uiso   1.00
C1122  C     0.76252   0.86115   0.94309   0.00000  Uiso   1.00
C1123  C     0.89666   0.68109   0.72507   0.00000  Uiso   1.00
C1124  C     0.93403   0.98907   0.70696   0.00000  Uiso   1.00
C1125  C     0.94552   0.76614   0.98557   0.00000  Uiso   1.00
C1126  C     0.93124   0.73116   0.95345   0.00000  Uiso   1.00
C1127  C     0.77021   0.83309   0.50927   0.00000  Uiso   1.00
C1128  C     0.81509   0.83274   0.98959   0.00000  Uiso   1.00
C1129  C     0.83169   0.84318   0.94451   0.00000  Uiso   1.00
C1130  C     0.84383   0.82099   0.51220   0.00000  Uiso   1.00
C1131  C     0.88533   0.81122   0.98767   0.00000  Uiso   1.00
C1132  C     0.90166   0.82507   0.94395   0.00000  Uiso   1.00
C1133  C     0.87546   0.84230   0.92414   0.00000  Uiso   1.00
Cl1134 Cl    0.97808   0.78290   0.79873   0.00000  Uiso   1.00
Cl1135 Cl    0.76373   0.98878   0.77623   0.00000  Uiso   1.00
Cl1136 Cl    0.95613   0.82962   0.91451   0.00000  Uiso   1.00
Cl1137 Cl    0.74162   0.80461   0.55593   0.00000  Uiso   1.00
Cl1138 Cl    0.69110   0.85544   0.51183   0.00000  Uiso   1.00
H1139  H     0.91518   0.77770   0.57456   0.00000  Uiso   1.00
H1140  H     0.90479   0.70226   0.75315   0.00000  Uiso   1.00
H1141  H     0.90380   0.71013   0.97212   0.00000  Uiso   1.00
H1142  H     0.92153   0.74356   0.92624   0.00000  Uiso   1.00
H1143  H     0.95810   0.71290   0.93788   0.00000  Uiso   1.00
H1144  H     0.97421   0.78615   0.96823   0.00000  Uiso   1.00
H1145  H     0.95686   0.75126   0.51013   0.00000  Uiso   1.00
H1146  H     0.80838   0.83903   0.57944   0.00000  Uiso   1.00
H1147  H     0.74159   0.87096   0.92534   0.00000  Uiso   1.00
H1148  H     0.89010   0.85556   0.89230   0.00000  Uiso   1.00
H1149  H     0.68144   0.86546   0.71573   0.00000  Uiso   1.00
H1150  H     0.93577   0.96829   0.73230   0.00000  Uiso   1.00
H1151  H     0.93123   0.97099   0.67505   0.00000  Uiso   1.00
H1152  H     0.96451   0.67719   0.69957   0.00000  Uiso   1.00
H1153  H     0.89572   0.70047   0.69810   0.00000  Uiso   1.00
O1154  O     0.83333   0.83333   0.75000   0.00000  Uiso   1.00
O1155  O     0.82118   0.79304   0.65459   0.00000  Uiso   1.00
O1156  O     0.79607   0.87058   0.84968   0.00000  Uiso   1.00
O1157  O     0.87491   0.84425   0.64606   0.00000  Uiso   1.00
O1158  O     0.84118   0.82546   0.84968   0.00000  Uiso   1.00
O1159  O     0.84597   0.74686   0.78214   0.00000  Uiso   1.00
O1160  O     0.81298   0.92751   0.77014   0.00000  Uiso   1.00
O1161  O     0.74078   0.79958   0.73413   0.00000  Uiso   1.00
O1162  O     0.93360   0.85939   0.71361   0.00000  Uiso   1.00
O1163  O     0.73738   0.85544   0.78213   0.00000  Uiso   1.00
O1164  O     0.92158   0.81892   0.77014   0.00000  Uiso   1.00
O1165  O     0.80426   0.73610   0.73413   0.00000  Uiso   1.00
O1166  O     0.87012   0.92286   0.71361   0.00000  Uiso   1.00
Zn1167 Zn    0.86005   0.80661   0.78734   0.00000  Uiso   1.00
Zn1168 Zn    0.80046   0.79124   0.71876   0.00000  Uiso   1.00
Zn1169 Zn    0.87723   0.86442   0.70657   0.00000  Uiso   1.00
Zn1170 Zn    0.79560   0.87106   0.78734   0.00000  Uiso   1.00
loop_
_geom_bond_atom_site_label_1
_geom_bond_atom_site_label_2
_geom_bond_distance
_geom_bond_site_symmetry_2
_ccdc_geom_bond_type
C1     O58     1.273   .     A
C1     O56     1.267   .     A
C1     C7      1.428   .     S
C2     C16     1.383   .     A
C2     C25     1.400   .     A
C2     H41     1.080   .     S
C3     C15     1.401   .     A
C3     H34     1.084   .     S
C3     C16     1.390   .     A
C4     O57     1.289   .     A
C4     O59     1.269   .     A
C4     C6      1.455   .     S
C5     C14     1.476   .     S
C5     C24     1.415   .     A
C5     C17     1.398   .     A
C6     C72     1.348   .     S
C6     H109    1.088   .     S
C7     C136    1.348   1_455 S
C7     Cl159   1.772   1_455 S
C8     C11     1.470   .     S
C8     C204    1.357   .     S
C8     C213    1.540   .     S
C9     C10     1.436   .     S
C9     C398    1.357   1_545 S
C9     Cl420   1.776   1_545 S
C10    O60     1.266   .     A
C10    O54     1.282   .     A
C11    O61     1.275   .     A
C11    O55     1.274   .     A
C12    C17     1.389   .     A
C12    C607    1.404   .     S
C12    Cl618   1.763   .     S
C13    O52     1.270   .     A
C13    O50     1.275   .     A
C13    C16     1.447   .     S
C14    O51     1.289   .     A
C14    O53     1.288   .     A
C15    C605    1.521   1_554 S
C15    C611    1.432   1_554 S
C17    H42     1.084   .     S
C18    H35     1.111   .     S
C18    H48     1.112   .     S
C18    C398    1.540   1_545 S
C18    C409    1.529   1_545 S
C19    H45     1.111   .     S
C19    H46     1.110   .     S
C19    C213    1.529   .     S
C19    H242    1.111   .     S
C20    C21     1.529   .     S
C20    H39     1.103   .     S
C20    C600    1.521   .     S
C20    H625    1.112   .     S
C21    H37     1.109   .     S
C21    H38     1.111   .     S
C21    H36     1.111   .     S
C22    Cl32    1.774   .     S
C22    C597    1.404   1_554 S
C22    C608    1.432   1_554 S
C23    C24     1.417   .     A
C23    C607    1.432   .     S
C23    C610    1.426   .     S
C24    C28     1.405   .     A
C25    C608    1.426   1_554 S
C25    C611    1.432   1_554 S
C26    C27     1.415   .     A
C26    C600    1.432   .     S
C26    C610    1.432   .     S
C27    Cl31    1.763   .     S
C27    C28     1.388   .     A
C28    H43     1.082   .     S
Cl29   C72     1.772   .     S
Cl30   C204    1.776   .     S
Cl33   C597    1.763   1_554 S
H40    C605    1.112   1_554 S
H44    C136    1.088   1_455 S
H47    C409    1.111   1_545 S
O49    Zn64    1.932   .     S
O49    Zn63    1.942   .     S
O49    Zn62    1.962   .     S
O49    Zn65    1.943   .     S
O50    Zn63    1.926   .     S
O51    Zn65    1.935   .     S
O52    Zn64    1.931   .     S
O53    Zn62    1.925   .     S
O54    Zn62    1.935   .     S
O55    Zn65    1.937   .     S
O56    Zn63    1.934   .     S
O57    Zn64    1.942   .     S
O58    Zn65    1.933   .     S
O59    Zn62    1.927   .     S
O60    Zn63    1.945   .     S
O61    Zn64    1.942   .     S
C66    O123    1.273   .     A
C66    O121    1.267   .     A
C66    C72     1.428   .     S
C67    C81     1.383   .     A
C67    C90     1.400   .     A
C67    H106    1.080   .     S
C68    C80     1.401   .     A
C68    H99     1.084   .     S
C68    C81     1.390   .     A
C69    O122    1.289   .     A
C69    O124    1.269   .     A
C69    C71     1.455   .     S
C70    C79     1.476   .     S
C70    C89     1.415   .     A
C70    C82     1.398   .     A
C71    C137    1.348   .     S
C71    H174    1.088   .     S
C73    C76     1.470   .     S
C73    C269    1.357   .     S
C73    C278    1.540   .     S
C74    C75     1.436   .     S
C74    C463    1.357   1_545 S
C74    Cl485   1.776   1_545 S
C75    O125    1.266   .     A
C75    O119    1.282   .     A
C76    O126    1.275   .     A
C76    O120    1.274   .     A
C77    C82     1.389   .     A
C77    C672    1.404   .     S
C77    Cl683   1.763   .     S
C78    O117    1.270   .     A
C78    O115    1.275   .     A
C78    C81     1.447   .     S
C79    O116    1.289   .     A
C79    O118    1.288   .     A
C80    C670    1.521   1_554 S
C80    C676    1.432   1_554 S
C82    H107    1.084   .     S
C83    H100    1.111   .     S
C83    H113    1.112   .     S
C83    C463    1.540   1_545 S
C83    C474    1.529   1_545 S
C84    H110    1.111   .     S
C84    H111    1.110   .     S
C84    C278    1.529   .     S
C84    H307    1.111   .     S
C85    C86     1.529   .     S
C85    H104    1.103   .     S
C85    C665    1.521   .     S
C85    H690    1.112   .     S
C86    H102    1.109   .     S
C86    H103    1.111   .     S
C86    H101    1.111   .     S
C87    Cl97    1.774   .     S
C87    C662    1.404   1_554 S
C87    C673    1.432   1_554 S
C88    C89     1.417   .     A
C88    C672    1.432   .     S
C88    C675    1.426   .     S
C89    C93     1.405   .     A
C90    C673    1.426   1_554 S
C90    C676    1.432   1_554 S
C91    C92     1.415   .     A
C91    C665    1.432   .     S
C91    C675    1.432   .     S
C92    Cl96    1.763   .     S
C92    C93     1.388   .     A
C93    H108    1.082   .     S
Cl94   C137    1.772   .     S
Cl95   C269    1.776   .     S
Cl98   C662    1.763   1_554 S
H105   C670    1.112   1_554 S
H112   C474    1.111   1_545 S
O114   Zn129   1.932   .     S
O114   Zn128   1.942   .     S
O114   Zn127   1.962   .     S
O114   Zn130   1.943   .     S
O115   Zn128   1.926   .     S
O116   Zn130   1.935   .     S
O117   Zn129   1.931   .     S
O118   Zn127   1.925   .     S
O119   Zn127   1.935   .     S
O120   Zn130   1.937   .     S
O121   Zn128   1.934   .     S
O122   Zn129   1.942   .     S
O123   Zn130   1.933   .     S
O124   Zn127   1.927   .     S
O125   Zn128   1.945   .     S
O126   Zn129   1.942   .     S
C131   O188    1.273   .     A
C131   O186    1.267   .     A
C131   C137    1.428   .     S
C132   C146    1.383   .     A
C132   C155    1.400   .     A
C132   H171    1.080   .     S
C133   C145    1.401   .     A
C133   H164    1.084   .     S
C133   C146    1.390   .     A
C134   O187    1.289   .     A
C134   O189    1.269   .     A
C134   C136    1.455   .     S
C135   C144    1.476   .     S
C135   C154    1.415   .     A
C135   C147    1.398   .     A
C136   C7      1.348   1_655 S
C136   H44     1.088   1_655 S
C138   C141    1.470   .     S
C138   C334    1.357   .     S
C138   C343    1.540   .     S
C139   C140    1.436   .     S
C139   C528    1.357   1_545 S
C139   Cl550   1.776   1_545 S
C140   O190    1.266   .     A
C140   O184    1.282   .     A
C141   O191    1.275   .     A
C141   O185    1.274   .     A
C142   C147    1.389   .     A
C142   C737    1.404   .     S
C142   Cl748   1.763   .     S
C143   O182    1.270   .     A
C143   O180    1.275   .     A
C143   C146    1.447   .     S
C144   O181    1.289   .     A
C144   O183    1.288   .     A
C145   C735    1.521   1_554 S
C145   C741    1.432   1_554 S
C147   H172    1.084   .     S
C148   H165    1.111   .     S
C148   H178    1.112   .     S
C148   C528    1.540   1_545 S
C148   C539    1.529   1_545 S
C149   H175    1.111   .     S
C149   H176    1.110   .     S
C149   C343    1.529   .     S
C149   H372    1.111   .     S
C150   C151    1.529   .     S
C150   H169    1.103   .     S
C150   C730    1.521   .     S
C150   H755    1.112   .     S
C151   H167    1.109   .     S
C151   H168    1.111   .     S
C151   H166    1.111   .     S
C152   Cl162   1.774   .     S
C152   C727    1.404   1_554 S
C152   C738    1.432   1_554 S
C153   C154    1.417   .     A
C153   C737    1.432   .     S
C153   C740    1.426   .     S
C154   C158    1.405   .     A
C155   C738    1.426   1_554 S
C155   C741    1.432   1_554 S
C156   C157    1.415   .     A
C156   C730    1.432   .     S
C156   C740    1.432   .     S
C157   Cl161   1.763   .     S
C157   C158    1.388   .     A
C158   H173    1.082   .     S
Cl159  C7      1.772   1_655 S
Cl160  C334    1.776   .     S
Cl163  C727    1.763   1_554 S
H170   C735    1.112   1_554 S
H177   C539    1.111   1_545 S
O179   Zn194   1.932   .     S
O179   Zn193   1.942   .     S
O179   Zn192   1.962   .     S
O179   Zn195   1.943   .     S
O180   Zn193   1.926   .     S
O181   Zn195   1.935   .     S
O182   Zn194   1.931   .     S
O183   Zn192   1.925   .     S
O184   Zn192   1.935   .     S
O185   Zn195   1.937   .     S
O186   Zn193   1.934   .     S
O187   Zn194   1.942   .     S
O188   Zn195   1.933   .     S
O189   Zn192   1.927   .     S
O190   Zn193   1.945   .     S
O191   Zn194   1.942   .     S
C196   O253    1.273   .     A
C196   O251    1.267   .     A
C196   C202    1.428   .     S
C197   C211    1.383   .     A
C197   C220    1.400   .     A
C197   H236    1.080   .     S
C198   C210    1.401   .     A
C198   H229    1.084   .     S
C198   C211    1.390   .     A
C199   O252    1.289   .     A
C199   O254    1.269   .     A
C199   C201    1.455   .     S
C200   C209    1.476   .     S
C200   C219    1.415   .     A
C200   C212    1.398   .     A
C201   C267    1.348   .     S
C201   H304    1.088   .     S
C202   C331    1.348   1_455 S
C202   Cl354   1.772   1_455 S
C203   C206    1.470   .     S
C203   C399    1.357   .     S
C203   C408    1.540   .     S
C204   C205    1.436   .     S
C205   O255    1.266   .     A
C205   O249    1.282   .     A
C206   O256    1.275   .     A
C206   O250    1.274   .     A
C207   C212    1.389   .     A
C207   C802    1.404   .     S
C207   Cl813   1.763   .     S
C208   O247    1.270   .     A
C208   O245    1.275   .     A
C208   C211    1.447   .     S
C209   O246    1.289   .     A
C209   O248    1.288   .     A
C210   C800    1.521   1_554 S
C210   C806    1.432   1_554 S
C212   H237    1.084   .     S
C213   H230    1.111   .     S
C213   H243    1.112   .     S
C214   H240    1.111   .     S
C214   H241    1.110   .     S
C214   C408    1.529   .     S
C214   H437    1.111   .     S
C215   C216    1.529   .     S
C215   H234    1.103   .     S
C215   C795    1.521   .     S
C215   H820    1.112   .     S
C216   H232    1.109   .     S
C216   H233    1.111   .     S
C216   H231    1.111   .     S
C217   Cl227   1.774   .     S
C217   C792    1.404   1_554 S
C217   C803    1.432   1_554 S
C218   C219    1.417   .     A
C218   C802    1.432   .     S
C218   C805    1.426   .     S
C219   C223    1.405   .     A
C220   C803    1.426   1_554 S
C220   C806    1.432   1_554 S
C221   C222    1.415   .     A
C221   C795    1.432   .     S
C221   C805    1.432   .     S
C222   Cl226   1.763   .     S
C222   C223    1.388   .     A
C223   H238    1.082   .     S
Cl224  C267    1.772   .     S
Cl225  C399    1.776   .     S
Cl228  C792    1.763   1_554 S
H235   C800    1.112   1_554 S
H239   C331    1.088   1_455 S
O244   Zn259   1.932   .     S
O244   Zn258   1.942   .     S
O244   Zn257   1.962   .     S
O244   Zn260   1.943   .     S
O245   Zn258   1.926   .     S
O246   Zn260   1.935   .     S
O247   Zn259   1.931   .     S
O248   Zn257   1.925   .     S
O249   Zn257   1.935   .     S
O250   Zn260   1.937   .     S
O251   Zn258   1.934   .     S
O252   Zn259   1.942   .     S
O253   Zn260   1.933   .     S
O254   Zn257   1.927   .     S
O255   Zn258   1.945   .     S
O256   Zn259   1.942   .     S
C261   O318    1.273   .     A
C261   O316    1.267   .     A
C261   C267    1.428   .     S
C262   C276    1.383   .     A
C262   C285    1.400   .     A
C262   H301    1.080   .     S
C263   C275    1.401   .     A
C263   H294    1.084   .     S
C263   C276    1.390   .     A
C264   O317    1.289   .     A
C264   O319    1.269   .     A
C264   C266    1.455   .     S
C265   C274    1.476   .     S
C265   C284    1.415   .     A
C265   C277    1.398   .     A
C266   C332    1.348   .     S
C266   H369    1.088   .     S
C268   C271    1.470   .     S
C268   C464    1.357   .     S
C268   C473    1.540   .     S
C269   C270    1.436   .     S
C270   O320    1.266   .     A
C270   O314    1.282   .     A
C271   O321    1.275   .     A
C271   O315    1.274   .     A
C272   C277    1.389   .     A
C272   C867    1.404   .     S
C272   Cl878   1.763   .     S
C273   O312    1.270   .     A
C273   O310    1.275   .     A
C273   C276    1.447   .     S
C274   O311    1.289   .     A
C274   O313    1.288   .     A
C275   C865    1.521   1_554 S
C275   C871    1.432   1_554 S
C277   H302    1.084   .     S
C278   H295    1.111   .     S
C278   H308    1.112   .     S
C279   H305    1.111   .     S
C279   H306    1.110   .     S
C279   C473    1.529   .     S
C279   H502    1.111   .     S
C280   C281    1.529   .     S
C280   H299    1.103   .     S
C280   C860    1.521   .     S
C280   H885    1.112   .     S
C281   H297    1.109   .     S
C281   H298    1.111   .     S
C281   H296    1.111   .     S
C282   Cl292   1.774   .     S
C282   C857    1.404   1_554 S
C282   C868    1.432   1_554 S
C283   C284    1.417   .     A
C283   C867    1.432   .     S
C283   C870    1.426   .     S
C284   C288    1.405   .     A
C285   C868    1.426   1_554 S
C285   C871    1.432   1_554 S
C286   C287    1.415   .     A
C286   C860    1.432   .     S
C286   C870    1.432   .     S
C287   Cl291   1.763   .     S
C287   C288    1.388   .     A
C288   H303    1.082   .     S
Cl289  C332    1.772   .     S
Cl290  C464    1.776   .     S
Cl293  C857    1.763   1_554 S
H300   C865    1.112   1_554 S
O309   Zn324   1.932   .     S
O309   Zn323   1.942   .     S
O309   Zn322   1.962   .     S
O309   Zn325   1.943   .     S
O310   Zn323   1.926   .     S
O311   Zn325   1.935   .     S
O312   Zn324   1.931   .     S
O313   Zn322   1.925   .     S
O314   Zn322   1.935   .     S
O315   Zn325   1.937   .     S
O316   Zn323   1.934   .     S
O317   Zn324   1.942   .     S
O318   Zn325   1.933   .     S
O319   Zn322   1.927   .     S
O320   Zn323   1.945   .     S
O321   Zn324   1.942   .     S
C326   O383    1.273   .     A
C326   O381    1.267   .     A
C326   C332    1.428   .     S
C327   C341    1.383   .     A
C327   C350    1.400   .     A
C327   H366    1.080   .     S
C328   C340    1.401   .     A
C328   H359    1.084   .     S
C328   C341    1.390   .     A
C329   O382    1.289   .     A
C329   O384    1.269   .     A
C329   C331    1.455   .     S
C330   C339    1.476   .     S
C330   C349    1.415   .     A
C330   C342    1.398   .     A
C331   C202    1.348   1_655 S
C331   H239    1.088   1_655 S
C333   C336    1.470   .     S
C333   C529    1.357   .     S
C333   C538    1.540   .     S
C334   C335    1.436   .     S
C335   O385    1.266   .     A
C335   O379    1.282   .     A
C336   O386    1.275   .     A
C336   O380    1.274   .     A
C337   C342    1.389   .     A
C337   C932    1.404   .     S
C337   Cl943   1.763   .     S
C338   O377    1.270   .     A
C338   O375    1.275   .     A
C338   C341    1.447   .     S
C339   O376    1.289   .     A
C339   O378    1.288   .     A
C340   C930    1.521   1_554 S
C340   C936    1.432   1_554 S
C342   H367    1.084   .     S
C343   H360    1.111   .     S
C343   H373    1.112   .     S
C344   H370    1.111   .     S
C344   H371    1.110   .     S
C344   C538    1.529   .     S
C344   H567    1.111   .     S
C345   C346    1.529   .     S
C345   H364    1.103   .     S
C345   C925    1.521   .     S
C345   H950    1.112   .     S
C346   H362    1.109   .     S
C346   H363    1.111   .     S
C346   H361    1.111   .     S
C347   Cl357   1.774   .     S
C347   C922    1.404   1_554 S
C347   C933    1.432   1_554 S
C348   C349    1.417   .     A
C348   C932    1.432   .     S
C348   C935    1.426   .     S
C349   C353    1.405   .     A
C350   C933    1.426   1_554 S
C350   C936    1.432   1_554 S
C351   C352    1.415   .     A
C351   C925    1.432   .     S
C351   C935    1.432   .     S
C352   Cl356   1.763   .     S
C352   C353    1.388   .     A
C353   H368    1.082   .     S
Cl354  C202    1.772   1_655 S
Cl355  C529    1.776   .     S
Cl358  C922    1.763   1_554 S
H365   C930    1.112   1_554 S
O374   Zn389   1.932   .     S
O374   Zn388   1.942   .     S
O374   Zn387   1.962   .     S
O374   Zn390   1.943   .     S
O375   Zn388   1.926   .     S
O376   Zn390   1.935   .     S
O377   Zn389   1.931   .     S
O378   Zn387   1.925   .     S
O379   Zn387   1.935   .     S
O380   Zn390   1.937   .     S
O381   Zn388   1.934   .     S
O382   Zn389   1.942   .     S
O383   Zn390   1.933   .     S
O384   Zn387   1.927   .     S
O385   Zn388   1.945   .     S
O386   Zn389   1.942   .     S
C391   O448    1.273   .     A
C391   O446    1.267   .     A
C391   C397    1.428   .     S
C392   C406    1.383   .     A
C392   C415    1.400   .     A
C392   H431    1.080   .     S
C393   C405    1.401   .     A
C393   H424    1.084   .     S
C393   C406    1.390   .     A
C394   O447    1.289   .     A
C394   O449    1.269   .     A
C394   C396    1.455   .     S
C395   C404    1.476   .     S
C395   C414    1.415   .     A
C395   C407    1.398   .     A
C396   C462    1.348   .     S
C396   H499    1.088   .     S
C397   C526    1.348   1_455 S
C397   Cl549   1.772   1_455 S
C398   C401    1.470   .     S
C398   C9      1.357   1_565 S
C398   C18     1.540   1_565 S
C399   C400    1.436   .     S
C400   O450    1.266   .     A
C400   O444    1.282   .     A
C401   O451    1.275   .     A
C401   O445    1.274   .     A
C402   C407    1.389   .     A
C402   C997    1.404   .     S
C402   Cl1008  1.763   .     S
C403   O442    1.270   .     A
C403   O440    1.275   .     A
C403   C406    1.447   .     S
C404   O441    1.289   .     A
C404   O443    1.288   .     A
C405   C995    1.521   1_554 S
C405   C1001   1.432   1_554 S
C407   H432    1.084   .     S
C408   H425    1.111   .     S
C408   H438    1.112   .     S
C409   H435    1.111   .     S
C409   H436    1.110   .     S
C409   C18     1.529   1_565 S
C409   H47     1.111   1_565 S
C410   C411    1.529   .     S
C410   H429    1.103   .     S
C410   C990    1.521   .     S
C410   H1015   1.112   .     S
C411   H427    1.109   .     S
C411   H428    1.111   .     S
C411   H426    1.111   .     S
C412   Cl422   1.774   .     S
C412   C987    1.404   1_554 S
C412   C998    1.432   1_554 S
C413   C414    1.417   .     A
C413   C997    1.432   .     S
C413   C1000   1.426   .     S
C414   C418    1.405   .     A
C415   C998    1.426   1_554 S
C415   C1001   1.432   1_554 S
C416   C417    1.415   .     A
C416   C990    1.432   .     S
C416   C1000   1.432   .     S
C417   Cl421   1.763   .     S
C417   C418    1.388   .     A
C418   H433    1.082   .     S
Cl419  C462    1.772   .     S
Cl420  C9      1.776   1_565 S
Cl423  C987    1.763   1_554 S
H430   C995    1.112   1_554 S
H434   C526    1.088   1_455 S
O439   Zn454   1.932   .     S
O439   Zn453   1.942   .     S
O439   Zn452   1.962   .     S
O439   Zn455   1.943   .     S
O440   Zn453   1.926   .     S
O441   Zn455   1.935   .     S
O442   Zn454   1.931   .     S
O443   Zn452   1.925   .     S
O444   Zn452   1.935   .     S
O445   Zn455   1.937   .     S
O446   Zn453   1.934   .     S
O447   Zn454   1.942   .     S
O448   Zn455   1.933   .     S
O449   Zn452   1.927   .     S
O450   Zn453   1.945   .     S
O451   Zn454   1.942   .     S
C456   O513    1.273   .     A
C456   O511    1.267   .     A
C456   C462    1.428   .     S
C457   C471    1.383   .     A
C457   C480    1.400   .     A
C457   H496    1.080   .     S
C458   C470    1.401   .     A
C458   H489    1.084   .     S
C458   C471    1.390   .     A
C459   O512    1.289   .     A
C459   O514    1.269   .     A
C459   C461    1.455   .     S
C460   C469    1.476   .     S
C460   C479    1.415   .     A
C460   C472    1.398   .     A
C461   C527    1.348   .     S
C461   H564    1.088   .     S
C463   C466    1.470   .     S
C463   C74     1.357   1_565 S
C463   C83     1.540   1_565 S
C464   C465    1.436   .     S
C465   O515    1.266   .     A
C465   O509    1.282   .     A
C466   O516    1.275   .     A
C466   O510    1.274   .     A
C467   C472    1.389   .     A
C467   C1062   1.404   .     S
C467   Cl1073  1.763   .     S
C468   O507    1.270   .     A
C468   O505    1.275   .     A
C468   C471    1.447   .     S
C469   O506    1.289   .     A
C469   O508    1.288   .     A
C470   C1060   1.521   1_554 S
C470   C1066   1.432   1_554 S
C472   H497    1.084   .     S
C473   H490    1.111   .     S
C473   H503    1.112   .     S
C474   H500    1.111   .     S
C474   H501    1.110   .     S
C474   C83     1.529   1_565 S
C474   H112    1.111   1_565 S
C475   C476    1.529   .     S
C475   H494    1.103   .     S
C475   C1055   1.521   .     S
C475   H1080   1.112   .     S
C476   H492    1.109   .     S
C476   H493    1.111   .     S
C476   H491    1.111   .     S
C477   Cl487   1.774   .     S
C477   C1052   1.404   1_554 S
C477   C1063   1.432   1_554 S
C478   C479    1.417   .     A
C478   C1062   1.432   .     S
C478   C1065   1.426   .     S
C479   C483    1.405   .     A
C480   C1063   1.426   1_554 S
C480   C1066   1.432   1_554 S
C481   C482    1.415   .     A
C481   C1055   1.432   .     S
C481   C1065   1.432   .     S
C482   Cl486   1.763   .     S
C482   C483    1.388   .     A
C483   H498    1.082   .     S
Cl484  C527    1.772   .     S
Cl485  C74     1.776   1_565 S
Cl488  C1052   1.763   1_554 S
H495   C1060   1.112   1_554 S
O504   Zn519   1.932   .     S
O504   Zn518   1.942   .     S
O504   Zn517   1.962   .     S
O504   Zn520   1.943   .     S
O505   Zn518   1.926   .     S
O506   Zn520   1.935   .     S
O507   Zn519   1.931   .     S
O508   Zn517   1.925   .     S
O509   Zn517   1.935   .     S
O510   Zn520   1.937   .     S
O511   Zn518   1.934   .     S
O512   Zn519   1.942   .     S
O513   Zn520   1.933   .     S
O514   Zn517   1.927   .     S
O515   Zn518   1.945   .     S
O516   Zn519   1.942   .     S
C521   O578    1.273   .     A
C521   O576    1.267   .     A
C521   C527    1.428   .     S
C522   C536    1.383   .     A
C522   C545    1.400   .     A
C522   H561    1.080   .     S
C523   C535    1.401   .     A
C523   H554    1.084   .     S
C523   C536    1.390   .     A
C524   O577    1.289   .     A
C524   O579    1.269   .     A
C524   C526    1.455   .     S
C525   C534    1.476   .     S
C525   C544    1.415   .     A
C525   C537    1.398   .     A
C526   C397    1.348   1_655 S
C526   H434    1.088   1_655 S
C528   C531    1.470   .     S
C528   C139    1.357   1_565 S
C528   C148    1.540   1_565 S
C529   C530    1.436   .     S
C530   O580    1.266   .     A
C530   O574    1.282   .     A
C531   O581    1.275   .     A
C531   O575    1.274   .     A
C532   C537    1.389   .     A
C532   C1127   1.404   .     S
C532   Cl1138  1.763   .     S
C533   O572    1.270   .     A
C533   O570    1.275   .     A
C533   C536    1.447   .     S
C534   O571    1.289   .     A
C534   O573    1.288   .     A
C535   C1125   1.521   1_554 S
C535   C1131   1.432   1_554 S
C537   H562    1.084   .     S
C538   H555    1.111   .     S
C538   H568    1.112   .     S
C539   H565    1.111   .     S
C539   H566    1.110   .     S
C539   C148    1.529   1_565 S
C539   H177    1.111   1_565 S
C540   C541    1.529   .     S
C540   H559    1.103   .     S
C540   C1120   1.521   .     S
C540   H1145   1.112   .     S
C541   H557    1.109   .     S
C541   H558    1.111   .     S
C541   H556    1.111   .     S
C542   Cl552   1.774   .     S
C542   C1117   1.404   1_554 S
C542   C1128   1.432   1_554 S
C543   C544    1.417   .     A
C543   C1127   1.432   .     S
C543   C1130   1.426   .     S
C544   C548    1.405   .     A
C545   C1128   1.426   1_554 S
C545   C1131   1.432   1_554 S
C546   C547    1.415   .     A
C546   C1120   1.432   .     S
C546   C1130   1.432   .     S
C547   Cl551   1.763   .     S
C547   C548    1.388   .     A
C548   H563    1.082   .     S
Cl549  C397    1.772   1_655 S
Cl550  C139    1.776   1_565 S
Cl553  C1117   1.763   1_554 S
H560   C1125   1.112   1_554 S
O569   Zn584   1.932   .     S
O569   Zn583   1.942   .     S
O569   Zn582   1.962   .     S
O569   Zn585   1.943   .     S
O570   Zn583   1.926   .     S
O571   Zn585   1.935   .     S
O572   Zn584   1.931   .     S
O573   Zn582   1.925   .     S
O574   Zn582   1.935   .     S
O575   Zn585   1.937   .     S
O576   Zn583   1.934   .     S
O577   Zn584   1.942   .     S
O578   Zn585   1.933   .     S
O579   Zn582   1.927   .     S
O580   Zn583   1.945   .     S
O581   Zn584   1.942   .     S
C586   O643    1.273   .     A
C586   O641    1.267   .     A
C586   C592    1.428   .     S
C587   C601    1.383   .     A
C587   C610    1.400   .     A
C587   H626    1.080   .     S
C588   C600    1.401   .     A
C588   H619    1.084   .     S
C588   C601    1.390   .     A
C589   O642    1.289   .     A
C589   O644    1.269   .     A
C589   C591    1.455   .     S
C590   C599    1.476   .     S
C590   C609    1.415   .     A
C590   C602    1.398   .     A
C591   C657    1.348   .     S
C591   H694    1.088   .     S
C592   C721    1.348   1_455 S
C592   Cl744   1.772   1_455 S
C593   C596    1.470   .     S
C593   C789    1.357   .     S
C593   C798    1.540   .     S
C594   C595    1.436   .     S
C594   C983    1.357   1_545 S
C594   Cl1005  1.776   1_545 S
C595   O645    1.266   .     A
C595   O639    1.282   .     A
C596   O646    1.275   .     A
C596   O640    1.274   .     A
C597   C602    1.389   .     A
C597   C22     1.404   1_556 S
C597   Cl33    1.763   1_556 S
C598   O637    1.270   .     A
C598   O635    1.275   .     A
C598   C601    1.447   .     S
C599   O636    1.289   .     A
C599   O638    1.288   .     A
C602   H627    1.084   .     S
C603   H620    1.111   .     S
C603   H633    1.112   .     S
C603   C983    1.540   1_545 S
C603   C994    1.529   1_545 S
C604   H630    1.111   .     S
C604   H631    1.110   .     S
C604   C798    1.529   .     S
C604   H827    1.111   .     S
C605   C606    1.529   .     S
C605   H624    1.103   .     S
C605   C15     1.521   1_556 S
C605   H40     1.112   1_556 S
C606   H622    1.109   .     S
C606   H623    1.111   .     S
C606   H621    1.111   .     S
C607   Cl617   1.774   .     S
C608   C609    1.417   .     A
C608   C22     1.432   1_556 S
C608   C25     1.426   1_556 S
C609   C613    1.405   .     A
C611   C612    1.415   .     A
C611   C15     1.432   1_556 S
C611   C25     1.432   1_556 S
C612   Cl616   1.763   .     S
C612   C613    1.388   .     A
C613   H628    1.082   .     S
Cl614  C657    1.772   .     S
Cl615  C789    1.776   .     S
H629   C721    1.088   1_455 S
H632   C994    1.111   1_545 S
O634   Zn649   1.932   .     S
O634   Zn648   1.942   .     S
O634   Zn647   1.962   .     S
O634   Zn650   1.943   .     S
O635   Zn648   1.926   .     S
O636   Zn650   1.935   .     S
O637   Zn649   1.931   .     S
O638   Zn647   1.925   .     S
O639   Zn647   1.935   .     S
O640   Zn650   1.937   .     S
O641   Zn648   1.934   .     S
O642   Zn649   1.942   .     S
O643   Zn650   1.933   .     S
O644   Zn647   1.927   .     S
O645   Zn648   1.945   .     S
O646   Zn649   1.942   .     S
C651   O708    1.273   .     A
C651   O706    1.267   .     A
C651   C657    1.428   .     S
C652   C666    1.383   .     A
C652   C675    1.400   .     A
C652   H691    1.080   .     S
C653   C665    1.401   .     A
C653   H684    1.084   .     S
C653   C666    1.390   .     A
C654   O707    1.289   .     A
C654   O709    1.269   .     A
C654   C656    1.455   .     S
C655   C664    1.476   .     S
C655   C674    1.415   .     A
C655   C667    1.398   .     A
C656   C722    1.348   .     S
C656   H759    1.088   .     S
C658   C661    1.470   .     S
C658   C854    1.357   .     S
C658   C863    1.540   .     S
C659   C660    1.436   .     S
C659   C1048   1.357   1_545 S
C659   Cl1070  1.776   1_545 S
C660   O710    1.266   .     A
C660   O704    1.282   .     A
C661   O711    1.275   .     A
C661   O705    1.274   .     A
C662   C667    1.389   .     A
C662   C87     1.404   1_556 S
C662   Cl98    1.763   1_556 S
C663   O702    1.270   .     A
C663   O700    1.275   .     A
C663   C666    1.447   .     S
C664   O701    1.289   .     A
C664   O703    1.288   .     A
C667   H692    1.084   .     S
C668   H685    1.111   .     S
C668   H698    1.112   .     S
C668   C1048   1.540   1_545 S
C668   C1059   1.529   1_545 S
C669   H695    1.111   .     S
C669   H696    1.110   .     S
C669   C863    1.529   .     S
C669   H892    1.111   .     S
C670   C671    1.529   .     S
C670   H689    1.103   .     S
C670   C80     1.521   1_556 S
C670   H105    1.112   1_556 S
C671   H687    1.109   .     S
C671   H688    1.111   .     S
C671   H686    1.111   .     S
C672   Cl682   1.774   .     S
C673   C674    1.417   .     A
C673   C87     1.432   1_556 S
C673   C90     1.426   1_556 S
C674   C678    1.405   .     A
C676   C677    1.415   .     A
C676   C80     1.432   1_556 S
C676   C90     1.432   1_556 S
C677   Cl681   1.763   .     S
C677   C678    1.388   .     A
C678   H693    1.082   .     S
Cl679  C722    1.772   .     S
Cl680  C854    1.776   .     S
H697   C1059   1.111   1_545 S
O699   Zn714   1.932   .     S
O699   Zn713   1.942   .     S
O699   Zn712   1.962   .     S
O699   Zn715   1.943   .     S
O700   Zn713   1.926   .     S
O701   Zn715   1.935   .     S
O702   Zn714   1.931   .     S
O703   Zn712   1.925   .     S
O704   Zn712   1.935   .     S
O705   Zn715   1.937   .     S
O706   Zn713   1.934   .     S
O707   Zn714   1.942   .     S
O708   Zn715   1.933   .     S
O709   Zn712   1.927   .     S
O710   Zn713   1.945   .     S
O711   Zn714   1.942   .     S
C716   O773    1.273   .     A
C716   O771    1.267   .     A
C716   C722    1.428   .     S
C717   C731    1.383   .     A
C717   C740    1.400   .     A
C717   H756    1.080   .     S
C718   C730    1.401   .     A
C718   H749    1.084   .     S
C718   C731    1.390   .     A
C719   O772    1.289   .     A
C719   O774    1.269   .     A
C719   C721    1.455   .     S
C720   C729    1.476   .     S
C720   C739    1.415   .     A
C720   C732    1.398   .     A
C721   C592    1.348   1_655 S
C721   H629    1.088   1_655 S
C723   C726    1.470   .     S
C723   C919    1.357   .     S
C723   C928    1.540   .     S
C724   C725    1.436   .     S
C724   C1113   1.357   1_545 S
C724   Cl1135  1.776   1_545 S
C725   O775    1.266   .     A
C725   O769    1.282   .     A
C726   O776    1.275   .     A
C726   O770    1.274   .     A
C727   C732    1.389   .     A
C727   C152    1.404   1_556 S
C727   Cl163   1.763   1_556 S
C728   O767    1.270   .     A
C728   O765    1.275   .     A
C728   C731    1.447   .     S
C729   O766    1.289   .     A
C729   O768    1.288   .     A
C732   H757    1.084   .     S
C733   H750    1.111   .     S
C733   H763    1.112   .     S
C733   C1113   1.540   1_545 S
C733   C1124   1.529   1_545 S
C734   H760    1.111   .     S
C734   H761    1.110   .     S
C734   C928    1.529   .     S
C734   H957    1.111   .     S
C735   C736    1.529   .     S
C735   H754    1.103   .     S
C735   C145    1.521   1_556 S
C735   H170    1.112   1_556 S
C736   H752    1.109   .     S
C736   H753    1.111   .     S
C736   H751    1.111   .     S
C737   Cl747   1.774   .     S
C738   C739    1.417   .     A
C738   C152    1.432   1_556 S
C738   C155    1.426   1_556 S
C739   C743    1.405   .     A
C741   C742    1.415   .     A
C741   C145    1.432   1_556 S
C741   C155    1.432   1_556 S
C742   Cl746   1.763   .     S
C742   C743    1.388   .     A
C743   H758    1.082   .     S
Cl744  C592    1.772   1_655 S
Cl745  C919    1.776   .     S
H762   C1124   1.111   1_545 S
O764   Zn779   1.932   .     S
O764   Zn778   1.942   .     S
O764   Zn777   1.962   .     S
O764   Zn780   1.943   .     S
O765   Zn778   1.926   .     S
O766   Zn780   1.935   .     S
O767   Zn779   1.931   .     S
O768   Zn777   1.925   .     S
O769   Zn777   1.935   .     S
O770   Zn780   1.937   .     S
O771   Zn778   1.934   .     S
O772   Zn779   1.942   .     S
O773   Zn780   1.933   .     S
O774   Zn777   1.927   .     S
O775   Zn778   1.945   .     S
O776   Zn779   1.942   .     S
C781   O838    1.273   .     A
C781   O836    1.267   .     A
C781   C787    1.428   .     S
C782   C796    1.383   .     A
C782   C805    1.400   .     A
C782   H821    1.080   .     S
C783   C795    1.401   .     A
C783   H814    1.084   .     S
C783   C796    1.390   .     A
C784   O837    1.289   .     A
C784   O839    1.269   .     A
C784   C786    1.455   .     S
C785   C794    1.476   .     S
C785   C804    1.415   .     A
C785   C797    1.398   .     A
C786   C852    1.348   .     S
C786   H889    1.088   .     S
C787   C916    1.348   1_455 S
C787   Cl939   1.772   1_455 S
C788   C791    1.470   .     S
C788   C984    1.357   .     S
C788   C993    1.540   .     S
C789   C790    1.436   .     S
C790   O840    1.266   .     A
C790   O834    1.282   .     A
C791   O841    1.275   .     A
C791   O835    1.274   .     A
C792   C797    1.389   .     A
C792   C217    1.404   1_556 S
C792   Cl228   1.763   1_556 S
C793   O832    1.270   .     A
C793   O830    1.275   .     A
C793   C796    1.447   .     S
C794   O831    1.289   .     A
C794   O833    1.288   .     A
C797   H822    1.084   .     S
C798   H815    1.111   .     S
C798   H828    1.112   .     S
C799   H825    1.111   .     S
C799   H826    1.110   .     S
C799   C993    1.529   .     S
C799   H1022   1.111   .     S
C800   C801    1.529   .     S
C800   H819    1.103   .     S
C800   C210    1.521   1_556 S
C800   H235    1.112   1_556 S
C801   H817    1.109   .     S
C801   H818    1.111   .     S
C801   H816    1.111   .     S
C802   Cl812   1.774   .     S
C803   C804    1.417   .     A
C803   C217    1.432   1_556 S
C803   C220    1.426   1_556 S
C804   C808    1.405   .     A
C806   C807    1.415   .     A
C806   C210    1.432   1_556 S
C806   C220    1.432   1_556 S
C807   Cl811   1.763   .     S
C807   C808    1.388   .     A
C808   H823    1.082   .     S
Cl809  C852    1.772   .     S
Cl810  C984    1.776   .     S
H824   C916    1.088   1_455 S
O829   Zn844   1.932   .     S
O829   Zn843   1.942   .     S
O829   Zn842   1.962   .     S
O829   Zn845   1.943   .     S
O830   Zn843   1.926   .     S
O831   Zn845   1.935   .     S
O832   Zn844   1.931   .     S
O833   Zn842   1.925   .     S
O834   Zn842   1.935   .     S
O835   Zn845   1.937   .     S
O836   Zn843   1.934   .     S
O837   Zn844   1.942   .     S
O838   Zn845   1.933   .     S
O839   Zn842   1.927   .     S
O840   Zn843   1.945   .     S
O841   Zn844   1.942   .     S
C846   O903    1.273   .     A
C846   O901    1.267   .     A
C846   C852    1.428   .     S
C847   C861    1.383   .     A
C847   C870    1.400   .     A
C847   H886    1.080   .     S
C848   C860    1.401   .     A
C848   H879    1.084   .     S
C848   C861    1.390   .     A
C849   O902    1.289   .     A
C849   O904    1.269   .     A
C849   C851    1.455   .     S
C850   C859    1.476   .     S
C850   C869    1.415   .     A
C850   C862    1.398   .     A
C851   C917    1.348   .     S
C851   H954    1.088   .     S
C853   C856    1.470   .     S
C853   C1049   1.357   .     S
C853   C1058   1.540   .     S
C854   C855    1.436   .     S
C855   O905    1.266   .     A
C855   O899    1.282   .     A
C856   O906    1.275   .     A
C856   O900    1.274   .     A
C857   C862    1.389   .     A
C857   C282    1.404   1_556 S
C857   Cl293   1.763   1_556 S
C858   O897    1.270   .     A
C858   O895    1.275   .     A
C858   C861    1.447   .     S
C859   O896    1.289   .     A
C859   O898    1.288   .     A
C862   H887    1.084   .     S
C863   H880    1.111   .     S
C863   H893    1.112   .     S
C864   H890    1.111   .     S
C864   H891    1.110   .     S
C864   C1058   1.529   .     S
C864   H1087   1.111   .     S
C865   C866    1.529   .     S
C865   H884    1.103   .     S
C865   C275    1.521   1_556 S
C865   H300    1.112   1_556 S
C866   H882    1.109   .     S
C866   H883    1.111   .     S
C866   H881    1.111   .     S
C867   Cl877   1.774   .     S
C868   C869    1.417   .     A
C868   C282    1.432   1_556 S
C868   C285    1.426   1_556 S
C869   C873    1.405   .     A
C871   C872    1.415   .     A
C871   C275    1.432   1_556 S
C871   C285    1.432   1_556 S
C872   Cl876   1.763   .     S
C872   C873    1.388   .     A
C873   H888    1.082   .     S
Cl874  C917    1.772   .     S
Cl875  C1049   1.776   .     S
O894   Zn909   1.932   .     S
O894   Zn908   1.942   .     S
O894   Zn907   1.962   .     S
O894   Zn910   1.943   .     S
O895   Zn908   1.926   .     S
O896   Zn910   1.935   .     S
O897   Zn909   1.931   .     S
O898   Zn907   1.925   .     S
O899   Zn907   1.935   .     S
O900   Zn910   1.937   .     S
O901   Zn908   1.934   .     S
O902   Zn909   1.942   .     S
O903   Zn910   1.933   .     S
O904   Zn907   1.927   .     S
O905   Zn908   1.945   .     S
O906   Zn909   1.942   .     S
C911   O968    1.273   .     A
C911   O966    1.267   .     A
C911   C917    1.428   .     S
C912   C926    1.383   .     A
C912   C935    1.400   .     A
C912   H951    1.080   .     S
C913   C925    1.401   .     A
C913   H944    1.084   .     S
C913   C926    1.390   .     A
C914   O967    1.289   .     A
C914   O969    1.269   .     A
C914   C916    1.455   .     S
C915   C924    1.476   .     S
C915   C934    1.415   .     A
C915   C927    1.398   .     A
C916   C787    1.348   1_655 S
C916   H824    1.088   1_655 S
C918   C921    1.470   .     S
C918   C1114   1.357   .     S
C918   C1123   1.540   .     S
C919   C920    1.436   .     S
C920   O970    1.266   .     A
C920   O964    1.282   .     A
C921   O971    1.275   .     A
C921   O965    1.274   .     A
C922   C927    1.389   .     A
C922   C347    1.404   1_556 S
C922   Cl358   1.763   1_556 S
C923   O962    1.270   .     A
C923   O960    1.275   .     A
C923   C926    1.447   .     S
C924   O961    1.289   .     A
C924   O963    1.288   .     A
C927   H952    1.084   .     S
C928   H945    1.111   .     S
C928   H958    1.112   .     S
C929   H955    1.111   .     S
C929   H956    1.110   .     S
C929   C1123   1.529   .     S
C929   H1152   1.111   .     S
C930   C931    1.529   .     S
C930   H949    1.103   .     S
C930   C340    1.521   1_556 S
C930   H365    1.112   1_556 S
C931   H947    1.109   .     S
C931   H948    1.111   .     S
C931   H946    1.111   .     S
C932   Cl942   1.774   .     S
C933   C934    1.417   .     A
C933   C347    1.432   1_556 S
C933   C350    1.426   1_556 S
C934   C938    1.405   .     A
C936   C937    1.415   .     A
C936   C340    1.432   1_556 S
C936   C350    1.432   1_556 S
C937   Cl941   1.763   .     S
C937   C938    1.388   .     A
C938   H953    1.082   .     S
Cl939  C787    1.772   1_655 S
Cl940  C1114   1.776   .     S
O959   Zn974   1.932   .     S
O959   Zn973   1.942   .     S
O959   Zn972   1.962   .     S
O959   Zn975   1.943   .     S
O960   Zn973   1.926   .     S
O961   Zn975   1.935   .     S
O962   Zn974   1.931   .     S
O963   Zn972   1.925   .     S
O964   Zn972   1.935   .     S
O965   Zn975   1.937   .     S
O966   Zn973   1.934   .     S
O967   Zn974   1.942   .     S
O968   Zn975   1.933   .     S
O969   Zn972   1.927   .     S
O970   Zn973   1.945   .     S
O971   Zn974   1.942   .     S
C976   O1033   1.273   .     A
C976   O1031   1.267   .     A
C976   C982    1.428   .     S
C977   C991    1.383   .     A
C977   C1000   1.400   .     A
C977   H1016   1.080   .     S
C978   C990    1.401   .     A
C978   H1009   1.084   .     S
C978   C991    1.390   .     A
C979   O1032   1.289   .     A
C979   O1034   1.269   .     A
C979   C981    1.455   .     S
C980   C989    1.476   .     S
C980   C999    1.415   .     A
C980   C992    1.398   .     A
C981   C1047   1.348   .     S
C981   H1084   1.088   .     S
C982   C1111   1.348   1_455 S
C982   Cl1134  1.772   1_455 S
C983   C986    1.470   .     S
C983   C594    1.357   1_565 S
C983   C603    1.540   1_565 S
C984   C985    1.436   .     S
C985   O1035   1.266   .     A
C985   O1029   1.282   .     A
C986   O1036   1.275   .     A
C986   O1030   1.274   .     A
C987   C992    1.389   .     A
C987   C412    1.404   1_556 S
C987   Cl423   1.763   1_556 S
C988   O1027   1.270   .     A
C988   O1025   1.275   .     A
C988   C991    1.447   .     S
C989   O1026   1.289   .     A
C989   O1028   1.288   .     A
C992   H1017   1.084   .     S
C993   H1010   1.111   .     S
C993   H1023   1.112   .     S
C994   H1020   1.111   .     S
C994   H1021   1.110   .     S
C994   C603    1.529   1_565 S
C994   H632    1.111   1_565 S
C995   C996    1.529   .     S
C995   H1014   1.103   .     S
C995   C405    1.521   1_556 S
C995   H430    1.112   1_556 S
C996   H1012   1.109   .     S
C996   H1013   1.111   .     S
C996   H1011   1.111   .     S
C997   Cl1007  1.774   .     S
C998   C999    1.417   .     A
C998   C412    1.432   1_556 S
C998   C415    1.426   1_556 S
C999   C1003   1.405   .     A
C1001  C1002   1.415   .     A
C1001  C405    1.432   1_556 S
C1001  C415    1.432   1_556 S
C1002  Cl1006  1.763   .     S
C1002  C1003   1.388   .     A
C1003  H1018   1.082   .     S
Cl1004 C1047   1.772   .     S
Cl1005 C594    1.776   1_565 S
H1019  C1111   1.088   1_455 S
O1024  Zn1039  1.932   .     S
O1024  Zn1038  1.942   .     S
O1024  Zn1037  1.962   .     S
O1024  Zn1040  1.943   .     S
O1025  Zn1038  1.926   .     S
O1026  Zn1040  1.935   .     S
O1027  Zn1039  1.931   .     S
O1028  Zn1037  1.925   .     S
O1029  Zn1037  1.935   .     S
O1030  Zn1040  1.937   .     S
O1031  Zn1038  1.934   .     S
O1032  Zn1039  1.942   .     S
O1033  Zn1040  1.933   .     S
O1034  Zn1037  1.927   .     S
O1035  Zn1038  1.945   .     S
O1036  Zn1039  1.942   .     S
C1041  O1098   1.273   .     A
C1041  O1096   1.267   .     A
C1041  C1047   1.428   .     S
C1042  C1056   1.383   .     A
C1042  C1065   1.400   .     A
C1042  H1081   1.080   .     S
C1043  C1055   1.401   .     A
C1043  H1074   1.084   .     S
C1043  C1056   1.390   .     A
C1044  O1097   1.289   .     A
C1044  O1099   1.269   .     A
C1044  C1046   1.455   .     S
C1045  C1054   1.476   .     S
C1045  C1064   1.415   .     A
C1045  C1057   1.398   .     A
C1046  C1112   1.348   .     S
C1046  H1149   1.088   .     S
C1048  C1051   1.470   .     S
C1048  C659    1.357   1_565 S
C1048  C668    1.540   1_565 S
C1049  C1050   1.436   .     S
C1050  O1100   1.266   .     A
C1050  O1094   1.282   .     A
C1051  O1101   1.275   .     A
C1051  O1095   1.274   .     A
C1052  C1057   1.389   .     A
C1052  C477    1.404   1_556 S
C1052  Cl488   1.763   1_556 S
C1053  O1092   1.270   .     A
C1053  O1090   1.275   .     A
C1053  C1056   1.447   .     S
C1054  O1091   1.289   .     A
C1054  O1093   1.288   .     A
C1057  H1082   1.084   .     S
C1058  H1075   1.111   .     S
C1058  H1088   1.112   .     S
C1059  H1085   1.111   .     S
C1059  H1086   1.110   .     S
C1059  C668    1.529   1_565 S
C1059  H697    1.111   1_565 S
C1060  C1061   1.529   .     S
C1060  H1079   1.103   .     S
C1060  C470    1.521   1_556 S
C1060  H495    1.112   1_556 S
C1061  H1077   1.109   .     S
C1061  H1078   1.111   .     S
C1061  H1076   1.111   .     S
C1062  Cl1072  1.774   .     S
C1063  C1064   1.417   .     A
C1063  C477    1.432   1_556 S
C1063  C480    1.426   1_556 S
C1064  C1068   1.405   .     A
C1066  C1067   1.415   .     A
C1066  C470    1.432   1_556 S
C1066  C480    1.432   1_556 S
C1067  Cl1071  1.763   .     S
C1067  C1068   1.388   .     A
C1068  H1083   1.082   .     S
Cl1069 C1112   1.772   .     S
Cl1070 C659    1.776   1_565 S
O1089  Zn1104  1.932   .     S
O1089  Zn1103  1.942   .     S
O1089  Zn1102  1.962   .     S
O1089  Zn1105  1.943   .     S
O1090  Zn1103  1.926   .     S
O1091  Zn1105  1.935   .     S
O1092  Zn1104  1.931   .     S
O1093  Zn1102  1.925   .     S
O1094  Zn1102  1.935   .     S
O1095  Zn1105  1.937   .     S
O1096  Zn1103  1.934   .     S
O1097  Zn1104  1.942   .     S
O1098  Zn1105  1.933   .     S
O1099  Zn1102  1.927   .     S
O1100  Zn1103  1.945   .     S
O1101  Zn1104  1.942   .     S
C1106  O1163   1.273   .     A
C1106  O1161   1.267   .     A
C1106  C1112   1.428   .     S
C1107  C1121   1.383   .     A
C1107  C1130   1.400   .     A
C1107  H1146   1.080   .     S
C1108  C1120   1.401   .     A
C1108  H1139   1.084   .     S
C1108  C1121   1.390   .     A
C1109  O1162   1.289   .     A
C1109  O1164   1.269   .     A
C1109  C1111   1.455   .     S
C1110  C1119   1.476   .     S
C1110  C1129   1.415   .     A
C1110  C1122   1.398   .     A
C1111  C982    1.348   1_655 S
C1111  H1019   1.088   1_655 S
C1113  C1116   1.470   .     S
C1113  C724    1.357   1_565 S
C1113  C733    1.540   1_565 S
C1114  C1115   1.436   .     S
C1115  O1165   1.266   .     A
C1115  O1159   1.282   .     A
C1116  O1166   1.275   .     A
C1116  O1160   1.274   .     A
C1117  C1122   1.389   .     A
C1117  C542    1.404   1_556 S
C1117  Cl553   1.763   1_556 S
C1118  O1157   1.270   .     A
C1118  O1155   1.275   .     A
C1118  C1121   1.447   .     S
C1119  O1156   1.289   .     A
C1119  O1158   1.288   .     A
C1122  H1147   1.084   .     S
C1123  H1140   1.111   .     S
C1123  H1153   1.112   .     S
C1124  H1150   1.111   .     S
C1124  H1151   1.110   .     S
C1124  C733    1.529   1_565 S
C1124  H762    1.111   1_565 S
C1125  C1126   1.529   .     S
C1125  H1144   1.103   .     S
C1125  C535    1.521   1_556 S
C1125  H560    1.112   1_556 S
C1126  H1142   1.109   .     S
C1126  H1143   1.111   .     S
C1126  H1141   1.111   .     S
C1127  Cl1137  1.774   .     S
C1128  C1129   1.417   .     A
C1128  C542    1.432   1_556 S
C1128  C545    1.426   1_556 S
C1129  C1133   1.405   .     A
C1131  C1132   1.415   .     A
C1131  C535    1.432   1_556 S
C1131  C545    1.432   1_556 S
C1132  Cl1136  1.763   .     S
C1132  C1133   1.388   .     A
C1133  H1148   1.082   .     S
Cl1134 C982    1.772   1_655 S
Cl1135 C724    1.776   1_565 S
O1154  Zn1169  1.932   .     S
O1154  Zn1168  1.942   .     S
O1154  Zn1167  1.962   .     S
O1154  Zn1170  1.943   .     S
O1155  Zn1168  1.926   .     S
O1156  Zn1170  1.935   .     S
O1157  Zn1169  1.931   .     S
O1158  Zn1167  1.925   .     S
O1159  Zn1167  1.935   .     S
O1160  Zn1170  1.937   .     S
O1161  Zn1168  1.934   .     S
O1162  Zn1169  1.942   .     S
O1163  Zn1170  1.933   .     S
O1164  Zn1167  1.927   .     S
O1165  Zn1168  1.945   .     S
O1166  Zn1169  1.942   .     S
