data_str_m1_o10_o16_pcu_sym.84
_audit_creation_date              2020-01-03
_audit_creation_method            'Materials Studio'
_symmetry_space_group_name_H-M    'P1'
_symmetry_Int_Tables_number       1
_symmetry_cell_setting            triclinic
loop_
_symmetry_equiv_pos_as_xyz
  x,y,z
_cell_length_a                    32.6190
_cell_length_b                    32.5415
_cell_length_c                    30.9583
_cell_angle_alpha                 96.1728
_cell_angle_beta                  74.0349
_cell_angle_gamma                 98.7253
loop_
_atom_site_label
_atom_site_type_symbol
_atom_site_fract_x
_atom_site_fract_y
_atom_site_fract_z
_atom_site_U_iso_or_equiv
_atom_site_adp_type
_atom_site_occupancy
C1     C     0.05264   0.15931   0.26073   0.00000  Uiso   1.00
C2     C     0.16705   0.15266   0.05869   0.00000  Uiso   1.00
C3     C     0.23847   0.13648   0.05511   0.00000  Uiso   1.00
C4     C     0.28108   0.17385   0.23945   0.00000  Uiso   1.00
C5     C     0.13892   0.19093   0.42028   0.00000  Uiso   1.00
C6     C     0.32756   0.17662   0.23345   0.00000  Uiso   1.00
C7     C     0.00780   0.15851   0.26323   0.00000  Uiso   1.00
C8     C     0.18090   0.32264   0.23617   0.00000  Uiso   1.00
C9     C     0.15213   0.01173   0.26376   0.00000  Uiso   1.00
C10    C     0.15636   0.05588   0.26002   0.00000  Uiso   1.00
C11    C     0.17675   0.27803   0.24003   0.00000  Uiso   1.00
C12    C     0.08135   0.18994   0.48908   0.00000  Uiso   1.00
C13    C     0.18581   0.14839   0.12911   0.00000  Uiso   1.00
C14    C     0.14900   0.18519   0.37086   0.00000  Uiso   1.00
C15    C     0.25148   0.14421   0.00947   0.00000  Uiso   1.00
C16    C     0.19628   0.14240   0.08005   0.00000  Uiso   1.00
C17    C     0.09627   0.19567   0.44344   0.00000  Uiso   1.00
C18    C     0.26949   0.12365   0.07681   0.00000  Uiso   1.00
C19    C     0.02367   0.19913   0.19462   0.00000  Uiso   1.00
C20    C     0.10818   0.17800   0.01208   0.00000  Uiso   1.00
C21    C     0.15193   0.17430   0.49038   0.00000  Uiso   1.00
C22    C     0.16825   0.18423   0.44444   0.00000  Uiso   1.00
C23    C     0.18000   0.16120   0.01281   0.00000  Uiso   1.00
C24    C     0.22337   0.15807   0.48887   0.00000  Uiso   1.00
C25    C     0.23952   0.17182   0.44564   0.00000  Uiso   1.00
C26    C     0.21323   0.18724   0.42451   0.00000  Uiso   1.00
H27    H     0.31853   0.14321   0.29139   0.00000  Uiso   1.00
H28    H     0.25919   0.11552   0.11159   0.00000  Uiso   1.00
H29    H     0.01031   0.21113   0.17078   0.00000  Uiso   1.00
H30    H     0.20756   0.00401   0.21072   0.00000  Uiso   1.00
H31    H     0.12511   0.33107   0.28926   0.00000  Uiso   1.00
H32    H     0.27360   0.17313   0.42922   0.00000  Uiso   1.00
H33    H     0.28429   0.14124   0.49030   0.00000  Uiso   1.00
H34    H     0.13557   0.15714   0.07986   0.00000  Uiso   1.00
H35    H     0.07356   0.20138   0.42567   0.00000  Uiso   1.00
H36    H     0.09344   0.17181   0.04677   0.00000  Uiso   1.00
H37    H     0.04805   0.19269   0.00631   0.00000  Uiso   1.00
I38    I     0.24733   0.22430   0.36963   0.00000  Uiso   1.00
O39    O     0.16667   0.16667   0.25000   0.00000  Uiso   1.00
O40    O     0.15451   0.12637   0.15459   0.00000  Uiso   1.00
O41    O     0.12940   0.20391   0.34968   0.00000  Uiso   1.00
O42    O     0.20824   0.17759   0.14606   0.00000  Uiso   1.00
O43    O     0.17451   0.15880   0.34968   0.00000  Uiso   1.00
O44    O     0.30694   0.12176   0.05605   0.00000  Uiso   1.00
O45    O     0.06264   0.20485   0.18863   0.00000  Uiso   1.00
O46    O     0.17930   0.08019   0.28214   0.00000  Uiso   1.00
O47    O     0.14632   0.26085   0.27014   0.00000  Uiso   1.00
O48    O     0.07412   0.13291   0.23413   0.00000  Uiso   1.00
O49    O     0.26693   0.19272   0.21361   0.00000  Uiso   1.00
O50    O     0.07071   0.18878   0.28213   0.00000  Uiso   1.00
O51    O     0.25491   0.15226   0.27014   0.00000  Uiso   1.00
O52    O     0.13760   0.06944   0.23413   0.00000  Uiso   1.00
O53    O     0.20345   0.25620   0.21361   0.00000  Uiso   1.00
Zn54   Zn    0.19338   0.13994   0.28734   0.00000  Uiso   1.00
Zn55   Zn    0.13379   0.12458   0.21876   0.00000  Uiso   1.00
Zn56   Zn    0.21056   0.19775   0.20657   0.00000  Uiso   1.00
Zn57   Zn    0.12893   0.20439   0.28734   0.00000  Uiso   1.00
C58    C     0.38597   0.15931   0.26073   0.00000  Uiso   1.00
C59    C     0.50039   0.15266   0.05869   0.00000  Uiso   1.00
C60    C     0.57181   0.13648   0.05511   0.00000  Uiso   1.00
C61    C     0.61442   0.17385   0.23945   0.00000  Uiso   1.00
C62    C     0.47225   0.19093   0.42028   0.00000  Uiso   1.00
C63    C     0.66089   0.17662   0.23345   0.00000  Uiso   1.00
C64    C     0.34113   0.15851   0.26323   0.00000  Uiso   1.00
C65    C     0.51424   0.32264   0.23617   0.00000  Uiso   1.00
C66    C     0.48547   0.01173   0.26376   0.00000  Uiso   1.00
C67    C     0.48970   0.05588   0.26002   0.00000  Uiso   1.00
C68    C     0.51008   0.27803   0.24003   0.00000  Uiso   1.00
C69    C     0.41468   0.18994   0.48908   0.00000  Uiso   1.00
C70    C     0.51914   0.14839   0.12911   0.00000  Uiso   1.00
C71    C     0.48233   0.18519   0.37086   0.00000  Uiso   1.00
C72    C     0.58482   0.14421   0.00947   0.00000  Uiso   1.00
C73    C     0.52961   0.14240   0.08005   0.00000  Uiso   1.00
C74    C     0.42960   0.19567   0.44344   0.00000  Uiso   1.00
C75    C     0.60282   0.12365   0.07681   0.00000  Uiso   1.00
C76    C     0.35700   0.19913   0.19462   0.00000  Uiso   1.00
C77    C     0.44151   0.17800   0.01208   0.00000  Uiso   1.00
C78    C     0.48527   0.17430   0.49038   0.00000  Uiso   1.00
C79    C     0.50158   0.18423   0.44444   0.00000  Uiso   1.00
C80    C     0.51334   0.16120   0.01281   0.00000  Uiso   1.00
C81    C     0.55670   0.15807   0.48887   0.00000  Uiso   1.00
C82    C     0.57285   0.17182   0.44564   0.00000  Uiso   1.00
C83    C     0.54657   0.18724   0.42451   0.00000  Uiso   1.00
H84    H     0.65186   0.14321   0.29139   0.00000  Uiso   1.00
H85    H     0.59252   0.11552   0.11159   0.00000  Uiso   1.00
H86    H     0.34365   0.21113   0.17078   0.00000  Uiso   1.00
H87    H     0.54089   0.00401   0.21072   0.00000  Uiso   1.00
H88    H     0.45845   0.33107   0.28926   0.00000  Uiso   1.00
H89    H     0.60694   0.17313   0.42922   0.00000  Uiso   1.00
H90    H     0.61763   0.14124   0.49030   0.00000  Uiso   1.00
H91    H     0.46891   0.15714   0.07986   0.00000  Uiso   1.00
H92    H     0.40689   0.20138   0.42567   0.00000  Uiso   1.00
H93    H     0.42677   0.17181   0.04677   0.00000  Uiso   1.00
H94    H     0.38138   0.19269   0.00631   0.00000  Uiso   1.00
I95    I     0.58066   0.22430   0.36963   0.00000  Uiso   1.00
O96    O     0.50000   0.16667   0.25000   0.00000  Uiso   1.00
O97    O     0.48784   0.12637   0.15459   0.00000  Uiso   1.00
O98    O     0.46274   0.20391   0.34968   0.00000  Uiso   1.00
O99    O     0.54157   0.17759   0.14606   0.00000  Uiso   1.00
O100   O     0.50785   0.15880   0.34968   0.00000  Uiso   1.00
O101   O     0.64028   0.12176   0.05605   0.00000  Uiso   1.00
O102   O     0.39597   0.20485   0.18863   0.00000  Uiso   1.00
O103   O     0.51264   0.08019   0.28214   0.00000  Uiso   1.00
O104   O     0.47965   0.26085   0.27014   0.00000  Uiso   1.00
O105   O     0.40745   0.13291   0.23413   0.00000  Uiso   1.00
O106   O     0.60026   0.19272   0.21361   0.00000  Uiso   1.00
O107   O     0.40405   0.18878   0.28213   0.00000  Uiso   1.00
O108   O     0.58824   0.15226   0.27014   0.00000  Uiso   1.00
O109   O     0.47093   0.06944   0.23413   0.00000  Uiso   1.00
O110   O     0.53678   0.25620   0.21361   0.00000  Uiso   1.00
Zn111  Zn    0.52672   0.13994   0.28734   0.00000  Uiso   1.00
Zn112  Zn    0.46713   0.12458   0.21876   0.00000  Uiso   1.00
Zn113  Zn    0.54389   0.19775   0.20657   0.00000  Uiso   1.00
Zn114  Zn    0.46226   0.20439   0.28734   0.00000  Uiso   1.00
C115   C     0.71931   0.15931   0.26073   0.00000  Uiso   1.00
C116   C     0.83372   0.15266   0.05869   0.00000  Uiso   1.00
C117   C     0.90514   0.13648   0.05511   0.00000  Uiso   1.00
C118   C     0.94775   0.17385   0.23945   0.00000  Uiso   1.00
C119   C     0.80558   0.19093   0.42028   0.00000  Uiso   1.00
C120   C     0.99423   0.17662   0.23345   0.00000  Uiso   1.00
C121   C     0.67447   0.15851   0.26323   0.00000  Uiso   1.00
C122   C     0.84757   0.32264   0.23617   0.00000  Uiso   1.00
C123   C     0.81880   0.01173   0.26376   0.00000  Uiso   1.00
C124   C     0.82303   0.05588   0.26002   0.00000  Uiso   1.00
C125   C     0.84341   0.27803   0.24003   0.00000  Uiso   1.00
C126   C     0.74802   0.18994   0.48908   0.00000  Uiso   1.00
C127   C     0.85247   0.14839   0.12911   0.00000  Uiso   1.00
C128   C     0.81566   0.18519   0.37086   0.00000  Uiso   1.00
C129   C     0.91815   0.14421   0.00947   0.00000  Uiso   1.00
C130   C     0.86294   0.14240   0.08005   0.00000  Uiso   1.00
C131   C     0.76293   0.19567   0.44344   0.00000  Uiso   1.00
C132   C     0.93615   0.12365   0.07681   0.00000  Uiso   1.00
C133   C     0.69034   0.19913   0.19462   0.00000  Uiso   1.00
C134   C     0.77485   0.17800   0.01208   0.00000  Uiso   1.00
C135   C     0.81860   0.17430   0.49038   0.00000  Uiso   1.00
C136   C     0.83492   0.18423   0.44444   0.00000  Uiso   1.00
C137   C     0.84667   0.16120   0.01281   0.00000  Uiso   1.00
C138   C     0.89004   0.15807   0.48887   0.00000  Uiso   1.00
C139   C     0.90618   0.17182   0.44564   0.00000  Uiso   1.00
C140   C     0.87990   0.18724   0.42451   0.00000  Uiso   1.00
H141   H     0.98519   0.14321   0.29139   0.00000  Uiso   1.00
H142   H     0.92585   0.11552   0.11159   0.00000  Uiso   1.00
H143   H     0.67698   0.21113   0.17078   0.00000  Uiso   1.00
H144   H     0.87422   0.00401   0.21072   0.00000  Uiso   1.00
H145   H     0.79178   0.33107   0.28926   0.00000  Uiso   1.00
H146   H     0.94027   0.17313   0.42922   0.00000  Uiso   1.00
H147   H     0.95096   0.14124   0.49030   0.00000  Uiso   1.00
H148   H     0.80224   0.15714   0.07986   0.00000  Uiso   1.00
H149   H     0.74022   0.20138   0.42567   0.00000  Uiso   1.00
H150   H     0.76010   0.17181   0.04677   0.00000  Uiso   1.00
H151   H     0.71471   0.19269   0.00631   0.00000  Uiso   1.00
I152   I     0.91400   0.22430   0.36963   0.00000  Uiso   1.00
O153   O     0.83333   0.16667   0.25000   0.00000  Uiso   1.00
O154   O     0.82118   0.12637   0.15459   0.00000  Uiso   1.00
O155   O     0.79607   0.20391   0.34968   0.00000  Uiso   1.00
O156   O     0.87491   0.17759   0.14606   0.00000  Uiso   1.00
O157   O     0.84118   0.15880   0.34968   0.00000  Uiso   1.00
O158   O     0.97361   0.12176   0.05605   0.00000  Uiso   1.00
O159   O     0.72930   0.20485   0.18863   0.00000  Uiso   1.00
O160   O     0.84597   0.08019   0.28214   0.00000  Uiso   1.00
O161   O     0.81298   0.26085   0.27014   0.00000  Uiso   1.00
O162   O     0.74078   0.13291   0.23413   0.00000  Uiso   1.00
O163   O     0.93360   0.19272   0.21361   0.00000  Uiso   1.00
O164   O     0.73738   0.18878   0.28213   0.00000  Uiso   1.00
O165   O     0.92158   0.15226   0.27014   0.00000  Uiso   1.00
O166   O     0.80426   0.06944   0.23413   0.00000  Uiso   1.00
O167   O     0.87012   0.25620   0.21361   0.00000  Uiso   1.00
Zn168  Zn    0.86005   0.13994   0.28734   0.00000  Uiso   1.00
Zn169  Zn    0.80046   0.12458   0.21876   0.00000  Uiso   1.00
Zn170  Zn    0.87723   0.19775   0.20657   0.00000  Uiso   1.00
Zn171  Zn    0.79560   0.20439   0.28734   0.00000  Uiso   1.00
C172   C     0.05264   0.49264   0.26073   0.00000  Uiso   1.00
C173   C     0.16705   0.48599   0.05869   0.00000  Uiso   1.00
C174   C     0.23847   0.46982   0.05511   0.00000  Uiso   1.00
C175   C     0.28108   0.50718   0.23945   0.00000  Uiso   1.00
C176   C     0.13892   0.52426   0.42028   0.00000  Uiso   1.00
C177   C     0.32756   0.50995   0.23345   0.00000  Uiso   1.00
C178   C     0.00780   0.49184   0.26323   0.00000  Uiso   1.00
C179   C     0.18090   0.65598   0.23617   0.00000  Uiso   1.00
C180   C     0.15213   0.34507   0.26376   0.00000  Uiso   1.00
C181   C     0.15636   0.38922   0.26002   0.00000  Uiso   1.00
C182   C     0.17675   0.61136   0.24003   0.00000  Uiso   1.00
C183   C     0.08135   0.52327   0.48908   0.00000  Uiso   1.00
C184   C     0.18581   0.48172   0.12911   0.00000  Uiso   1.00
C185   C     0.14900   0.51852   0.37086   0.00000  Uiso   1.00
C186   C     0.25148   0.47754   0.00947   0.00000  Uiso   1.00
C187   C     0.19628   0.47573   0.08005   0.00000  Uiso   1.00
C188   C     0.09627   0.52900   0.44344   0.00000  Uiso   1.00
C189   C     0.26949   0.45698   0.07681   0.00000  Uiso   1.00
C190   C     0.02367   0.53246   0.19462   0.00000  Uiso   1.00
C191   C     0.10818   0.51133   0.01208   0.00000  Uiso   1.00
C192   C     0.15193   0.50763   0.49038   0.00000  Uiso   1.00
C193   C     0.16825   0.51756   0.44444   0.00000  Uiso   1.00
C194   C     0.18000   0.49453   0.01281   0.00000  Uiso   1.00
C195   C     0.22337   0.49141   0.48887   0.00000  Uiso   1.00
C196   C     0.23952   0.50516   0.44564   0.00000  Uiso   1.00
C197   C     0.21323   0.52058   0.42451   0.00000  Uiso   1.00
H198   H     0.31853   0.47654   0.29139   0.00000  Uiso   1.00
H199   H     0.25919   0.44886   0.11159   0.00000  Uiso   1.00
H200   H     0.01031   0.54446   0.17078   0.00000  Uiso   1.00
H201   H     0.20756   0.33734   0.21072   0.00000  Uiso   1.00
H202   H     0.12511   0.66440   0.28926   0.00000  Uiso   1.00
H203   H     0.27360   0.50646   0.42922   0.00000  Uiso   1.00
H204   H     0.28429   0.47458   0.49030   0.00000  Uiso   1.00
H205   H     0.13557   0.49048   0.07986   0.00000  Uiso   1.00
H206   H     0.07356   0.53471   0.42567   0.00000  Uiso   1.00
H207   H     0.09344   0.50515   0.04677   0.00000  Uiso   1.00
H208   H     0.04805   0.52602   0.00631   0.00000  Uiso   1.00
I209   I     0.24733   0.55763   0.36963   0.00000  Uiso   1.00
O210   O     0.16667   0.50000   0.25000   0.00000  Uiso   1.00
O211   O     0.15451   0.45970   0.15459   0.00000  Uiso   1.00
O212   O     0.12940   0.53724   0.34968   0.00000  Uiso   1.00
O213   O     0.20824   0.51092   0.14606   0.00000  Uiso   1.00
O214   O     0.17451   0.49213   0.34968   0.00000  Uiso   1.00
O215   O     0.30694   0.45509   0.05605   0.00000  Uiso   1.00
O216   O     0.06264   0.53818   0.18863   0.00000  Uiso   1.00
O217   O     0.17930   0.41352   0.28214   0.00000  Uiso   1.00
O218   O     0.14632   0.59418   0.27014   0.00000  Uiso   1.00
O219   O     0.07412   0.46625   0.23413   0.00000  Uiso   1.00
O220   O     0.26693   0.52605   0.21361   0.00000  Uiso   1.00
O221   O     0.07071   0.52211   0.28213   0.00000  Uiso   1.00
O222   O     0.25491   0.48559   0.27014   0.00000  Uiso   1.00
O223   O     0.13760   0.40277   0.23413   0.00000  Uiso   1.00
O224   O     0.20345   0.58953   0.21361   0.00000  Uiso   1.00
Zn225  Zn    0.19338   0.47327   0.28734   0.00000  Uiso   1.00
Zn226  Zn    0.13379   0.45791   0.21876   0.00000  Uiso   1.00
Zn227  Zn    0.21056   0.53109   0.20657   0.00000  Uiso   1.00
Zn228  Zn    0.12893   0.53773   0.28734   0.00000  Uiso   1.00
C229   C     0.38597   0.49264   0.26073   0.00000  Uiso   1.00
C230   C     0.50039   0.48599   0.05869   0.00000  Uiso   1.00
C231   C     0.57181   0.46982   0.05511   0.00000  Uiso   1.00
C232   C     0.61442   0.50718   0.23945   0.00000  Uiso   1.00
C233   C     0.47225   0.52426   0.42028   0.00000  Uiso   1.00
C234   C     0.66089   0.50995   0.23345   0.00000  Uiso   1.00
C235   C     0.34113   0.49184   0.26323   0.00000  Uiso   1.00
C236   C     0.51424   0.65598   0.23617   0.00000  Uiso   1.00
C237   C     0.48547   0.34507   0.26376   0.00000  Uiso   1.00
C238   C     0.48970   0.38922   0.26002   0.00000  Uiso   1.00
C239   C     0.51008   0.61136   0.24003   0.00000  Uiso   1.00
C240   C     0.41468   0.52327   0.48908   0.00000  Uiso   1.00
C241   C     0.51914   0.48172   0.12911   0.00000  Uiso   1.00
C242   C     0.48233   0.51852   0.37086   0.00000  Uiso   1.00
C243   C     0.58482   0.47754   0.00947   0.00000  Uiso   1.00
C244   C     0.52961   0.47573   0.08005   0.00000  Uiso   1.00
C245   C     0.42960   0.52900   0.44344   0.00000  Uiso   1.00
C246   C     0.60282   0.45698   0.07681   0.00000  Uiso   1.00
C247   C     0.35700   0.53246   0.19462   0.00000  Uiso   1.00
C248   C     0.44151   0.51133   0.01208   0.00000  Uiso   1.00
C249   C     0.48527   0.50763   0.49038   0.00000  Uiso   1.00
C250   C     0.50158   0.51756   0.44444   0.00000  Uiso   1.00
C251   C     0.51334   0.49453   0.01281   0.00000  Uiso   1.00
C252   C     0.55670   0.49141   0.48887   0.00000  Uiso   1.00
C253   C     0.57285   0.50516   0.44564   0.00000  Uiso   1.00
C254   C     0.54657   0.52058   0.42451   0.00000  Uiso   1.00
H255   H     0.65186   0.47654   0.29139   0.00000  Uiso   1.00
H256   H     0.59252   0.44886   0.11159   0.00000  Uiso   1.00
H257   H     0.34365   0.54446   0.17078   0.00000  Uiso   1.00
H258   H     0.54089   0.33734   0.21072   0.00000  Uiso   1.00
H259   H     0.45845   0.66440   0.28926   0.00000  Uiso   1.00
H260   H     0.60694   0.50646   0.42922   0.00000  Uiso   1.00
H261   H     0.61763   0.47458   0.49030   0.00000  Uiso   1.00
H262   H     0.46891   0.49048   0.07986   0.00000  Uiso   1.00
H263   H     0.40689   0.53471   0.42567   0.00000  Uiso   1.00
H264   H     0.42677   0.50515   0.04677   0.00000  Uiso   1.00
H265   H     0.38138   0.52602   0.00631   0.00000  Uiso   1.00
I266   I     0.58066   0.55763   0.36963   0.00000  Uiso   1.00
O267   O     0.50000   0.50000   0.25000   0.00000  Uiso   1.00
O268   O     0.48784   0.45970   0.15459   0.00000  Uiso   1.00
O269   O     0.46274   0.53724   0.34968   0.00000  Uiso   1.00
O270   O     0.54157   0.51092   0.14606   0.00000  Uiso   1.00
O271   O     0.50785   0.49213   0.34968   0.00000  Uiso   1.00
O272   O     0.64028   0.45509   0.05605   0.00000  Uiso   1.00
O273   O     0.39597   0.53818   0.18863   0.00000  Uiso   1.00
O274   O     0.51264   0.41352   0.28214   0.00000  Uiso   1.00
O275   O     0.47965   0.59418   0.27014   0.00000  Uiso   1.00
O276   O     0.40745   0.46625   0.23413   0.00000  Uiso   1.00
O277   O     0.60026   0.52605   0.21361   0.00000  Uiso   1.00
O278   O     0.40405   0.52211   0.28213   0.00000  Uiso   1.00
O279   O     0.58824   0.48559   0.27014   0.00000  Uiso   1.00
O280   O     0.47093   0.40277   0.23413   0.00000  Uiso   1.00
O281   O     0.53678   0.58953   0.21361   0.00000  Uiso   1.00
Zn282  Zn    0.52672   0.47327   0.28734   0.00000  Uiso   1.00
Zn283  Zn    0.46713   0.45791   0.21876   0.00000  Uiso   1.00
Zn284  Zn    0.54389   0.53109   0.20657   0.00000  Uiso   1.00
Zn285  Zn    0.46226   0.53773   0.28734   0.00000  Uiso   1.00
C286   C     0.71931   0.49264   0.26073   0.00000  Uiso   1.00
C287   C     0.83372   0.48599   0.05869   0.00000  Uiso   1.00
C288   C     0.90514   0.46982   0.05511   0.00000  Uiso   1.00
C289   C     0.94775   0.50718   0.23945   0.00000  Uiso   1.00
C290   C     0.80558   0.52426   0.42028   0.00000  Uiso   1.00
C291   C     0.99423   0.50995   0.23345   0.00000  Uiso   1.00
C292   C     0.67447   0.49184   0.26323   0.00000  Uiso   1.00
C293   C     0.84757   0.65598   0.23617   0.00000  Uiso   1.00
C294   C     0.81880   0.34507   0.26376   0.00000  Uiso   1.00
C295   C     0.82303   0.38922   0.26002   0.00000  Uiso   1.00
C296   C     0.84341   0.61136   0.24003   0.00000  Uiso   1.00
C297   C     0.74802   0.52327   0.48908   0.00000  Uiso   1.00
C298   C     0.85247   0.48172   0.12911   0.00000  Uiso   1.00
C299   C     0.81566   0.51852   0.37086   0.00000  Uiso   1.00
C300   C     0.91815   0.47754   0.00947   0.00000  Uiso   1.00
C301   C     0.86294   0.47573   0.08005   0.00000  Uiso   1.00
C302   C     0.76293   0.52900   0.44344   0.00000  Uiso   1.00
C303   C     0.93615   0.45698   0.07681   0.00000  Uiso   1.00
C304   C     0.69034   0.53246   0.19462   0.00000  Uiso   1.00
C305   C     0.77485   0.51133   0.01208   0.00000  Uiso   1.00
C306   C     0.81860   0.50763   0.49038   0.00000  Uiso   1.00
C307   C     0.83492   0.51756   0.44444   0.00000  Uiso   1.00
C308   C     0.84667   0.49453   0.01281   0.00000  Uiso   1.00
C309   C     0.89004   0.49141   0.48887   0.00000  Uiso   1.00
C310   C     0.90618   0.50516   0.44564   0.00000  Uiso   1.00
C311   C     0.87990   0.52058   0.42451   0.00000  Uiso   1.00
H312   H     0.98519   0.47654   0.29139   0.00000  Uiso   1.00
H313   H     0.92585   0.44886   0.11159   0.00000  Uiso   1.00
H314   H     0.67698   0.54446   0.17078   0.00000  Uiso   1.00
H315   H     0.87422   0.33734   0.21072   0.00000  Uiso   1.00
H316   H     0.79178   0.66440   0.28926   0.00000  Uiso   1.00
H317   H     0.94027   0.50646   0.42922   0.00000  Uiso   1.00
H318   H     0.95096   0.47458   0.49030   0.00000  Uiso   1.00
H319   H     0.80224   0.49048   0.07986   0.00000  Uiso   1.00
H320   H     0.74022   0.53471   0.42567   0.00000  Uiso   1.00
H321   H     0.76010   0.50515   0.04677   0.00000  Uiso   1.00
H322   H     0.71471   0.52602   0.00631   0.00000  Uiso   1.00
I323   I     0.91400   0.55763   0.36963   0.00000  Uiso   1.00
O324   O     0.83333   0.50000   0.25000   0.00000  Uiso   1.00
O325   O     0.82118   0.45970   0.15459   0.00000  Uiso   1.00
O326   O     0.79607   0.53724   0.34968   0.00000  Uiso   1.00
O327   O     0.87491   0.51092   0.14606   0.00000  Uiso   1.00
O328   O     0.84118   0.49213   0.34968   0.00000  Uiso   1.00
O329   O     0.97361   0.45509   0.05605   0.00000  Uiso   1.00
O330   O     0.72930   0.53818   0.18863   0.00000  Uiso   1.00
O331   O     0.84597   0.41352   0.28214   0.00000  Uiso   1.00
O332   O     0.81298   0.59418   0.27014   0.00000  Uiso   1.00
O333   O     0.74078   0.46625   0.23413   0.00000  Uiso   1.00
O334   O     0.93360   0.52605   0.21361   0.00000  Uiso   1.00
O335   O     0.73738   0.52211   0.28213   0.00000  Uiso   1.00
O336   O     0.92158   0.48559   0.27014   0.00000  Uiso   1.00
O337   O     0.80426   0.40277   0.23413   0.00000  Uiso   1.00
O338   O     0.87012   0.58953   0.21361   0.00000  Uiso   1.00
Zn339  Zn    0.86005   0.47327   0.28734   0.00000  Uiso   1.00
Zn340  Zn    0.80046   0.45791   0.21876   0.00000  Uiso   1.00
Zn341  Zn    0.87723   0.53109   0.20657   0.00000  Uiso   1.00
Zn342  Zn    0.79560   0.53773   0.28734   0.00000  Uiso   1.00
C343   C     0.05264   0.82597   0.26073   0.00000  Uiso   1.00
C344   C     0.16705   0.81933   0.05869   0.00000  Uiso   1.00
C345   C     0.23847   0.80315   0.05511   0.00000  Uiso   1.00
C346   C     0.28108   0.84052   0.23945   0.00000  Uiso   1.00
C347   C     0.13892   0.85759   0.42028   0.00000  Uiso   1.00
C348   C     0.32756   0.84328   0.23345   0.00000  Uiso   1.00
C349   C     0.00780   0.82518   0.26323   0.00000  Uiso   1.00
C350   C     0.18090   0.98931   0.23617   0.00000  Uiso   1.00
C351   C     0.15213   0.67840   0.26376   0.00000  Uiso   1.00
C352   C     0.15636   0.72255   0.26002   0.00000  Uiso   1.00
C353   C     0.17675   0.94469   0.24003   0.00000  Uiso   1.00
C354   C     0.08135   0.85661   0.48908   0.00000  Uiso   1.00
C355   C     0.18581   0.81506   0.12911   0.00000  Uiso   1.00
C356   C     0.14900   0.85186   0.37086   0.00000  Uiso   1.00
C357   C     0.25148   0.81087   0.00947   0.00000  Uiso   1.00
C358   C     0.19628   0.80906   0.08005   0.00000  Uiso   1.00
C359   C     0.09627   0.86234   0.44344   0.00000  Uiso   1.00
C360   C     0.26949   0.79032   0.07681   0.00000  Uiso   1.00
C361   C     0.02367   0.86580   0.19462   0.00000  Uiso   1.00
C362   C     0.10818   0.84466   0.01208   0.00000  Uiso   1.00
C363   C     0.15193   0.84097   0.49038   0.00000  Uiso   1.00
C364   C     0.16825   0.85090   0.44444   0.00000  Uiso   1.00
C365   C     0.18000   0.82787   0.01281   0.00000  Uiso   1.00
C366   C     0.22337   0.82474   0.48887   0.00000  Uiso   1.00
C367   C     0.23952   0.83849   0.44564   0.00000  Uiso   1.00
C368   C     0.21323   0.85391   0.42451   0.00000  Uiso   1.00
H369   H     0.31853   0.80987   0.29139   0.00000  Uiso   1.00
H370   H     0.25919   0.78219   0.11159   0.00000  Uiso   1.00
H371   H     0.01031   0.87779   0.17078   0.00000  Uiso   1.00
H372   H     0.20756   0.67068   0.21072   0.00000  Uiso   1.00
H373   H     0.12511   0.99774   0.28926   0.00000  Uiso   1.00
H374   H     0.27360   0.83980   0.42922   0.00000  Uiso   1.00
H375   H     0.28429   0.80791   0.49030   0.00000  Uiso   1.00
H376   H     0.13557   0.82381   0.07986   0.00000  Uiso   1.00
H377   H     0.07356   0.86805   0.42567   0.00000  Uiso   1.00
H378   H     0.09344   0.83848   0.04677   0.00000  Uiso   1.00
H379   H     0.04805   0.85936   0.00631   0.00000  Uiso   1.00
I380   I     0.24733   0.89097   0.36963   0.00000  Uiso   1.00
O381   O     0.16667   0.83333   0.25000   0.00000  Uiso   1.00
O382   O     0.15451   0.79304   0.15459   0.00000  Uiso   1.00
O383   O     0.12940   0.87058   0.34968   0.00000  Uiso   1.00
O384   O     0.20824   0.84425   0.14606   0.00000  Uiso   1.00
O385   O     0.17451   0.82546   0.34968   0.00000  Uiso   1.00
O386   O     0.30694   0.78842   0.05605   0.00000  Uiso   1.00
O387   O     0.06264   0.87151   0.18863   0.00000  Uiso   1.00
O388   O     0.17930   0.74686   0.28214   0.00000  Uiso   1.00
O389   O     0.14632   0.92751   0.27014   0.00000  Uiso   1.00
O390   O     0.07412   0.79958   0.23413   0.00000  Uiso   1.00
O391   O     0.26693   0.85939   0.21361   0.00000  Uiso   1.00
O392   O     0.07071   0.85544   0.28213   0.00000  Uiso   1.00
O393   O     0.25491   0.81892   0.27014   0.00000  Uiso   1.00
O394   O     0.13760   0.73610   0.23413   0.00000  Uiso   1.00
O395   O     0.20345   0.92286   0.21361   0.00000  Uiso   1.00
Zn396  Zn    0.19338   0.80661   0.28734   0.00000  Uiso   1.00
Zn397  Zn    0.13379   0.79124   0.21876   0.00000  Uiso   1.00
Zn398  Zn    0.21056   0.86442   0.20657   0.00000  Uiso   1.00
Zn399  Zn    0.12893   0.87106   0.28734   0.00000  Uiso   1.00
C400   C     0.38597   0.82597   0.26073   0.00000  Uiso   1.00
C401   C     0.50039   0.81933   0.05869   0.00000  Uiso   1.00
C402   C     0.57181   0.80315   0.05511   0.00000  Uiso   1.00
C403   C     0.61442   0.84052   0.23945   0.00000  Uiso   1.00
C404   C     0.47225   0.85759   0.42028   0.00000  Uiso   1.00
C405   C     0.66089   0.84328   0.23345   0.00000  Uiso   1.00
C406   C     0.34113   0.82518   0.26323   0.00000  Uiso   1.00
C407   C     0.51424   0.98931   0.23617   0.00000  Uiso   1.00
C408   C     0.48547   0.67840   0.26376   0.00000  Uiso   1.00
C409   C     0.48970   0.72255   0.26002   0.00000  Uiso   1.00
C410   C     0.51008   0.94469   0.24003   0.00000  Uiso   1.00
C411   C     0.41468   0.85661   0.48908   0.00000  Uiso   1.00
C412   C     0.51914   0.81506   0.12911   0.00000  Uiso   1.00
C413   C     0.48233   0.85186   0.37086   0.00000  Uiso   1.00
C414   C     0.58482   0.81087   0.00947   0.00000  Uiso   1.00
C415   C     0.52961   0.80906   0.08005   0.00000  Uiso   1.00
C416   C     0.42960   0.86234   0.44344   0.00000  Uiso   1.00
C417   C     0.60282   0.79032   0.07681   0.00000  Uiso   1.00
C418   C     0.35700   0.86580   0.19462   0.00000  Uiso   1.00
C419   C     0.44151   0.84466   0.01208   0.00000  Uiso   1.00
C420   C     0.48527   0.84097   0.49038   0.00000  Uiso   1.00
C421   C     0.50158   0.85090   0.44444   0.00000  Uiso   1.00
C422   C     0.51334   0.82787   0.01281   0.00000  Uiso   1.00
C423   C     0.55670   0.82474   0.48887   0.00000  Uiso   1.00
C424   C     0.57285   0.83849   0.44564   0.00000  Uiso   1.00
C425   C     0.54657   0.85391   0.42451   0.00000  Uiso   1.00
H426   H     0.65186   0.80987   0.29139   0.00000  Uiso   1.00
H427   H     0.59252   0.78219   0.11159   0.00000  Uiso   1.00
H428   H     0.34365   0.87779   0.17078   0.00000  Uiso   1.00
H429   H     0.54089   0.67068   0.21072   0.00000  Uiso   1.00
H430   H     0.45845   0.99774   0.28926   0.00000  Uiso   1.00
H431   H     0.60694   0.83980   0.42922   0.00000  Uiso   1.00
H432   H     0.61763   0.80791   0.49030   0.00000  Uiso   1.00
H433   H     0.46891   0.82381   0.07986   0.00000  Uiso   1.00
H434   H     0.40689   0.86805   0.42567   0.00000  Uiso   1.00
H435   H     0.42677   0.83848   0.04677   0.00000  Uiso   1.00
H436   H     0.38138   0.85936   0.00631   0.00000  Uiso   1.00
I437   I     0.58066   0.89097   0.36963   0.00000  Uiso   1.00
O438   O     0.50000   0.83333   0.25000   0.00000  Uiso   1.00
O439   O     0.48784   0.79304   0.15459   0.00000  Uiso   1.00
O440   O     0.46274   0.87058   0.34968   0.00000  Uiso   1.00
O441   O     0.54157   0.84425   0.14606   0.00000  Uiso   1.00
O442   O     0.50785   0.82546   0.34968   0.00000  Uiso   1.00
O443   O     0.64028   0.78842   0.05605   0.00000  Uiso   1.00
O444   O     0.39597   0.87151   0.18863   0.00000  Uiso   1.00
O445   O     0.51264   0.74686   0.28214   0.00000  Uiso   1.00
O446   O     0.47965   0.92751   0.27014   0.00000  Uiso   1.00
O447   O     0.40745   0.79958   0.23413   0.00000  Uiso   1.00
O448   O     0.60026   0.85939   0.21361   0.00000  Uiso   1.00
O449   O     0.40405   0.85544   0.28213   0.00000  Uiso   1.00
O450   O     0.58824   0.81892   0.27014   0.00000  Uiso   1.00
O451   O     0.47093   0.73610   0.23413   0.00000  Uiso   1.00
O452   O     0.53678   0.92286   0.21361   0.00000  Uiso   1.00
Zn453  Zn    0.52672   0.80661   0.28734   0.00000  Uiso   1.00
Zn454  Zn    0.46713   0.79124   0.21876   0.00000  Uiso   1.00
Zn455  Zn    0.54389   0.86442   0.20657   0.00000  Uiso   1.00
Zn456  Zn    0.46226   0.87106   0.28734   0.00000  Uiso   1.00
C457   C     0.71931   0.82597   0.26073   0.00000  Uiso   1.00
C458   C     0.83372   0.81933   0.05869   0.00000  Uiso   1.00
C459   C     0.90514   0.80315   0.05511   0.00000  Uiso   1.00
C460   C     0.94775   0.84052   0.23945   0.00000  Uiso   1.00
C461   C     0.80558   0.85759   0.42028   0.00000  Uiso   1.00
C462   C     0.99423   0.84328   0.23345   0.00000  Uiso   1.00
C463   C     0.67447   0.82518   0.26323   0.00000  Uiso   1.00
C464   C     0.84757   0.98931   0.23617   0.00000  Uiso   1.00
C465   C     0.81880   0.67840   0.26376   0.00000  Uiso   1.00
C466   C     0.82303   0.72255   0.26002   0.00000  Uiso   1.00
C467   C     0.84341   0.94469   0.24003   0.00000  Uiso   1.00
C468   C     0.74802   0.85661   0.48908   0.00000  Uiso   1.00
C469   C     0.85247   0.81506   0.12911   0.00000  Uiso   1.00
C470   C     0.81566   0.85186   0.37086   0.00000  Uiso   1.00
C471   C     0.91815   0.81087   0.00947   0.00000  Uiso   1.00
C472   C     0.86294   0.80906   0.08005   0.00000  Uiso   1.00
C473   C     0.76293   0.86234   0.44344   0.00000  Uiso   1.00
C474   C     0.93615   0.79032   0.07681   0.00000  Uiso   1.00
C475   C     0.69034   0.86580   0.19462   0.00000  Uiso   1.00
C476   C     0.77485   0.84466   0.01208   0.00000  Uiso   1.00
C477   C     0.81860   0.84097   0.49038   0.00000  Uiso   1.00
C478   C     0.83492   0.85090   0.44444   0.00000  Uiso   1.00
C479   C     0.84667   0.82787   0.01281   0.00000  Uiso   1.00
C480   C     0.89004   0.82474   0.48887   0.00000  Uiso   1.00
C481   C     0.90618   0.83849   0.44564   0.00000  Uiso   1.00
C482   C     0.87990   0.85391   0.42451   0.00000  Uiso   1.00
H483   H     0.98519   0.80987   0.29139   0.00000  Uiso   1.00
H484   H     0.92585   0.78219   0.11159   0.00000  Uiso   1.00
H485   H     0.67698   0.87779   0.17078   0.00000  Uiso   1.00
H486   H     0.87422   0.67068   0.21072   0.00000  Uiso   1.00
H487   H     0.79178   0.99774   0.28926   0.00000  Uiso   1.00
H488   H     0.94027   0.83980   0.42922   0.00000  Uiso   1.00
H489   H     0.95096   0.80791   0.49030   0.00000  Uiso   1.00
H490   H     0.80224   0.82381   0.07986   0.00000  Uiso   1.00
H491   H     0.74022   0.86805   0.42567   0.00000  Uiso   1.00
H492   H     0.76010   0.83848   0.04677   0.00000  Uiso   1.00
H493   H     0.71471   0.85936   0.00631   0.00000  Uiso   1.00
I494   I     0.91400   0.89097   0.36963   0.00000  Uiso   1.00
O495   O     0.83333   0.83333   0.25000   0.00000  Uiso   1.00
O496   O     0.82118   0.79304   0.15459   0.00000  Uiso   1.00
O497   O     0.79607   0.87058   0.34968   0.00000  Uiso   1.00
O498   O     0.87491   0.84425   0.14606   0.00000  Uiso   1.00
O499   O     0.84118   0.82546   0.34968   0.00000  Uiso   1.00
O500   O     0.97361   0.78842   0.05605   0.00000  Uiso   1.00
O501   O     0.72930   0.87151   0.18863   0.00000  Uiso   1.00
O502   O     0.84597   0.74686   0.28214   0.00000  Uiso   1.00
O503   O     0.81298   0.92751   0.27014   0.00000  Uiso   1.00
O504   O     0.74078   0.79958   0.23413   0.00000  Uiso   1.00
O505   O     0.93360   0.85939   0.21361   0.00000  Uiso   1.00
O506   O     0.73738   0.85544   0.28213   0.00000  Uiso   1.00
O507   O     0.92158   0.81892   0.27014   0.00000  Uiso   1.00
O508   O     0.80426   0.73610   0.23413   0.00000  Uiso   1.00
O509   O     0.87012   0.92286   0.21361   0.00000  Uiso   1.00
Zn510  Zn    0.86005   0.80661   0.28734   0.00000  Uiso   1.00
Zn511  Zn    0.80046   0.79124   0.21876   0.00000  Uiso   1.00
Zn512  Zn    0.87723   0.86442   0.20657   0.00000  Uiso   1.00
Zn513  Zn    0.79560   0.87106   0.28734   0.00000  Uiso   1.00
C514   C     0.05264   0.15931   0.76073   0.00000  Uiso   1.00
C515   C     0.16705   0.15266   0.55869   0.00000  Uiso   1.00
C516   C     0.23847   0.13648   0.55511   0.00000  Uiso   1.00
C517   C     0.28108   0.17385   0.73945   0.00000  Uiso   1.00
C518   C     0.13892   0.19093   0.92028   0.00000  Uiso   1.00
C519   C     0.32756   0.17662   0.73345   0.00000  Uiso   1.00
C520   C     0.00780   0.15851   0.76323   0.00000  Uiso   1.00
C521   C     0.18090   0.32264   0.73617   0.00000  Uiso   1.00
C522   C     0.15213   0.01173   0.76376   0.00000  Uiso   1.00
C523   C     0.15636   0.05588   0.76002   0.00000  Uiso   1.00
C524   C     0.17675   0.27803   0.74003   0.00000  Uiso   1.00
C525   C     0.08135   0.18994   0.98908   0.00000  Uiso   1.00
C526   C     0.18581   0.14839   0.62911   0.00000  Uiso   1.00
C527   C     0.14900   0.18519   0.87086   0.00000  Uiso   1.00
C528   C     0.25148   0.14421   0.50947   0.00000  Uiso   1.00
C529   C     0.19628   0.14240   0.58005   0.00000  Uiso   1.00
C530   C     0.09627   0.19567   0.94344   0.00000  Uiso   1.00
C531   C     0.26949   0.12365   0.57681   0.00000  Uiso   1.00
C532   C     0.02367   0.19913   0.69462   0.00000  Uiso   1.00
C533   C     0.10818   0.17800   0.51208   0.00000  Uiso   1.00
C534   C     0.15193   0.17430   0.99038   0.00000  Uiso   1.00
C535   C     0.16825   0.18423   0.94444   0.00000  Uiso   1.00
C536   C     0.18000   0.16120   0.51281   0.00000  Uiso   1.00
C537   C     0.22337   0.15807   0.98887   0.00000  Uiso   1.00
C538   C     0.23952   0.17182   0.94564   0.00000  Uiso   1.00
C539   C     0.21323   0.18724   0.92451   0.00000  Uiso   1.00
H540   H     0.31853   0.14321   0.79139   0.00000  Uiso   1.00
H541   H     0.25919   0.11552   0.61159   0.00000  Uiso   1.00
H542   H     0.01031   0.21113   0.67078   0.00000  Uiso   1.00
H543   H     0.20756   0.00401   0.71072   0.00000  Uiso   1.00
H544   H     0.12511   0.33107   0.78926   0.00000  Uiso   1.00
H545   H     0.27360   0.17313   0.92922   0.00000  Uiso   1.00
H546   H     0.28429   0.14124   0.99030   0.00000  Uiso   1.00
H547   H     0.13557   0.15714   0.57986   0.00000  Uiso   1.00
H548   H     0.07356   0.20138   0.92567   0.00000  Uiso   1.00
H549   H     0.09344   0.17181   0.54677   0.00000  Uiso   1.00
H550   H     0.04805   0.19269   0.50631   0.00000  Uiso   1.00
I551   I     0.24733   0.22430   0.86963   0.00000  Uiso   1.00
O552   O     0.16667   0.16667   0.75000   0.00000  Uiso   1.00
O553   O     0.15451   0.12637   0.65459   0.00000  Uiso   1.00
O554   O     0.12940   0.20391   0.84968   0.00000  Uiso   1.00
O555   O     0.20824   0.17759   0.64606   0.00000  Uiso   1.00
O556   O     0.17451   0.15880   0.84968   0.00000  Uiso   1.00
O557   O     0.30694   0.12176   0.55605   0.00000  Uiso   1.00
O558   O     0.06264   0.20485   0.68863   0.00000  Uiso   1.00
O559   O     0.17930   0.08019   0.78214   0.00000  Uiso   1.00
O560   O     0.14632   0.26085   0.77014   0.00000  Uiso   1.00
O561   O     0.07412   0.13291   0.73413   0.00000  Uiso   1.00
O562   O     0.26693   0.19272   0.71361   0.00000  Uiso   1.00
O563   O     0.07071   0.18878   0.78213   0.00000  Uiso   1.00
O564   O     0.25491   0.15226   0.77014   0.00000  Uiso   1.00
O565   O     0.13760   0.06944   0.73413   0.00000  Uiso   1.00
O566   O     0.20345   0.25620   0.71361   0.00000  Uiso   1.00
Zn567  Zn    0.19338   0.13994   0.78734   0.00000  Uiso   1.00
Zn568  Zn    0.13379   0.12458   0.71876   0.00000  Uiso   1.00
Zn569  Zn    0.21056   0.19775   0.70657   0.00000  Uiso   1.00
Zn570  Zn    0.12893   0.20439   0.78734   0.00000  Uiso   1.00
C571   C     0.38597   0.15931   0.76073   0.00000  Uiso   1.00
C572   C     0.50039   0.15266   0.55869   0.00000  Uiso   1.00
C573   C     0.57181   0.13648   0.55511   0.00000  Uiso   1.00
C574   C     0.61442   0.17385   0.73945   0.00000  Uiso   1.00
C575   C     0.47225   0.19093   0.92028   0.00000  Uiso   1.00
C576   C     0.66089   0.17662   0.73345   0.00000  Uiso   1.00
C577   C     0.34113   0.15851   0.76323   0.00000  Uiso   1.00
C578   C     0.51424   0.32264   0.73617   0.00000  Uiso   1.00
C579   C     0.48547   0.01173   0.76376   0.00000  Uiso   1.00
C580   C     0.48970   0.05588   0.76002   0.00000  Uiso   1.00
C581   C     0.51008   0.27803   0.74003   0.00000  Uiso   1.00
C582   C     0.41468   0.18994   0.98908   0.00000  Uiso   1.00
C583   C     0.51914   0.14839   0.62911   0.00000  Uiso   1.00
C584   C     0.48233   0.18519   0.87086   0.00000  Uiso   1.00
C585   C     0.58482   0.14421   0.50947   0.00000  Uiso   1.00
C586   C     0.52961   0.14240   0.58005   0.00000  Uiso   1.00
C587   C     0.42960   0.19567   0.94344   0.00000  Uiso   1.00
C588   C     0.60282   0.12365   0.57681   0.00000  Uiso   1.00
C589   C     0.35700   0.19913   0.69462   0.00000  Uiso   1.00
C590   C     0.44151   0.17800   0.51208   0.00000  Uiso   1.00
C591   C     0.48527   0.17430   0.99038   0.00000  Uiso   1.00
C592   C     0.50158   0.18423   0.94444   0.00000  Uiso   1.00
C593   C     0.51334   0.16120   0.51281   0.00000  Uiso   1.00
C594   C     0.55670   0.15807   0.98887   0.00000  Uiso   1.00
C595   C     0.57285   0.17182   0.94564   0.00000  Uiso   1.00
C596   C     0.54657   0.18724   0.92451   0.00000  Uiso   1.00
H597   H     0.65186   0.14321   0.79139   0.00000  Uiso   1.00
H598   H     0.59252   0.11552   0.61159   0.00000  Uiso   1.00
H599   H     0.34365   0.21113   0.67078   0.00000  Uiso   1.00
H600   H     0.54089   0.00401   0.71072   0.00000  Uiso   1.00
H601   H     0.45845   0.33107   0.78926   0.00000  Uiso   1.00
H602   H     0.60694   0.17313   0.92922   0.00000  Uiso   1.00
H603   H     0.61763   0.14124   0.99030   0.00000  Uiso   1.00
H604   H     0.46891   0.15714   0.57986   0.00000  Uiso   1.00
H605   H     0.40689   0.20138   0.92567   0.00000  Uiso   1.00
H606   H     0.42677   0.17181   0.54677   0.00000  Uiso   1.00
H607   H     0.38138   0.19269   0.50631   0.00000  Uiso   1.00
I608   I     0.58066   0.22430   0.86963   0.00000  Uiso   1.00
O609   O     0.50000   0.16667   0.75000   0.00000  Uiso   1.00
O610   O     0.48784   0.12637   0.65459   0.00000  Uiso   1.00
O611   O     0.46274   0.20391   0.84968   0.00000  Uiso   1.00
O612   O     0.54157   0.17759   0.64606   0.00000  Uiso   1.00
O613   O     0.50785   0.15880   0.84968   0.00000  Uiso   1.00
O614   O     0.64028   0.12176   0.55605   0.00000  Uiso   1.00
O615   O     0.39597   0.20485   0.68863   0.00000  Uiso   1.00
O616   O     0.51264   0.08019   0.78214   0.00000  Uiso   1.00
O617   O     0.47965   0.26085   0.77014   0.00000  Uiso   1.00
O618   O     0.40745   0.13291   0.73413   0.00000  Uiso   1.00
O619   O     0.60026   0.19272   0.71361   0.00000  Uiso   1.00
O620   O     0.40405   0.18878   0.78213   0.00000  Uiso   1.00
O621   O     0.58824   0.15226   0.77014   0.00000  Uiso   1.00
O622   O     0.47093   0.06944   0.73413   0.00000  Uiso   1.00
O623   O     0.53678   0.25620   0.71361   0.00000  Uiso   1.00
Zn624  Zn    0.52672   0.13994   0.78734   0.00000  Uiso   1.00
Zn625  Zn    0.46713   0.12458   0.71876   0.00000  Uiso   1.00
Zn626  Zn    0.54389   0.19775   0.70657   0.00000  Uiso   1.00
Zn627  Zn    0.46226   0.20439   0.78734   0.00000  Uiso   1.00
C628   C     0.71931   0.15931   0.76073   0.00000  Uiso   1.00
C629   C     0.83372   0.15266   0.55869   0.00000  Uiso   1.00
C630   C     0.90514   0.13648   0.55511   0.00000  Uiso   1.00
C631   C     0.94775   0.17385   0.73945   0.00000  Uiso   1.00
C632   C     0.80558   0.19093   0.92028   0.00000  Uiso   1.00
C633   C     0.99423   0.17662   0.73345   0.00000  Uiso   1.00
C634   C     0.67447   0.15851   0.76323   0.00000  Uiso   1.00
C635   C     0.84757   0.32264   0.73617   0.00000  Uiso   1.00
C636   C     0.81880   0.01173   0.76376   0.00000  Uiso   1.00
C637   C     0.82303   0.05588   0.76002   0.00000  Uiso   1.00
C638   C     0.84341   0.27803   0.74003   0.00000  Uiso   1.00
C639   C     0.74802   0.18994   0.98908   0.00000  Uiso   1.00
C640   C     0.85247   0.14839   0.62911   0.00000  Uiso   1.00
C641   C     0.81566   0.18519   0.87086   0.00000  Uiso   1.00
C642   C     0.91815   0.14421   0.50947   0.00000  Uiso   1.00
C643   C     0.86294   0.14240   0.58005   0.00000  Uiso   1.00
C644   C     0.76293   0.19567   0.94344   0.00000  Uiso   1.00
C645   C     0.93615   0.12365   0.57681   0.00000  Uiso   1.00
C646   C     0.69034   0.19913   0.69462   0.00000  Uiso   1.00
C647   C     0.77485   0.17800   0.51208   0.00000  Uiso   1.00
C648   C     0.81860   0.17430   0.99038   0.00000  Uiso   1.00
C649   C     0.83492   0.18423   0.94444   0.00000  Uiso   1.00
C650   C     0.84667   0.16120   0.51281   0.00000  Uiso   1.00
C651   C     0.89004   0.15807   0.98887   0.00000  Uiso   1.00
C652   C     0.90618   0.17182   0.94564   0.00000  Uiso   1.00
C653   C     0.87990   0.18724   0.92451   0.00000  Uiso   1.00
H654   H     0.98519   0.14321   0.79139   0.00000  Uiso   1.00
H655   H     0.92585   0.11552   0.61159   0.00000  Uiso   1.00
H656   H     0.67698   0.21113   0.67078   0.00000  Uiso   1.00
H657   H     0.87422   0.00401   0.71072   0.00000  Uiso   1.00
H658   H     0.79178   0.33107   0.78926   0.00000  Uiso   1.00
H659   H     0.94027   0.17313   0.92922   0.00000  Uiso   1.00
H660   H     0.95096   0.14124   0.99030   0.00000  Uiso   1.00
H661   H     0.80224   0.15714   0.57986   0.00000  Uiso   1.00
H662   H     0.74022   0.20138   0.92567   0.00000  Uiso   1.00
H663   H     0.76010   0.17181   0.54677   0.00000  Uiso   1.00
H664   H     0.71471   0.19269   0.50631   0.00000  Uiso   1.00
I665   I     0.91400   0.22430   0.86963   0.00000  Uiso   1.00
O666   O     0.83333   0.16667   0.75000   0.00000  Uiso   1.00
O667   O     0.82118   0.12637   0.65459   0.00000  Uiso   1.00
O668   O     0.79607   0.20391   0.84968   0.00000  Uiso   1.00
O669   O     0.87491   0.17759   0.64606   0.00000  Uiso   1.00
O670   O     0.84118   0.15880   0.84968   0.00000  Uiso   1.00
O671   O     0.97361   0.12176   0.55605   0.00000  Uiso   1.00
O672   O     0.72930   0.20485   0.68863   0.00000  Uiso   1.00
O673   O     0.84597   0.08019   0.78214   0.00000  Uiso   1.00
O674   O     0.81298   0.26085   0.77014   0.00000  Uiso   1.00
O675   O     0.74078   0.13291   0.73413   0.00000  Uiso   1.00
O676   O     0.93360   0.19272   0.71361   0.00000  Uiso   1.00
O677   O     0.73738   0.18878   0.78213   0.00000  Uiso   1.00
O678   O     0.92158   0.15226   0.77014   0.00000  Uiso   1.00
O679   O     0.80426   0.06944   0.73413   0.00000  Uiso   1.00
O680   O     0.87012   0.25620   0.71361   0.00000  Uiso   1.00
Zn681  Zn    0.86005   0.13994   0.78734   0.00000  Uiso   1.00
Zn682  Zn    0.80046   0.12458   0.71876   0.00000  Uiso   1.00
Zn683  Zn    0.87723   0.19775   0.70657   0.00000  Uiso   1.00
Zn684  Zn    0.79560   0.20439   0.78734   0.00000  Uiso   1.00
C685   C     0.05264   0.49264   0.76073   0.00000  Uiso   1.00
C686   C     0.16705   0.48599   0.55869   0.00000  Uiso   1.00
C687   C     0.23847   0.46982   0.55511   0.00000  Uiso   1.00
C688   C     0.28108   0.50718   0.73945   0.00000  Uiso   1.00
C689   C     0.13892   0.52426   0.92028   0.00000  Uiso   1.00
C690   C     0.32756   0.50995   0.73345   0.00000  Uiso   1.00
C691   C     0.00780   0.49184   0.76323   0.00000  Uiso   1.00
C692   C     0.18090   0.65598   0.73617   0.00000  Uiso   1.00
C693   C     0.15213   0.34507   0.76376   0.00000  Uiso   1.00
C694   C     0.15636   0.38922   0.76002   0.00000  Uiso   1.00
C695   C     0.17675   0.61136   0.74003   0.00000  Uiso   1.00
C696   C     0.08135   0.52327   0.98908   0.00000  Uiso   1.00
C697   C     0.18581   0.48172   0.62911   0.00000  Uiso   1.00
C698   C     0.14900   0.51852   0.87086   0.00000  Uiso   1.00
C699   C     0.25148   0.47754   0.50947   0.00000  Uiso   1.00
C700   C     0.19628   0.47573   0.58005   0.00000  Uiso   1.00
C701   C     0.09627   0.52900   0.94344   0.00000  Uiso   1.00
C702   C     0.26949   0.45698   0.57681   0.00000  Uiso   1.00
C703   C     0.02367   0.53246   0.69462   0.00000  Uiso   1.00
C704   C     0.10818   0.51133   0.51208   0.00000  Uiso   1.00
C705   C     0.15193   0.50763   0.99038   0.00000  Uiso   1.00
C706   C     0.16825   0.51756   0.94444   0.00000  Uiso   1.00
C707   C     0.18000   0.49453   0.51281   0.00000  Uiso   1.00
C708   C     0.22337   0.49141   0.98887   0.00000  Uiso   1.00
C709   C     0.23952   0.50516   0.94564   0.00000  Uiso   1.00
C710   C     0.21323   0.52058   0.92451   0.00000  Uiso   1.00
H711   H     0.31853   0.47654   0.79139   0.00000  Uiso   1.00
H712   H     0.25919   0.44886   0.61159   0.00000  Uiso   1.00
H713   H     0.01031   0.54446   0.67078   0.00000  Uiso   1.00
H714   H     0.20756   0.33734   0.71072   0.00000  Uiso   1.00
H715   H     0.12511   0.66440   0.78926   0.00000  Uiso   1.00
H716   H     0.27360   0.50646   0.92922   0.00000  Uiso   1.00
H717   H     0.28429   0.47458   0.99030   0.00000  Uiso   1.00
H718   H     0.13557   0.49048   0.57986   0.00000  Uiso   1.00
H719   H     0.07356   0.53471   0.92567   0.00000  Uiso   1.00
H720   H     0.09344   0.50515   0.54677   0.00000  Uiso   1.00
H721   H     0.04805   0.52602   0.50631   0.00000  Uiso   1.00
I722   I     0.24733   0.55763   0.86963   0.00000  Uiso   1.00
O723   O     0.16667   0.50000   0.75000   0.00000  Uiso   1.00
O724   O     0.15451   0.45970   0.65459   0.00000  Uiso   1.00
O725   O     0.12940   0.53724   0.84968   0.00000  Uiso   1.00
O726   O     0.20824   0.51092   0.64606   0.00000  Uiso   1.00
O727   O     0.17451   0.49213   0.84968   0.00000  Uiso   1.00
O728   O     0.30694   0.45509   0.55605   0.00000  Uiso   1.00
O729   O     0.06264   0.53818   0.68863   0.00000  Uiso   1.00
O730   O     0.17930   0.41352   0.78214   0.00000  Uiso   1.00
O731   O     0.14632   0.59418   0.77014   0.00000  Uiso   1.00
O732   O     0.07412   0.46625   0.73413   0.00000  Uiso   1.00
O733   O     0.26693   0.52605   0.71361   0.00000  Uiso   1.00
O734   O     0.07071   0.52211   0.78213   0.00000  Uiso   1.00
O735   O     0.25491   0.48559   0.77014   0.00000  Uiso   1.00
O736   O     0.13760   0.40277   0.73413   0.00000  Uiso   1.00
O737   O     0.20345   0.58953   0.71361   0.00000  Uiso   1.00
Zn738  Zn    0.19338   0.47327   0.78734   0.00000  Uiso   1.00
Zn739  Zn    0.13379   0.45791   0.71876   0.00000  Uiso   1.00
Zn740  Zn    0.21056   0.53109   0.70657   0.00000  Uiso   1.00
Zn741  Zn    0.12893   0.53773   0.78734   0.00000  Uiso   1.00
C742   C     0.38597   0.49264   0.76073   0.00000  Uiso   1.00
C743   C     0.50039   0.48599   0.55869   0.00000  Uiso   1.00
C744   C     0.57181   0.46982   0.55511   0.00000  Uiso   1.00
C745   C     0.61442   0.50718   0.73945   0.00000  Uiso   1.00
C746   C     0.47225   0.52426   0.92028   0.00000  Uiso   1.00
C747   C     0.66089   0.50995   0.73345   0.00000  Uiso   1.00
C748   C     0.34113   0.49184   0.76323   0.00000  Uiso   1.00
C749   C     0.51424   0.65598   0.73617   0.00000  Uiso   1.00
C750   C     0.48547   0.34507   0.76376   0.00000  Uiso   1.00
C751   C     0.48970   0.38922   0.76002   0.00000  Uiso   1.00
C752   C     0.51008   0.61136   0.74003   0.00000  Uiso   1.00
C753   C     0.41468   0.52327   0.98908   0.00000  Uiso   1.00
C754   C     0.51914   0.48172   0.62911   0.00000  Uiso   1.00
C755   C     0.48233   0.51852   0.87086   0.00000  Uiso   1.00
C756   C     0.58482   0.47754   0.50947   0.00000  Uiso   1.00
C757   C     0.52961   0.47573   0.58005   0.00000  Uiso   1.00
C758   C     0.42960   0.52900   0.94344   0.00000  Uiso   1.00
C759   C     0.60282   0.45698   0.57681   0.00000  Uiso   1.00
C760   C     0.35700   0.53246   0.69462   0.00000  Uiso   1.00
C761   C     0.44151   0.51133   0.51208   0.00000  Uiso   1.00
C762   C     0.48527   0.50763   0.99038   0.00000  Uiso   1.00
C763   C     0.50158   0.51756   0.94444   0.00000  Uiso   1.00
C764   C     0.51334   0.49453   0.51281   0.00000  Uiso   1.00
C765   C     0.55670   0.49141   0.98887   0.00000  Uiso   1.00
C766   C     0.57285   0.50516   0.94564   0.00000  Uiso   1.00
C767   C     0.54657   0.52058   0.92451   0.00000  Uiso   1.00
H768   H     0.65186   0.47654   0.79139   0.00000  Uiso   1.00
H769   H     0.59252   0.44886   0.61159   0.00000  Uiso   1.00
H770   H     0.34365   0.54446   0.67078   0.00000  Uiso   1.00
H771   H     0.54089   0.33734   0.71072   0.00000  Uiso   1.00
H772   H     0.45845   0.66440   0.78926   0.00000  Uiso   1.00
H773   H     0.60694   0.50646   0.92922   0.00000  Uiso   1.00
H774   H     0.61763   0.47458   0.99030   0.00000  Uiso   1.00
H775   H     0.46891   0.49048   0.57986   0.00000  Uiso   1.00
H776   H     0.40689   0.53471   0.92567   0.00000  Uiso   1.00
H777   H     0.42677   0.50515   0.54677   0.00000  Uiso   1.00
H778   H     0.38138   0.52602   0.50631   0.00000  Uiso   1.00
I779   I     0.58066   0.55763   0.86963   0.00000  Uiso   1.00
O780   O     0.50000   0.50000   0.75000   0.00000  Uiso   1.00
O781   O     0.48784   0.45970   0.65459   0.00000  Uiso   1.00
O782   O     0.46274   0.53724   0.84968   0.00000  Uiso   1.00
O783   O     0.54157   0.51092   0.64606   0.00000  Uiso   1.00
O784   O     0.50785   0.49213   0.84968   0.00000  Uiso   1.00
O785   O     0.64028   0.45509   0.55605   0.00000  Uiso   1.00
O786   O     0.39597   0.53818   0.68863   0.00000  Uiso   1.00
O787   O     0.51264   0.41352   0.78214   0.00000  Uiso   1.00
O788   O     0.47965   0.59418   0.77014   0.00000  Uiso   1.00
O789   O     0.40745   0.46625   0.73413   0.00000  Uiso   1.00
O790   O     0.60026   0.52605   0.71361   0.00000  Uiso   1.00
O791   O     0.40405   0.52211   0.78213   0.00000  Uiso   1.00
O792   O     0.58824   0.48559   0.77014   0.00000  Uiso   1.00
O793   O     0.47093   0.40277   0.73413   0.00000  Uiso   1.00
O794   O     0.53678   0.58953   0.71361   0.00000  Uiso   1.00
Zn795  Zn    0.52672   0.47327   0.78734   0.00000  Uiso   1.00
Zn796  Zn    0.46713   0.45791   0.71876   0.00000  Uiso   1.00
Zn797  Zn    0.54389   0.53109   0.70657   0.00000  Uiso   1.00
Zn798  Zn    0.46226   0.53773   0.78734   0.00000  Uiso   1.00
C799   C     0.71931   0.49264   0.76073   0.00000  Uiso   1.00
C800   C     0.83372   0.48599   0.55869   0.00000  Uiso   1.00
C801   C     0.90514   0.46982   0.55511   0.00000  Uiso   1.00
C802   C     0.94775   0.50718   0.73945   0.00000  Uiso   1.00
C803   C     0.80558   0.52426   0.92028   0.00000  Uiso   1.00
C804   C     0.99423   0.50995   0.73345   0.00000  Uiso   1.00
C805   C     0.67447   0.49184   0.76323   0.00000  Uiso   1.00
C806   C     0.84757   0.65598   0.73617   0.00000  Uiso   1.00
C807   C     0.81880   0.34507   0.76376   0.00000  Uiso   1.00
C808   C     0.82303   0.38922   0.76002   0.00000  Uiso   1.00
C809   C     0.84341   0.61136   0.74003   0.00000  Uiso   1.00
C810   C     0.74802   0.52327   0.98908   0.00000  Uiso   1.00
C811   C     0.85247   0.48172   0.62911   0.00000  Uiso   1.00
C812   C     0.81566   0.51852   0.87086   0.00000  Uiso   1.00
C813   C     0.91815   0.47754   0.50947   0.00000  Uiso   1.00
C814   C     0.86294   0.47573   0.58005   0.00000  Uiso   1.00
C815   C     0.76293   0.52900   0.94344   0.00000  Uiso   1.00
C816   C     0.93615   0.45698   0.57681   0.00000  Uiso   1.00
C817   C     0.69034   0.53246   0.69462   0.00000  Uiso   1.00
C818   C     0.77485   0.51133   0.51208   0.00000  Uiso   1.00
C819   C     0.81860   0.50763   0.99038   0.00000  Uiso   1.00
C820   C     0.83492   0.51756   0.94444   0.00000  Uiso   1.00
C821   C     0.84667   0.49453   0.51281   0.00000  Uiso   1.00
C822   C     0.89004   0.49141   0.98887   0.00000  Uiso   1.00
C823   C     0.90618   0.50516   0.94564   0.00000  Uiso   1.00
C824   C     0.87990   0.52058   0.92451   0.00000  Uiso   1.00
H825   H     0.98519   0.47654   0.79139   0.00000  Uiso   1.00
H826   H     0.92585   0.44886   0.61159   0.00000  Uiso   1.00
H827   H     0.67698   0.54446   0.67078   0.00000  Uiso   1.00
H828   H     0.87422   0.33734   0.71072   0.00000  Uiso   1.00
H829   H     0.79178   0.66440   0.78926   0.00000  Uiso   1.00
H830   H     0.94027   0.50646   0.92922   0.00000  Uiso   1.00
H831   H     0.95096   0.47458   0.99030   0.00000  Uiso   1.00
H832   H     0.80224   0.49048   0.57986   0.00000  Uiso   1.00
H833   H     0.74022   0.53471   0.92567   0.00000  Uiso   1.00
H834   H     0.76010   0.50515   0.54677   0.00000  Uiso   1.00
H835   H     0.71471   0.52602   0.50631   0.00000  Uiso   1.00
I836   I     0.91400   0.55763   0.86963   0.00000  Uiso   1.00
O837   O     0.83333   0.50000   0.75000   0.00000  Uiso   1.00
O838   O     0.82118   0.45970   0.65459   0.00000  Uiso   1.00
O839   O     0.79607   0.53724   0.84968   0.00000  Uiso   1.00
O840   O     0.87491   0.51092   0.64606   0.00000  Uiso   1.00
O841   O     0.84118   0.49213   0.84968   0.00000  Uiso   1.00
O842   O     0.97361   0.45509   0.55605   0.00000  Uiso   1.00
O843   O     0.72930   0.53818   0.68863   0.00000  Uiso   1.00
O844   O     0.84597   0.41352   0.78214   0.00000  Uiso   1.00
O845   O     0.81298   0.59418   0.77014   0.00000  Uiso   1.00
O846   O     0.74078   0.46625   0.73413   0.00000  Uiso   1.00
O847   O     0.93360   0.52605   0.71361   0.00000  Uiso   1.00
O848   O     0.73738   0.52211   0.78213   0.00000  Uiso   1.00
O849   O     0.92158   0.48559   0.77014   0.00000  Uiso   1.00
O850   O     0.80426   0.40277   0.73413   0.00000  Uiso   1.00
O851   O     0.87012   0.58953   0.71361   0.00000  Uiso   1.00
Zn852  Zn    0.86005   0.47327   0.78734   0.00000  Uiso   1.00
Zn853  Zn    0.80046   0.45791   0.71876   0.00000  Uiso   1.00
Zn854  Zn    0.87723   0.53109   0.70657   0.00000  Uiso   1.00
Zn855  Zn    0.79560   0.53773   0.78734   0.00000  Uiso   1.00
C856   C     0.05264   0.82597   0.76073   0.00000  Uiso   1.00
C857   C     0.16705   0.81933   0.55869   0.00000  Uiso   1.00
C858   C     0.23847   0.80315   0.55511   0.00000  Uiso   1.00
C859   C     0.28108   0.84052   0.73945   0.00000  Uiso   1.00
C860   C     0.13892   0.85759   0.92028   0.00000  Uiso   1.00
C861   C     0.32756   0.84328   0.73345   0.00000  Uiso   1.00
C862   C     0.00780   0.82518   0.76323   0.00000  Uiso   1.00
C863   C     0.18090   0.98931   0.73617   0.00000  Uiso   1.00
C864   C     0.15213   0.67840   0.76376   0.00000  Uiso   1.00
C865   C     0.15636   0.72255   0.76002   0.00000  Uiso   1.00
C866   C     0.17675   0.94469   0.74003   0.00000  Uiso   1.00
C867   C     0.08135   0.85661   0.98908   0.00000  Uiso   1.00
C868   C     0.18581   0.81506   0.62911   0.00000  Uiso   1.00
C869   C     0.14900   0.85186   0.87086   0.00000  Uiso   1.00
C870   C     0.25148   0.81087   0.50947   0.00000  Uiso   1.00
C871   C     0.19628   0.80906   0.58005   0.00000  Uiso   1.00
C872   C     0.09627   0.86234   0.94344   0.00000  Uiso   1.00
C873   C     0.26949   0.79032   0.57681   0.00000  Uiso   1.00
C874   C     0.02367   0.86580   0.69462   0.00000  Uiso   1.00
C875   C     0.10818   0.84466   0.51208   0.00000  Uiso   1.00
C876   C     0.15193   0.84097   0.99038   0.00000  Uiso   1.00
C877   C     0.16825   0.85090   0.94444   0.00000  Uiso   1.00
C878   C     0.18000   0.82787   0.51281   0.00000  Uiso   1.00
C879   C     0.22337   0.82474   0.98887   0.00000  Uiso   1.00
C880   C     0.23952   0.83849   0.94564   0.00000  Uiso   1.00
C881   C     0.21323   0.85391   0.92451   0.00000  Uiso   1.00
H882   H     0.31853   0.80987   0.79139   0.00000  Uiso   1.00
H883   H     0.25919   0.78219   0.61159   0.00000  Uiso   1.00
H884   H     0.01031   0.87779   0.67078   0.00000  Uiso   1.00
H885   H     0.20756   0.67068   0.71072   0.00000  Uiso   1.00
H886   H     0.12511   0.99774   0.78926   0.00000  Uiso   1.00
H887   H     0.27360   0.83980   0.92922   0.00000  Uiso   1.00
H888   H     0.28429   0.80791   0.99030   0.00000  Uiso   1.00
H889   H     0.13557   0.82381   0.57986   0.00000  Uiso   1.00
H890   H     0.07356   0.86805   0.92567   0.00000  Uiso   1.00
H891   H     0.09344   0.83848   0.54677   0.00000  Uiso   1.00
H892   H     0.04805   0.85936   0.50631   0.00000  Uiso   1.00
I893   I     0.24733   0.89097   0.86963   0.00000  Uiso   1.00
O894   O     0.16667   0.83333   0.75000   0.00000  Uiso   1.00
O895   O     0.15451   0.79304   0.65459   0.00000  Uiso   1.00
O896   O     0.12940   0.87058   0.84968   0.00000  Uiso   1.00
O897   O     0.20824   0.84425   0.64606   0.00000  Uiso   1.00
O898   O     0.17451   0.82546   0.84968   0.00000  Uiso   1.00
O899   O     0.30694   0.78842   0.55605   0.00000  Uiso   1.00
O900   O     0.06264   0.87151   0.68863   0.00000  Uiso   1.00
O901   O     0.17930   0.74686   0.78214   0.00000  Uiso   1.00
O902   O     0.14632   0.92751   0.77014   0.00000  Uiso   1.00
O903   O     0.07412   0.79958   0.73413   0.00000  Uiso   1.00
O904   O     0.26693   0.85939   0.71361   0.00000  Uiso   1.00
O905   O     0.07071   0.85544   0.78213   0.00000  Uiso   1.00
O906   O     0.25491   0.81892   0.77014   0.00000  Uiso   1.00
O907   O     0.13760   0.73610   0.73413   0.00000  Uiso   1.00
O908   O     0.20345   0.92286   0.71361   0.00000  Uiso   1.00
Zn909  Zn    0.19338   0.80661   0.78734   0.00000  Uiso   1.00
Zn910  Zn    0.13379   0.79124   0.71876   0.00000  Uiso   1.00
Zn911  Zn    0.21056   0.86442   0.70657   0.00000  Uiso   1.00
Zn912  Zn    0.12893   0.87106   0.78734   0.00000  Uiso   1.00
C913   C     0.38597   0.82597   0.76073   0.00000  Uiso   1.00
C914   C     0.50039   0.81933   0.55869   0.00000  Uiso   1.00
C915   C     0.57181   0.80315   0.55511   0.00000  Uiso   1.00
C916   C     0.61442   0.84052   0.73945   0.00000  Uiso   1.00
C917   C     0.47225   0.85759   0.92028   0.00000  Uiso   1.00
C918   C     0.66089   0.84328   0.73345   0.00000  Uiso   1.00
C919   C     0.34113   0.82518   0.76323   0.00000  Uiso   1.00
C920   C     0.51424   0.98931   0.73617   0.00000  Uiso   1.00
C921   C     0.48547   0.67840   0.76376   0.00000  Uiso   1.00
C922   C     0.48970   0.72255   0.76002   0.00000  Uiso   1.00
C923   C     0.51008   0.94469   0.74003   0.00000  Uiso   1.00
C924   C     0.41468   0.85661   0.98908   0.00000  Uiso   1.00
C925   C     0.51914   0.81506   0.62911   0.00000  Uiso   1.00
C926   C     0.48233   0.85186   0.87086   0.00000  Uiso   1.00
C927   C     0.58482   0.81087   0.50947   0.00000  Uiso   1.00
C928   C     0.52961   0.80906   0.58005   0.00000  Uiso   1.00
C929   C     0.42960   0.86234   0.94344   0.00000  Uiso   1.00
C930   C     0.60282   0.79032   0.57681   0.00000  Uiso   1.00
C931   C     0.35700   0.86580   0.69462   0.00000  Uiso   1.00
C932   C     0.44151   0.84466   0.51208   0.00000  Uiso   1.00
C933   C     0.48527   0.84097   0.99038   0.00000  Uiso   1.00
C934   C     0.50158   0.85090   0.94444   0.00000  Uiso   1.00
C935   C     0.51334   0.82787   0.51281   0.00000  Uiso   1.00
C936   C     0.55670   0.82474   0.98887   0.00000  Uiso   1.00
C937   C     0.57285   0.83849   0.94564   0.00000  Uiso   1.00
C938   C     0.54657   0.85391   0.92451   0.00000  Uiso   1.00
H939   H     0.65186   0.80987   0.79139   0.00000  Uiso   1.00
H940   H     0.59252   0.78219   0.61159   0.00000  Uiso   1.00
H941   H     0.34365   0.87779   0.67078   0.00000  Uiso   1.00
H942   H     0.54089   0.67068   0.71072   0.00000  Uiso   1.00
H943   H     0.45845   0.99774   0.78926   0.00000  Uiso   1.00
H944   H     0.60694   0.83980   0.92922   0.00000  Uiso   1.00
H945   H     0.61763   0.80791   0.99030   0.00000  Uiso   1.00
H946   H     0.46891   0.82381   0.57986   0.00000  Uiso   1.00
H947   H     0.40689   0.86805   0.92567   0.00000  Uiso   1.00
H948   H     0.42677   0.83848   0.54677   0.00000  Uiso   1.00
H949   H     0.38138   0.85936   0.50631   0.00000  Uiso   1.00
I950   I     0.58066   0.89097   0.86963   0.00000  Uiso   1.00
O951   O     0.50000   0.83333   0.75000   0.00000  Uiso   1.00
O952   O     0.48784   0.79304   0.65459   0.00000  Uiso   1.00
O953   O     0.46274   0.87058   0.84968   0.00000  Uiso   1.00
O954   O     0.54157   0.84425   0.64606   0.00000  Uiso   1.00
O955   O     0.50785   0.82546   0.84968   0.00000  Uiso   1.00
O956   O     0.64028   0.78842   0.55605   0.00000  Uiso   1.00
O957   O     0.39597   0.87151   0.68863   0.00000  Uiso   1.00
O958   O     0.51264   0.74686   0.78214   0.00000  Uiso   1.00
O959   O     0.47965   0.92751   0.77014   0.00000  Uiso   1.00
O960   O     0.40745   0.79958   0.73413   0.00000  Uiso   1.00
O961   O     0.60026   0.85939   0.71361   0.00000  Uiso   1.00
O962   O     0.40405   0.85544   0.78213   0.00000  Uiso   1.00
O963   O     0.58824   0.81892   0.77014   0.00000  Uiso   1.00
O964   O     0.47093   0.73610   0.73413   0.00000  Uiso   1.00
O965   O     0.53678   0.92286   0.71361   0.00000  Uiso   1.00
Zn966  Zn    0.52672   0.80661   0.78734   0.00000  Uiso   1.00
Zn967  Zn    0.46713   0.79124   0.71876   0.00000  Uiso   1.00
Zn968  Zn    0.54389   0.86442   0.70657   0.00000  Uiso   1.00
Zn969  Zn    0.46226   0.87106   0.78734   0.00000  Uiso   1.00
C970   C     0.71931   0.82597   0.76073   0.00000  Uiso   1.00
C971   C     0.83372   0.81933   0.55869   0.00000  Uiso   1.00
C972   C     0.90514   0.80315   0.55511   0.00000  Uiso   1.00
C973   C     0.94775   0.84052   0.73945   0.00000  Uiso   1.00
C974   C     0.80558   0.85759   0.92028   0.00000  Uiso   1.00
C975   C     0.99423   0.84328   0.73345   0.00000  Uiso   1.00
C976   C     0.67447   0.82518   0.76323   0.00000  Uiso   1.00
C977   C     0.84757   0.98931   0.73617   0.00000  Uiso   1.00
C978   C     0.81880   0.67840   0.76376   0.00000  Uiso   1.00
C979   C     0.82303   0.72255   0.76002   0.00000  Uiso   1.00
C980   C     0.84341   0.94469   0.74003   0.00000  Uiso   1.00
C981   C     0.74802   0.85661   0.98908   0.00000  Uiso   1.00
C982   C     0.85247   0.81506   0.62911   0.00000  Uiso   1.00
C983   C     0.81566   0.85186   0.87086   0.00000  Uiso   1.00
C984   C     0.91815   0.81087   0.50947   0.00000  Uiso   1.00
C985   C     0.86294   0.80906   0.58005   0.00000  Uiso   1.00
C986   C     0.76293   0.86234   0.94344   0.00000  Uiso   1.00
C987   C     0.93615   0.79032   0.57681   0.00000  Uiso   1.00
C988   C     0.69034   0.86580   0.69462   0.00000  Uiso   1.00
C989   C     0.77485   0.84466   0.51208   0.00000  Uiso   1.00
C990   C     0.81860   0.84097   0.99038   0.00000  Uiso   1.00
C991   C     0.83492   0.85090   0.94444   0.00000  Uiso   1.00
C992   C     0.84667   0.82787   0.51281   0.00000  Uiso   1.00
C993   C     0.89004   0.82474   0.98887   0.00000  Uiso   1.00
C994   C     0.90618   0.83849   0.94564   0.00000  Uiso   1.00
C995   C     0.87990   0.85391   0.92451   0.00000  Uiso   1.00
H996   H     0.98519   0.80987   0.79139   0.00000  Uiso   1.00
H997   H     0.92585   0.78219   0.61159   0.00000  Uiso   1.00
H998   H     0.67698   0.87779   0.67078   0.00000  Uiso   1.00
H999   H     0.87422   0.67068   0.71072   0.00000  Uiso   1.00
H1000  H     0.79178   0.99774   0.78926   0.00000  Uiso   1.00
H1001  H     0.94027   0.83980   0.92922   0.00000  Uiso   1.00
H1002  H     0.95096   0.80791   0.99030   0.00000  Uiso   1.00
H1003  H     0.80224   0.82381   0.57986   0.00000  Uiso   1.00
H1004  H     0.74022   0.86805   0.92567   0.00000  Uiso   1.00
H1005  H     0.76010   0.83848   0.54677   0.00000  Uiso   1.00
H1006  H     0.71471   0.85936   0.50631   0.00000  Uiso   1.00
I1007  I     0.91400   0.89097   0.86963   0.00000  Uiso   1.00
O1008  O     0.83333   0.83333   0.75000   0.00000  Uiso   1.00
O1009  O     0.82118   0.79304   0.65459   0.00000  Uiso   1.00
O1010  O     0.79607   0.87058   0.84968   0.00000  Uiso   1.00
O1011  O     0.87491   0.84425   0.64606   0.00000  Uiso   1.00
O1012  O     0.84118   0.82546   0.84968   0.00000  Uiso   1.00
O1013  O     0.97361   0.78842   0.55605   0.00000  Uiso   1.00
O1014  O     0.72930   0.87151   0.68863   0.00000  Uiso   1.00
O1015  O     0.84597   0.74686   0.78214   0.00000  Uiso   1.00
O1016  O     0.81298   0.92751   0.77014   0.00000  Uiso   1.00
O1017  O     0.74078   0.79958   0.73413   0.00000  Uiso   1.00
O1018  O     0.93360   0.85939   0.71361   0.00000  Uiso   1.00
O1019  O     0.73738   0.85544   0.78213   0.00000  Uiso   1.00
O1020  O     0.92158   0.81892   0.77014   0.00000  Uiso   1.00
O1021  O     0.80426   0.73610   0.73413   0.00000  Uiso   1.00
O1022  O     0.87012   0.92286   0.71361   0.00000  Uiso   1.00
Zn1023 Zn    0.86005   0.80661   0.78734   0.00000  Uiso   1.00
Zn1024 Zn    0.80046   0.79124   0.71876   0.00000  Uiso   1.00
Zn1025 Zn    0.87723   0.86442   0.70657   0.00000  Uiso   1.00
Zn1026 Zn    0.79560   0.87106   0.78734   0.00000  Uiso   1.00
loop_
_geom_bond_atom_site_label_1
_geom_bond_atom_site_label_2
_geom_bond_distance
_geom_bond_site_symmetry_2
_ccdc_geom_bond_type
C1     O48     1.273   .     A
C1     O50     1.270   .     A
C1     C7      1.440   .     S
C2     C16     1.396   .     A
C2     H34     1.077   .     S
C2     C23     1.412   .     A
C3     C16     1.411   .     A
C3     C18     1.487   .     S
C3     C15     1.398   .     A
C4     O49     1.275   .     A
C4     O51     1.281   .     A
C4     C6      1.466   .     S
C5     C14     1.471   .     S
C5     C17     1.402   .     A
C5     C22     1.419   .     A
C6     C64     1.347   .     S
C6     C76     1.498   .     S
C7     C120    1.347   1_455 S
C7     H141    1.086   1_455 S
C8     C11     1.452   .     S
C8     C180    1.332   .     S
C8     H201    1.088   .     S
C9     C10     1.436   .     S
C9     C350    1.332   1_545 S
C9     H373    1.086   1_545 S
C10    O46     1.281   .     A
C10    O52     1.280   .     A
C11    O47     1.265   .     A
C11    O53     1.266   .     A
C12    C17     1.385   .     A
C12    C533    1.389   .     S
C12    H550    1.083   .     S
C13    C16     1.461   .     S
C13    O42     1.268   .     A
C13    O40     1.278   .     A
C14    O41     1.282   .     A
C14    O43     1.287   .     A
C15    C537    1.400   1_554 S
C15    H546    1.085   1_554 S
C17    H35     1.084   .     S
C18    O44     1.221   .     D
C18    H28     1.085   .     S
C19    O45     1.221   .     D
C19    H29     1.085   .     S
C19    C120    1.498   1_455 S
C20    H36     1.076   .     S
C20    C525    1.389   1_554 S
C20    C534    1.418   1_554 S
C21    C22     1.429   .     A
C21    C533    1.418   .     S
C21    C536    1.426   .     S
C22    C26     1.419   .     A
C23    C534    1.426   1_554 S
C23    C537    1.418   1_554 S
C24    C25     1.392   .     A
C24    C528    1.400   .     S
C24    C536    1.418   .     S
C25    H32     1.084   .     S
C25    C26     1.387   .     A
C26    I38     2.138   .     S
H27    C64     1.086   .     S
H30    C350    1.088   1_545 S
H31    C180    1.086   .     S
H33    C528    1.085   .     S
H37    C525    1.083   1_554 S
O39    Zn56    1.917   .     S
O39    Zn57    1.931   .     S
O39    Zn55    1.950   .     S
O39    Zn54    1.963   .     S
O40    Zn55    1.919   .     S
O41    Zn57    1.936   .     S
O42    Zn56    1.935   .     S
O43    Zn54    1.920   .     S
O46    Zn54    1.929   .     S
O47    Zn57    1.926   .     S
O48    Zn55    1.927   .     S
O49    Zn56    1.943   .     S
O50    Zn57    1.936   .     S
O51    Zn54    1.920   .     S
O52    Zn55    1.935   .     S
O53    Zn56    1.933   .     S
C58    O105    1.273   .     A
C58    O107    1.270   .     A
C58    C64     1.440   .     S
C59    C73     1.396   .     A
C59    H91     1.077   .     S
C59    C80     1.412   .     A
C60    C73     1.411   .     A
C60    C75     1.487   .     S
C60    C72     1.398   .     A
C61    O106    1.275   .     A
C61    O108    1.281   .     A
C61    C63     1.466   .     S
C62    C71     1.471   .     S
C62    C74     1.402   .     A
C62    C79     1.419   .     A
C63    C121    1.347   .     S
C63    C133    1.498   .     S
C65    C68     1.452   .     S
C65    C237    1.332   .     S
C65    H258    1.088   .     S
C66    C67     1.436   .     S
C66    C407    1.332   1_545 S
C66    H430    1.086   1_545 S
C67    O103    1.281   .     A
C67    O109    1.280   .     A
C68    O104    1.265   .     A
C68    O110    1.266   .     A
C69    C74     1.385   .     A
C69    C590    1.389   .     S
C69    H607    1.083   .     S
C70    C73     1.461   .     S
C70    O99     1.268   .     A
C70    O97     1.278   .     A
C71    O98     1.282   .     A
C71    O100    1.287   .     A
C72    C594    1.400   1_554 S
C72    H603    1.085   1_554 S
C74    H92     1.084   .     S
C75    O101    1.221   .     D
C75    H85     1.085   .     S
C76    O102    1.221   .     D
C76    H86     1.085   .     S
C77    H93     1.076   .     S
C77    C582    1.389   1_554 S
C77    C591    1.418   1_554 S
C78    C79     1.429   .     A
C78    C590    1.418   .     S
C78    C593    1.426   .     S
C79    C83     1.419   .     A
C80    C591    1.426   1_554 S
C80    C594    1.418   1_554 S
C81    C82     1.392   .     A
C81    C585    1.400   .     S
C81    C593    1.418   .     S
C82    H89     1.084   .     S
C82    C83     1.387   .     A
C83    I95     2.138   .     S
H84    C121    1.086   .     S
H87    C407    1.088   1_545 S
H88    C237    1.086   .     S
H90    C585    1.085   .     S
H94    C582    1.083   1_554 S
O96    Zn113   1.917   .     S
O96    Zn114   1.931   .     S
O96    Zn112   1.950   .     S
O96    Zn111   1.963   .     S
O97    Zn112   1.919   .     S
O98    Zn114   1.936   .     S
O99    Zn113   1.935   .     S
O100   Zn111   1.920   .     S
O103   Zn111   1.929   .     S
O104   Zn114   1.926   .     S
O105   Zn112   1.927   .     S
O106   Zn113   1.943   .     S
O107   Zn114   1.936   .     S
O108   Zn111   1.920   .     S
O109   Zn112   1.935   .     S
O110   Zn113   1.933   .     S
C115   O162    1.273   .     A
C115   O164    1.270   .     A
C115   C121    1.440   .     S
C116   C130    1.396   .     A
C116   H148    1.077   .     S
C116   C137    1.412   .     A
C117   C130    1.411   .     A
C117   C132    1.487   .     S
C117   C129    1.398   .     A
C118   O163    1.275   .     A
C118   O165    1.281   .     A
C118   C120    1.466   .     S
C119   C128    1.471   .     S
C119   C131    1.402   .     A
C119   C136    1.419   .     A
C120   C7      1.347   1_655 S
C120   C19     1.498   1_655 S
C122   C125    1.452   .     S
C122   C294    1.332   .     S
C122   H315    1.088   .     S
C123   C124    1.436   .     S
C123   C464    1.332   1_545 S
C123   H487    1.086   1_545 S
C124   O160    1.281   .     A
C124   O166    1.280   .     A
C125   O161    1.265   .     A
C125   O167    1.266   .     A
C126   C131    1.385   .     A
C126   C647    1.389   .     S
C126   H664    1.083   .     S
C127   C130    1.461   .     S
C127   O156    1.268   .     A
C127   O154    1.278   .     A
C128   O155    1.282   .     A
C128   O157    1.287   .     A
C129   C651    1.400   1_554 S
C129   H660    1.085   1_554 S
C131   H149    1.084   .     S
C132   O158    1.221   .     D
C132   H142    1.085   .     S
C133   O159    1.221   .     D
C133   H143    1.085   .     S
C134   H150    1.076   .     S
C134   C639    1.389   1_554 S
C134   C648    1.418   1_554 S
C135   C136    1.429   .     A
C135   C647    1.418   .     S
C135   C650    1.426   .     S
C136   C140    1.419   .     A
C137   C648    1.426   1_554 S
C137   C651    1.418   1_554 S
C138   C139    1.392   .     A
C138   C642    1.400   .     S
C138   C650    1.418   .     S
C139   H146    1.084   .     S
C139   C140    1.387   .     A
C140   I152    2.138   .     S
H141   C7      1.086   1_655 S
H144   C464    1.088   1_545 S
H145   C294    1.086   .     S
H147   C642    1.085   .     S
H151   C639    1.083   1_554 S
O153   Zn170   1.917   .     S
O153   Zn171   1.931   .     S
O153   Zn169   1.950   .     S
O153   Zn168   1.963   .     S
O154   Zn169   1.919   .     S
O155   Zn171   1.936   .     S
O156   Zn170   1.935   .     S
O157   Zn168   1.920   .     S
O160   Zn168   1.929   .     S
O161   Zn171   1.926   .     S
O162   Zn169   1.927   .     S
O163   Zn170   1.943   .     S
O164   Zn171   1.936   .     S
O165   Zn168   1.920   .     S
O166   Zn169   1.935   .     S
O167   Zn170   1.933   .     S
C172   O219    1.273   .     A
C172   O221    1.270   .     A
C172   C178    1.440   .     S
C173   C187    1.396   .     A
C173   H205    1.077   .     S
C173   C194    1.412   .     A
C174   C187    1.411   .     A
C174   C189    1.487   .     S
C174   C186    1.398   .     A
C175   O220    1.275   .     A
C175   O222    1.281   .     A
C175   C177    1.466   .     S
C176   C185    1.471   .     S
C176   C188    1.402   .     A
C176   C193    1.419   .     A
C177   C235    1.347   .     S
C177   C247    1.498   .     S
C178   C291    1.347   1_455 S
C178   H312    1.086   1_455 S
C179   C182    1.452   .     S
C179   C351    1.332   .     S
C179   H372    1.088   .     S
C180   C181    1.436   .     S
C181   O217    1.281   .     A
C181   O223    1.280   .     A
C182   O218    1.265   .     A
C182   O224    1.266   .     A
C183   C188    1.385   .     A
C183   C704    1.389   .     S
C183   H721    1.083   .     S
C184   C187    1.461   .     S
C184   O213    1.268   .     A
C184   O211    1.278   .     A
C185   O212    1.282   .     A
C185   O214    1.287   .     A
C186   C708    1.400   1_554 S
C186   H717    1.085   1_554 S
C188   H206    1.084   .     S
C189   O215    1.221   .     D
C189   H199    1.085   .     S
C190   O216    1.221   .     D
C190   H200    1.085   .     S
C190   C291    1.498   1_455 S
C191   H207    1.076   .     S
C191   C696    1.389   1_554 S
C191   C705    1.418   1_554 S
C192   C193    1.429   .     A
C192   C704    1.418   .     S
C192   C707    1.426   .     S
C193   C197    1.419   .     A
C194   C705    1.426   1_554 S
C194   C708    1.418   1_554 S
C195   C196    1.392   .     A
C195   C699    1.400   .     S
C195   C707    1.418   .     S
C196   H203    1.084   .     S
C196   C197    1.387   .     A
C197   I209    2.138   .     S
H198   C235    1.086   .     S
H202   C351    1.086   .     S
H204   C699    1.085   .     S
H208   C696    1.083   1_554 S
O210   Zn227   1.917   .     S
O210   Zn228   1.931   .     S
O210   Zn226   1.950   .     S
O210   Zn225   1.963   .     S
O211   Zn226   1.919   .     S
O212   Zn228   1.936   .     S
O213   Zn227   1.935   .     S
O214   Zn225   1.920   .     S
O217   Zn225   1.929   .     S
O218   Zn228   1.926   .     S
O219   Zn226   1.927   .     S
O220   Zn227   1.943   .     S
O221   Zn228   1.936   .     S
O222   Zn225   1.920   .     S
O223   Zn226   1.935   .     S
O224   Zn227   1.933   .     S
C229   O276    1.273   .     A
C229   O278    1.270   .     A
C229   C235    1.440   .     S
C230   C244    1.396   .     A
C230   H262    1.077   .     S
C230   C251    1.412   .     A
C231   C244    1.411   .     A
C231   C246    1.487   .     S
C231   C243    1.398   .     A
C232   O277    1.275   .     A
C232   O279    1.281   .     A
C232   C234    1.466   .     S
C233   C242    1.471   .     S
C233   C245    1.402   .     A
C233   C250    1.419   .     A
C234   C292    1.347   .     S
C234   C304    1.498   .     S
C236   C239    1.452   .     S
C236   C408    1.332   .     S
C236   H429    1.088   .     S
C237   C238    1.436   .     S
C238   O274    1.281   .     A
C238   O280    1.280   .     A
C239   O275    1.265   .     A
C239   O281    1.266   .     A
C240   C245    1.385   .     A
C240   C761    1.389   .     S
C240   H778    1.083   .     S
C241   C244    1.461   .     S
C241   O270    1.268   .     A
C241   O268    1.278   .     A
C242   O269    1.282   .     A
C242   O271    1.287   .     A
C243   C765    1.400   1_554 S
C243   H774    1.085   1_554 S
C245   H263    1.084   .     S
C246   O272    1.221   .     D
C246   H256    1.085   .     S
C247   O273    1.221   .     D
C247   H257    1.085   .     S
C248   H264    1.076   .     S
C248   C753    1.389   1_554 S
C248   C762    1.418   1_554 S
C249   C250    1.429   .     A
C249   C761    1.418   .     S
C249   C764    1.426   .     S
C250   C254    1.419   .     A
C251   C762    1.426   1_554 S
C251   C765    1.418   1_554 S
C252   C253    1.392   .     A
C252   C756    1.400   .     S
C252   C764    1.418   .     S
C253   H260    1.084   .     S
C253   C254    1.387   .     A
C254   I266    2.138   .     S
H255   C292    1.086   .     S
H259   C408    1.086   .     S
H261   C756    1.085   .     S
H265   C753    1.083   1_554 S
O267   Zn284   1.917   .     S
O267   Zn285   1.931   .     S
O267   Zn283   1.950   .     S
O267   Zn282   1.963   .     S
O268   Zn283   1.919   .     S
O269   Zn285   1.936   .     S
O270   Zn284   1.935   .     S
O271   Zn282   1.920   .     S
O274   Zn282   1.929   .     S
O275   Zn285   1.926   .     S
O276   Zn283   1.927   .     S
O277   Zn284   1.943   .     S
O278   Zn285   1.936   .     S
O279   Zn282   1.920   .     S
O280   Zn283   1.935   .     S
O281   Zn284   1.933   .     S
C286   O333    1.273   .     A
C286   O335    1.270   .     A
C286   C292    1.440   .     S
C287   C301    1.396   .     A
C287   H319    1.077   .     S
C287   C308    1.412   .     A
C288   C301    1.411   .     A
C288   C303    1.487   .     S
C288   C300    1.398   .     A
C289   O334    1.275   .     A
C289   O336    1.281   .     A
C289   C291    1.466   .     S
C290   C299    1.471   .     S
C290   C302    1.402   .     A
C290   C307    1.419   .     A
C291   C178    1.347   1_655 S
C291   C190    1.498   1_655 S
C293   C296    1.452   .     S
C293   C465    1.332   .     S
C293   H486    1.088   .     S
C294   C295    1.436   .     S
C295   O331    1.281   .     A
C295   O337    1.280   .     A
C296   O332    1.265   .     A
C296   O338    1.266   .     A
C297   C302    1.385   .     A
C297   C818    1.389   .     S
C297   H835    1.083   .     S
C298   C301    1.461   .     S
C298   O327    1.268   .     A
C298   O325    1.278   .     A
C299   O326    1.282   .     A
C299   O328    1.287   .     A
C300   C822    1.400   1_554 S
C300   H831    1.085   1_554 S
C302   H320    1.084   .     S
C303   O329    1.221   .     D
C303   H313    1.085   .     S
C304   O330    1.221   .     D
C304   H314    1.085   .     S
C305   H321    1.076   .     S
C305   C810    1.389   1_554 S
C305   C819    1.418   1_554 S
C306   C307    1.429   .     A
C306   C818    1.418   .     S
C306   C821    1.426   .     S
C307   C311    1.419   .     A
C308   C819    1.426   1_554 S
C308   C822    1.418   1_554 S
C309   C310    1.392   .     A
C309   C813    1.400   .     S
C309   C821    1.418   .     S
C310   H317    1.084   .     S
C310   C311    1.387   .     A
C311   I323    2.138   .     S
H312   C178    1.086   1_655 S
H316   C465    1.086   .     S
H318   C813    1.085   .     S
H322   C810    1.083   1_554 S
O324   Zn341   1.917   .     S
O324   Zn342   1.931   .     S
O324   Zn340   1.950   .     S
O324   Zn339   1.963   .     S
O325   Zn340   1.919   .     S
O326   Zn342   1.936   .     S
O327   Zn341   1.935   .     S
O328   Zn339   1.920   .     S
O331   Zn339   1.929   .     S
O332   Zn342   1.926   .     S
O333   Zn340   1.927   .     S
O334   Zn341   1.943   .     S
O335   Zn342   1.936   .     S
O336   Zn339   1.920   .     S
O337   Zn340   1.935   .     S
O338   Zn341   1.933   .     S
C343   O390    1.273   .     A
C343   O392    1.270   .     A
C343   C349    1.440   .     S
C344   C358    1.396   .     A
C344   H376    1.077   .     S
C344   C365    1.412   .     A
C345   C358    1.411   .     A
C345   C360    1.487   .     S
C345   C357    1.398   .     A
C346   O391    1.275   .     A
C346   O393    1.281   .     A
C346   C348    1.466   .     S
C347   C356    1.471   .     S
C347   C359    1.402   .     A
C347   C364    1.419   .     A
C348   C406    1.347   .     S
C348   C418    1.498   .     S
C349   C462    1.347   1_455 S
C349   H483    1.086   1_455 S
C350   C353    1.452   .     S
C350   C9      1.332   1_565 S
C350   H30     1.088   1_565 S
C351   C352    1.436   .     S
C352   O388    1.281   .     A
C352   O394    1.280   .     A
C353   O389    1.265   .     A
C353   O395    1.266   .     A
C354   C359    1.385   .     A
C354   C875    1.389   .     S
C354   H892    1.083   .     S
C355   C358    1.461   .     S
C355   O384    1.268   .     A
C355   O382    1.278   .     A
C356   O383    1.282   .     A
C356   O385    1.287   .     A
C357   C879    1.400   1_554 S
C357   H888    1.085   1_554 S
C359   H377    1.084   .     S
C360   O386    1.221   .     D
C360   H370    1.085   .     S
C361   O387    1.221   .     D
C361   H371    1.085   .     S
C361   C462    1.498   1_455 S
C362   H378    1.076   .     S
C362   C867    1.389   1_554 S
C362   C876    1.418   1_554 S
C363   C364    1.429   .     A
C363   C875    1.418   .     S
C363   C878    1.426   .     S
C364   C368    1.419   .     A
C365   C876    1.426   1_554 S
C365   C879    1.418   1_554 S
C366   C367    1.392   .     A
C366   C870    1.400   .     S
C366   C878    1.418   .     S
C367   H374    1.084   .     S
C367   C368    1.387   .     A
C368   I380    2.138   .     S
H369   C406    1.086   .     S
H373   C9      1.086   1_565 S
H375   C870    1.085   .     S
H379   C867    1.083   1_554 S
O381   Zn398   1.917   .     S
O381   Zn399   1.931   .     S
O381   Zn397   1.950   .     S
O381   Zn396   1.963   .     S
O382   Zn397   1.919   .     S
O383   Zn399   1.936   .     S
O384   Zn398   1.935   .     S
O385   Zn396   1.920   .     S
O388   Zn396   1.929   .     S
O389   Zn399   1.926   .     S
O390   Zn397   1.927   .     S
O391   Zn398   1.943   .     S
O392   Zn399   1.936   .     S
O393   Zn396   1.920   .     S
O394   Zn397   1.935   .     S
O395   Zn398   1.933   .     S
C400   O447    1.273   .     A
C400   O449    1.270   .     A
C400   C406    1.440   .     S
C401   C415    1.396   .     A
C401   H433    1.077   .     S
C401   C422    1.412   .     A
C402   C415    1.411   .     A
C402   C417    1.487   .     S
C402   C414    1.398   .     A
C403   O448    1.275   .     A
C403   O450    1.281   .     A
C403   C405    1.466   .     S
C404   C413    1.471   .     S
C404   C416    1.402   .     A
C404   C421    1.419   .     A
C405   C463    1.347   .     S
C405   C475    1.498   .     S
C407   C410    1.452   .     S
C407   C66     1.332   1_565 S
C407   H87     1.088   1_565 S
C408   C409    1.436   .     S
C409   O445    1.281   .     A
C409   O451    1.280   .     A
C410   O446    1.265   .     A
C410   O452    1.266   .     A
C411   C416    1.385   .     A
C411   C932    1.389   .     S
C411   H949    1.083   .     S
C412   C415    1.461   .     S
C412   O441    1.268   .     A
C412   O439    1.278   .     A
C413   O440    1.282   .     A
C413   O442    1.287   .     A
C414   C936    1.400   1_554 S
C414   H945    1.085   1_554 S
C416   H434    1.084   .     S
C417   O443    1.221   .     D
C417   H427    1.085   .     S
C418   O444    1.221   .     D
C418   H428    1.085   .     S
C419   H435    1.076   .     S
C419   C924    1.389   1_554 S
C419   C933    1.418   1_554 S
C420   C421    1.429   .     A
C420   C932    1.418   .     S
C420   C935    1.426   .     S
C421   C425    1.419   .     A
C422   C933    1.426   1_554 S
C422   C936    1.418   1_554 S
C423   C424    1.392   .     A
C423   C927    1.400   .     S
C423   C935    1.418   .     S
C424   H431    1.084   .     S
C424   C425    1.387   .     A
C425   I437    2.138   .     S
H426   C463    1.086   .     S
H430   C66     1.086   1_565 S
H432   C927    1.085   .     S
H436   C924    1.083   1_554 S
O438   Zn455   1.917   .     S
O438   Zn456   1.931   .     S
O438   Zn454   1.950   .     S
O438   Zn453   1.963   .     S
O439   Zn454   1.919   .     S
O440   Zn456   1.936   .     S
O441   Zn455   1.935   .     S
O442   Zn453   1.920   .     S
O445   Zn453   1.929   .     S
O446   Zn456   1.926   .     S
O447   Zn454   1.927   .     S
O448   Zn455   1.943   .     S
O449   Zn456   1.936   .     S
O450   Zn453   1.920   .     S
O451   Zn454   1.935   .     S
O452   Zn455   1.933   .     S
C457   O504    1.273   .     A
C457   O506    1.270   .     A
C457   C463    1.440   .     S
C458   C472    1.396   .     A
C458   H490    1.077   .     S
C458   C479    1.412   .     A
C459   C472    1.411   .     A
C459   C474    1.487   .     S
C459   C471    1.398   .     A
C460   O505    1.275   .     A
C460   O507    1.281   .     A
C460   C462    1.466   .     S
C461   C470    1.471   .     S
C461   C473    1.402   .     A
C461   C478    1.419   .     A
C462   C349    1.347   1_655 S
C462   C361    1.498   1_655 S
C464   C467    1.452   .     S
C464   C123    1.332   1_565 S
C464   H144    1.088   1_565 S
C465   C466    1.436   .     S
C466   O502    1.281   .     A
C466   O508    1.280   .     A
C467   O503    1.265   .     A
C467   O509    1.266   .     A
C468   C473    1.385   .     A
C468   C989    1.389   .     S
C468   H1006   1.083   .     S
C469   C472    1.461   .     S
C469   O498    1.268   .     A
C469   O496    1.278   .     A
C470   O497    1.282   .     A
C470   O499    1.287   .     A
C471   C993    1.400   1_554 S
C471   H1002   1.085   1_554 S
C473   H491    1.084   .     S
C474   O500    1.221   .     D
C474   H484    1.085   .     S
C475   O501    1.221   .     D
C475   H485    1.085   .     S
C476   H492    1.076   .     S
C476   C981    1.389   1_554 S
C476   C990    1.418   1_554 S
C477   C478    1.429   .     A
C477   C989    1.418   .     S
C477   C992    1.426   .     S
C478   C482    1.419   .     A
C479   C990    1.426   1_554 S
C479   C993    1.418   1_554 S
C480   C481    1.392   .     A
C480   C984    1.400   .     S
C480   C992    1.418   .     S
C481   H488    1.084   .     S
C481   C482    1.387   .     A
C482   I494    2.138   .     S
H483   C349    1.086   1_655 S
H487   C123    1.086   1_565 S
H489   C984    1.085   .     S
H493   C981    1.083   1_554 S
O495   Zn512   1.917   .     S
O495   Zn513   1.931   .     S
O495   Zn511   1.950   .     S
O495   Zn510   1.963   .     S
O496   Zn511   1.919   .     S
O497   Zn513   1.936   .     S
O498   Zn512   1.935   .     S
O499   Zn510   1.920   .     S
O502   Zn510   1.929   .     S
O503   Zn513   1.926   .     S
O504   Zn511   1.927   .     S
O505   Zn512   1.943   .     S
O506   Zn513   1.936   .     S
O507   Zn510   1.920   .     S
O508   Zn511   1.935   .     S
O509   Zn512   1.933   .     S
C514   O561    1.273   .     A
C514   O563    1.270   .     A
C514   C520    1.440   .     S
C515   C529    1.396   .     A
C515   H547    1.077   .     S
C515   C536    1.412   .     A
C516   C529    1.411   .     A
C516   C531    1.487   .     S
C516   C528    1.398   .     A
C517   O562    1.275   .     A
C517   O564    1.281   .     A
C517   C519    1.466   .     S
C518   C527    1.471   .     S
C518   C530    1.402   .     A
C518   C535    1.419   .     A
C519   C577    1.347   .     S
C519   C589    1.498   .     S
C520   C633    1.347   1_455 S
C520   H654    1.086   1_455 S
C521   C524    1.452   .     S
C521   C693    1.332   .     S
C521   H714    1.088   .     S
C522   C523    1.436   .     S
C522   C863    1.332   1_545 S
C522   H886    1.086   1_545 S
C523   O559    1.281   .     A
C523   O565    1.280   .     A
C524   O560    1.265   .     A
C524   O566    1.266   .     A
C525   C530    1.385   .     A
C525   C20     1.389   1_556 S
C525   H37     1.083   1_556 S
C526   C529    1.461   .     S
C526   O555    1.268   .     A
C526   O553    1.278   .     A
C527   O554    1.282   .     A
C527   O556    1.287   .     A
C530   H548    1.084   .     S
C531   O557    1.221   .     D
C531   H541    1.085   .     S
C532   O558    1.221   .     D
C532   H542    1.085   .     S
C532   C633    1.498   1_455 S
C533   H549    1.076   .     S
C534   C535    1.429   .     A
C534   C20     1.418   1_556 S
C534   C23     1.426   1_556 S
C535   C539    1.419   .     A
C537   C538    1.392   .     A
C537   C15     1.400   1_556 S
C537   C23     1.418   1_556 S
C538   H545    1.084   .     S
C538   C539    1.387   .     A
C539   I551    2.138   .     S
H540   C577    1.086   .     S
H543   C863    1.088   1_545 S
H544   C693    1.086   .     S
H546   C15     1.085   1_556 S
O552   Zn569   1.917   .     S
O552   Zn570   1.931   .     S
O552   Zn568   1.950   .     S
O552   Zn567   1.963   .     S
O553   Zn568   1.919   .     S
O554   Zn570   1.936   .     S
O555   Zn569   1.935   .     S
O556   Zn567   1.920   .     S
O559   Zn567   1.929   .     S
O560   Zn570   1.926   .     S
O561   Zn568   1.927   .     S
O562   Zn569   1.943   .     S
O563   Zn570   1.936   .     S
O564   Zn567   1.920   .     S
O565   Zn568   1.935   .     S
O566   Zn569   1.933   .     S
C571   O618    1.273   .     A
C571   O620    1.270   .     A
C571   C577    1.440   .     S
C572   C586    1.396   .     A
C572   H604    1.077   .     S
C572   C593    1.412   .     A
C573   C586    1.411   .     A
C573   C588    1.487   .     S
C573   C585    1.398   .     A
C574   O619    1.275   .     A
C574   O621    1.281   .     A
C574   C576    1.466   .     S
C575   C584    1.471   .     S
C575   C587    1.402   .     A
C575   C592    1.419   .     A
C576   C634    1.347   .     S
C576   C646    1.498   .     S
C578   C581    1.452   .     S
C578   C750    1.332   .     S
C578   H771    1.088   .     S
C579   C580    1.436   .     S
C579   C920    1.332   1_545 S
C579   H943    1.086   1_545 S
C580   O616    1.281   .     A
C580   O622    1.280   .     A
C581   O617    1.265   .     A
C581   O623    1.266   .     A
C582   C587    1.385   .     A
C582   C77     1.389   1_556 S
C582   H94     1.083   1_556 S
C583   C586    1.461   .     S
C583   O612    1.268   .     A
C583   O610    1.278   .     A
C584   O611    1.282   .     A
C584   O613    1.287   .     A
C587   H605    1.084   .     S
C588   O614    1.221   .     D
C588   H598    1.085   .     S
C589   O615    1.221   .     D
C589   H599    1.085   .     S
C590   H606    1.076   .     S
C591   C592    1.429   .     A
C591   C77     1.418   1_556 S
C591   C80     1.426   1_556 S
C592   C596    1.419   .     A
C594   C595    1.392   .     A
C594   C72     1.400   1_556 S
C594   C80     1.418   1_556 S
C595   H602    1.084   .     S
C595   C596    1.387   .     A
C596   I608    2.138   .     S
H597   C634    1.086   .     S
H600   C920    1.088   1_545 S
H601   C750    1.086   .     S
H603   C72     1.085   1_556 S
O609   Zn626   1.917   .     S
O609   Zn627   1.931   .     S
O609   Zn625   1.950   .     S
O609   Zn624   1.963   .     S
O610   Zn625   1.919   .     S
O611   Zn627   1.936   .     S
O612   Zn626   1.935   .     S
O613   Zn624   1.920   .     S
O616   Zn624   1.929   .     S
O617   Zn627   1.926   .     S
O618   Zn625   1.927   .     S
O619   Zn626   1.943   .     S
O620   Zn627   1.936   .     S
O621   Zn624   1.920   .     S
O622   Zn625   1.935   .     S
O623   Zn626   1.933   .     S
C628   O675    1.273   .     A
C628   O677    1.270   .     A
C628   C634    1.440   .     S
C629   C643    1.396   .     A
C629   H661    1.077   .     S
C629   C650    1.412   .     A
C630   C643    1.411   .     A
C630   C645    1.487   .     S
C630   C642    1.398   .     A
C631   O676    1.275   .     A
C631   O678    1.281   .     A
C631   C633    1.466   .     S
C632   C641    1.471   .     S
C632   C644    1.402   .     A
C632   C649    1.419   .     A
C633   C520    1.347   1_655 S
C633   C532    1.498   1_655 S
C635   C638    1.452   .     S
C635   C807    1.332   .     S
C635   H828    1.088   .     S
C636   C637    1.436   .     S
C636   C977    1.332   1_545 S
C636   H1000   1.086   1_545 S
C637   O673    1.281   .     A
C637   O679    1.280   .     A
C638   O674    1.265   .     A
C638   O680    1.266   .     A
C639   C644    1.385   .     A
C639   C134    1.389   1_556 S
C639   H151    1.083   1_556 S
C640   C643    1.461   .     S
C640   O669    1.268   .     A
C640   O667    1.278   .     A
C641   O668    1.282   .     A
C641   O670    1.287   .     A
C644   H662    1.084   .     S
C645   O671    1.221   .     D
C645   H655    1.085   .     S
C646   O672    1.221   .     D
C646   H656    1.085   .     S
C647   H663    1.076   .     S
C648   C649    1.429   .     A
C648   C134    1.418   1_556 S
C648   C137    1.426   1_556 S
C649   C653    1.419   .     A
C651   C652    1.392   .     A
C651   C129    1.400   1_556 S
C651   C137    1.418   1_556 S
C652   H659    1.084   .     S
C652   C653    1.387   .     A
C653   I665    2.138   .     S
H654   C520    1.086   1_655 S
H657   C977    1.088   1_545 S
H658   C807    1.086   .     S
H660   C129    1.085   1_556 S
O666   Zn683   1.917   .     S
O666   Zn684   1.931   .     S
O666   Zn682   1.950   .     S
O666   Zn681   1.963   .     S
O667   Zn682   1.919   .     S
O668   Zn684   1.936   .     S
O669   Zn683   1.935   .     S
O670   Zn681   1.920   .     S
O673   Zn681   1.929   .     S
O674   Zn684   1.926   .     S
O675   Zn682   1.927   .     S
O676   Zn683   1.943   .     S
O677   Zn684   1.936   .     S
O678   Zn681   1.920   .     S
O679   Zn682   1.935   .     S
O680   Zn683   1.933   .     S
C685   O732    1.273   .     A
C685   O734    1.270   .     A
C685   C691    1.440   .     S
C686   C700    1.396   .     A
C686   H718    1.077   .     S
C686   C707    1.412   .     A
C687   C700    1.411   .     A
C687   C702    1.487   .     S
C687   C699    1.398   .     A
C688   O733    1.275   .     A
C688   O735    1.281   .     A
C688   C690    1.466   .     S
C689   C698    1.471   .     S
C689   C701    1.402   .     A
C689   C706    1.419   .     A
C690   C748    1.347   .     S
C690   C760    1.498   .     S
C691   C804    1.347   1_455 S
C691   H825    1.086   1_455 S
C692   C695    1.452   .     S
C692   C864    1.332   .     S
C692   H885    1.088   .     S
C693   C694    1.436   .     S
C694   O730    1.281   .     A
C694   O736    1.280   .     A
C695   O731    1.265   .     A
C695   O737    1.266   .     A
C696   C701    1.385   .     A
C696   C191    1.389   1_556 S
C696   H208    1.083   1_556 S
C697   C700    1.461   .     S
C697   O726    1.268   .     A
C697   O724    1.278   .     A
C698   O725    1.282   .     A
C698   O727    1.287   .     A
C701   H719    1.084   .     S
C702   O728    1.221   .     D
C702   H712    1.085   .     S
C703   O729    1.221   .     D
C703   H713    1.085   .     S
C703   C804    1.498   1_455 S
C704   H720    1.076   .     S
C705   C706    1.429   .     A
C705   C191    1.418   1_556 S
C705   C194    1.426   1_556 S
C706   C710    1.419   .     A
C708   C709    1.392   .     A
C708   C186    1.400   1_556 S
C708   C194    1.418   1_556 S
C709   H716    1.084   .     S
C709   C710    1.387   .     A
C710   I722    2.138   .     S
H711   C748    1.086   .     S
H715   C864    1.086   .     S
H717   C186    1.085   1_556 S
O723   Zn740   1.917   .     S
O723   Zn741   1.931   .     S
O723   Zn739   1.950   .     S
O723   Zn738   1.963   .     S
O724   Zn739   1.919   .     S
O725   Zn741   1.936   .     S
O726   Zn740   1.935   .     S
O727   Zn738   1.920   .     S
O730   Zn738   1.929   .     S
O731   Zn741   1.926   .     S
O732   Zn739   1.927   .     S
O733   Zn740   1.943   .     S
O734   Zn741   1.936   .     S
O735   Zn738   1.920   .     S
O736   Zn739   1.935   .     S
O737   Zn740   1.933   .     S
C742   O789    1.273   .     A
C742   O791    1.270   .     A
C742   C748    1.440   .     S
C743   C757    1.396   .     A
C743   H775    1.077   .     S
C743   C764    1.412   .     A
C744   C757    1.411   .     A
C744   C759    1.487   .     S
C744   C756    1.398   .     A
C745   O790    1.275   .     A
C745   O792    1.281   .     A
C745   C747    1.466   .     S
C746   C755    1.471   .     S
C746   C758    1.402   .     A
C746   C763    1.419   .     A
C747   C805    1.347   .     S
C747   C817    1.498   .     S
C749   C752    1.452   .     S
C749   C921    1.332   .     S
C749   H942    1.088   .     S
C750   C751    1.436   .     S
C751   O787    1.281   .     A
C751   O793    1.280   .     A
C752   O788    1.265   .     A
C752   O794    1.266   .     A
C753   C758    1.385   .     A
C753   C248    1.389   1_556 S
C753   H265    1.083   1_556 S
C754   C757    1.461   .     S
C754   O783    1.268   .     A
C754   O781    1.278   .     A
C755   O782    1.282   .     A
C755   O784    1.287   .     A
C758   H776    1.084   .     S
C759   O785    1.221   .     D
C759   H769    1.085   .     S
C760   O786    1.221   .     D
C760   H770    1.085   .     S
C761   H777    1.076   .     S
C762   C763    1.429   .     A
C762   C248    1.418   1_556 S
C762   C251    1.426   1_556 S
C763   C767    1.419   .     A
C765   C766    1.392   .     A
C765   C243    1.400   1_556 S
C765   C251    1.418   1_556 S
C766   H773    1.084   .     S
C766   C767    1.387   .     A
C767   I779    2.138   .     S
H768   C805    1.086   .     S
H772   C921    1.086   .     S
H774   C243    1.085   1_556 S
O780   Zn797   1.917   .     S
O780   Zn798   1.931   .     S
O780   Zn796   1.950   .     S
O780   Zn795   1.963   .     S
O781   Zn796   1.919   .     S
O782   Zn798   1.936   .     S
O783   Zn797   1.935   .     S
O784   Zn795   1.920   .     S
O787   Zn795   1.929   .     S
O788   Zn798   1.926   .     S
O789   Zn796   1.927   .     S
O790   Zn797   1.943   .     S
O791   Zn798   1.936   .     S
O792   Zn795   1.920   .     S
O793   Zn796   1.935   .     S
O794   Zn797   1.933   .     S
C799   O846    1.273   .     A
C799   O848    1.270   .     A
C799   C805    1.440   .     S
C800   C814    1.396   .     A
C800   H832    1.077   .     S
C800   C821    1.412   .     A
C801   C814    1.411   .     A
C801   C816    1.487   .     S
C801   C813    1.398   .     A
C802   O847    1.275   .     A
C802   O849    1.281   .     A
C802   C804    1.466   .     S
C803   C812    1.471   .     S
C803   C815    1.402   .     A
C803   C820    1.419   .     A
C804   C691    1.347   1_655 S
C804   C703    1.498   1_655 S
C806   C809    1.452   .     S
C806   C978    1.332   .     S
C806   H999    1.088   .     S
C807   C808    1.436   .     S
C808   O844    1.281   .     A
C808   O850    1.280   .     A
C809   O845    1.265   .     A
C809   O851    1.266   .     A
C810   C815    1.385   .     A
C810   C305    1.389   1_556 S
C810   H322    1.083   1_556 S
C811   C814    1.461   .     S
C811   O840    1.268   .     A
C811   O838    1.278   .     A
C812   O839    1.282   .     A
C812   O841    1.287   .     A
C815   H833    1.084   .     S
C816   O842    1.221   .     D
C816   H826    1.085   .     S
C817   O843    1.221   .     D
C817   H827    1.085   .     S
C818   H834    1.076   .     S
C819   C820    1.429   .     A
C819   C305    1.418   1_556 S
C819   C308    1.426   1_556 S
C820   C824    1.419   .     A
C822   C823    1.392   .     A
C822   C300    1.400   1_556 S
C822   C308    1.418   1_556 S
C823   H830    1.084   .     S
C823   C824    1.387   .     A
C824   I836    2.138   .     S
H825   C691    1.086   1_655 S
H829   C978    1.086   .     S
H831   C300    1.085   1_556 S
O837   Zn854   1.917   .     S
O837   Zn855   1.931   .     S
O837   Zn853   1.950   .     S
O837   Zn852   1.963   .     S
O838   Zn853   1.919   .     S
O839   Zn855   1.936   .     S
O840   Zn854   1.935   .     S
O841   Zn852   1.920   .     S
O844   Zn852   1.929   .     S
O845   Zn855   1.926   .     S
O846   Zn853   1.927   .     S
O847   Zn854   1.943   .     S
O848   Zn855   1.936   .     S
O849   Zn852   1.920   .     S
O850   Zn853   1.935   .     S
O851   Zn854   1.933   .     S
C856   O903    1.273   .     A
C856   O905    1.270   .     A
C856   C862    1.440   .     S
C857   C871    1.396   .     A
C857   H889    1.077   .     S
C857   C878    1.412   .     A
C858   C871    1.411   .     A
C858   C873    1.487   .     S
C858   C870    1.398   .     A
C859   O904    1.275   .     A
C859   O906    1.281   .     A
C859   C861    1.466   .     S
C860   C869    1.471   .     S
C860   C872    1.402   .     A
C860   C877    1.419   .     A
C861   C919    1.347   .     S
C861   C931    1.498   .     S
C862   C975    1.347   1_455 S
C862   H996    1.086   1_455 S
C863   C866    1.452   .     S
C863   C522    1.332   1_565 S
C863   H543    1.088   1_565 S
C864   C865    1.436   .     S
C865   O901    1.281   .     A
C865   O907    1.280   .     A
C866   O902    1.265   .     A
C866   O908    1.266   .     A
C867   C872    1.385   .     A
C867   C362    1.389   1_556 S
C867   H379    1.083   1_556 S
C868   C871    1.461   .     S
C868   O897    1.268   .     A
C868   O895    1.278   .     A
C869   O896    1.282   .     A
C869   O898    1.287   .     A
C872   H890    1.084   .     S
C873   O899    1.221   .     D
C873   H883    1.085   .     S
C874   O900    1.221   .     D
C874   H884    1.085   .     S
C874   C975    1.498   1_455 S
C875   H891    1.076   .     S
C876   C877    1.429   .     A
C876   C362    1.418   1_556 S
C876   C365    1.426   1_556 S
C877   C881    1.419   .     A
C879   C880    1.392   .     A
C879   C357    1.400   1_556 S
C879   C365    1.418   1_556 S
C880   H887    1.084   .     S
C880   C881    1.387   .     A
C881   I893    2.138   .     S
H882   C919    1.086   .     S
H886   C522    1.086   1_565 S
H888   C357    1.085   1_556 S
O894   Zn911   1.917   .     S
O894   Zn912   1.931   .     S
O894   Zn910   1.950   .     S
O894   Zn909   1.963   .     S
O895   Zn910   1.919   .     S
O896   Zn912   1.936   .     S
O897   Zn911   1.935   .     S
O898   Zn909   1.920   .     S
O901   Zn909   1.929   .     S
O902   Zn912   1.926   .     S
O903   Zn910   1.927   .     S
O904   Zn911   1.943   .     S
O905   Zn912   1.936   .     S
O906   Zn909   1.920   .     S
O907   Zn910   1.935   .     S
O908   Zn911   1.933   .     S
C913   O960    1.273   .     A
C913   O962    1.270   .     A
C913   C919    1.440   .     S
C914   C928    1.396   .     A
C914   H946    1.077   .     S
C914   C935    1.412   .     A
C915   C928    1.411   .     A
C915   C930    1.487   .     S
C915   C927    1.398   .     A
C916   O961    1.275   .     A
C916   O963    1.281   .     A
C916   C918    1.466   .     S
C917   C926    1.471   .     S
C917   C929    1.402   .     A
C917   C934    1.419   .     A
C918   C976    1.347   .     S
C918   C988    1.498   .     S
C920   C923    1.452   .     S
C920   C579    1.332   1_565 S
C920   H600    1.088   1_565 S
C921   C922    1.436   .     S
C922   O958    1.281   .     A
C922   O964    1.280   .     A
C923   O959    1.265   .     A
C923   O965    1.266   .     A
C924   C929    1.385   .     A
C924   C419    1.389   1_556 S
C924   H436    1.083   1_556 S
C925   C928    1.461   .     S
C925   O954    1.268   .     A
C925   O952    1.278   .     A
C926   O953    1.282   .     A
C926   O955    1.287   .     A
C929   H947    1.084   .     S
C930   O956    1.221   .     D
C930   H940    1.085   .     S
C931   O957    1.221   .     D
C931   H941    1.085   .     S
C932   H948    1.076   .     S
C933   C934    1.429   .     A
C933   C419    1.418   1_556 S
C933   C422    1.426   1_556 S
C934   C938    1.419   .     A
C936   C937    1.392   .     A
C936   C414    1.400   1_556 S
C936   C422    1.418   1_556 S
C937   H944    1.084   .     S
C937   C938    1.387   .     A
C938   I950    2.138   .     S
H939   C976    1.086   .     S
H943   C579    1.086   1_565 S
H945   C414    1.085   1_556 S
O951   Zn968   1.917   .     S
O951   Zn969   1.931   .     S
O951   Zn967   1.950   .     S
O951   Zn966   1.963   .     S
O952   Zn967   1.919   .     S
O953   Zn969   1.936   .     S
O954   Zn968   1.935   .     S
O955   Zn966   1.920   .     S
O958   Zn966   1.929   .     S
O959   Zn969   1.926   .     S
O960   Zn967   1.927   .     S
O961   Zn968   1.943   .     S
O962   Zn969   1.936   .     S
O963   Zn966   1.920   .     S
O964   Zn967   1.935   .     S
O965   Zn968   1.933   .     S
C970   O1017   1.273   .     A
C970   O1019   1.270   .     A
C970   C976    1.440   .     S
C971   C985    1.396   .     A
C971   H1003   1.077   .     S
C971   C992    1.412   .     A
C972   C985    1.411   .     A
C972   C987    1.487   .     S
C972   C984    1.398   .     A
C973   O1018   1.275   .     A
C973   O1020   1.281   .     A
C973   C975    1.466   .     S
C974   C983    1.471   .     S
C974   C986    1.402   .     A
C974   C991    1.419   .     A
C975   C862    1.347   1_655 S
C975   C874    1.498   1_655 S
C977   C980    1.452   .     S
C977   C636    1.332   1_565 S
C977   H657    1.088   1_565 S
C978   C979    1.436   .     S
C979   O1015   1.281   .     A
C979   O1021   1.280   .     A
C980   O1016   1.265   .     A
C980   O1022   1.266   .     A
C981   C986    1.385   .     A
C981   C476    1.389   1_556 S
C981   H493    1.083   1_556 S
C982   C985    1.461   .     S
C982   O1011   1.268   .     A
C982   O1009   1.278   .     A
C983   O1010   1.282   .     A
C983   O1012   1.287   .     A
C986   H1004   1.084   .     S
C987   O1013   1.221   .     D
C987   H997    1.085   .     S
C988   O1014   1.221   .     D
C988   H998    1.085   .     S
C989   H1005   1.076   .     S
C990   C991    1.429   .     A
C990   C476    1.418   1_556 S
C990   C479    1.426   1_556 S
C991   C995    1.419   .     A
C993   C994    1.392   .     A
C993   C471    1.400   1_556 S
C993   C479    1.418   1_556 S
C994   H1001   1.084   .     S
C994   C995    1.387   .     A
C995   I1007   2.138   .     S
H996   C862    1.086   1_655 S
H1000  C636    1.086   1_565 S
H1002  C471    1.085   1_556 S
O1008  Zn1025  1.917   .     S
O1008  Zn1026  1.931   .     S
O1008  Zn1024  1.950   .     S
O1008  Zn1023  1.963   .     S
O1009  Zn1024  1.919   .     S
O1010  Zn1026  1.936   .     S
O1011  Zn1025  1.935   .     S
O1012  Zn1023  1.920   .     S
O1015  Zn1023  1.929   .     S
O1016  Zn1026  1.926   .     S
O1017  Zn1024  1.927   .     S
O1018  Zn1025  1.943   .     S
O1019  Zn1026  1.936   .     S
O1020  Zn1023  1.920   .     S
O1021  Zn1024  1.935   .     S
O1022  Zn1025  1.933   .     S
