data_str_m3_o1_o18_pcu_sym.94
_audit_creation_date              2020-01-03
_audit_creation_method            'Materials Studio'
_symmetry_space_group_name_H-M    'P1'
_symmetry_Int_Tables_number       1
_symmetry_cell_setting            triclinic
loop_
_symmetry_equiv_pos_as_xyz
  x,y,z
_cell_length_a                    29.5167
_cell_length_b                    32.1440
_cell_length_c                    31.1211
_cell_angle_alpha                 89.6461
_cell_angle_beta                  68.8445
_cell_angle_gamma                 89.9398
loop_
_atom_site_label
_atom_site_type_symbol
_atom_site_fract_x
_atom_site_fract_y
_atom_site_fract_z
_atom_site_U_iso_or_equiv
_atom_site_adp_type
_atom_site_occupancy
C1     C     0.16670   0.24671   0.24990   0.00000  Uiso   1.00
C2     C     0.12328   0.31206   0.25704   0.00000  Uiso   1.00
C3     C     0.16689   0.04249   0.24925   0.00000  Uiso   1.00
C4     C     0.16680   0.29087   0.24954   0.00000  Uiso   1.00
C5     C     0.31563   0.13334   0.23362   0.00000  Uiso   1.00
C6     C     0.01756   0.19986   0.26673   0.00000  Uiso   1.00
C7     C     0.03010   0.13326   0.23391   0.00000  Uiso   1.00
C8     C     0.30293   0.19983   0.26679   0.00000  Uiso   1.00
C9     C     0.13695   0.16236   0.33730   0.00000  Uiso   1.00
C10    C     0.19658   0.16434   0.16229   0.00000  Uiso   1.00
C11    C     0.12087   0.14790   0.38524   0.00000  Uiso   1.00
C12    C     0.16679   0.08663   0.24964   0.00000  Uiso   1.00
C13    C     0.21437   0.15872   0.11213   0.00000  Uiso   1.00
C14    C     0.05878   0.12772   0.45774   0.00000  Uiso   1.00
C15    C     0.27233   0.17880   0.03857   0.00000  Uiso   1.00
C16    C     0.07166   0.14324   0.41271   0.00000  Uiso   1.00
C17    C     0.25924   0.17531   0.08568   0.00000  Uiso   1.00
C18    C     0.15629   0.13530   0.40302   0.00000  Uiso   1.00
C19    C     0.18482   0.13951   0.09075   0.00000  Uiso   1.00
C20    C     0.14299   0.13377   0.45074   0.00000  Uiso   1.00
C21    C     0.19711   0.14332   0.04200   0.00000  Uiso   1.00
C22    C     0.09486   0.12246   0.47724   0.00000  Uiso   1.00
C23    C     0.12438   0.10375   0.03766   0.00000  Uiso   1.00
C24    C     0.24042   0.16635   0.01660   0.00000  Uiso   1.00
C25    C     0.17618   0.14282   0.47251   0.00000  Uiso   1.00
C26    C     0.16610   0.12943   0.01820   0.00000  Uiso   1.00
C27    C     0.03836   0.08385   0.04885   0.00000  Uiso   1.00
C28    C     0.03224   0.04230   0.02804   0.00000  Uiso   1.00
C29    C     0.29117   0.20743   0.44329   0.00000  Uiso   1.00
C30    C     0.27955   0.25272   0.45759   0.00000  Uiso   1.00
C31    C     0.14067   0.11778   0.12122   0.00000  Uiso   1.00
C32    C     0.19872   0.10956   0.37435   0.00000  Uiso   1.00
C33    C     0.21652   0.16820   0.45020   0.00000  Uiso   1.00
C34    C     0.08612   0.10448   0.02083   0.00000  Uiso   1.00
C35    C     0.24962   0.17880   0.47055   0.00000  Uiso   1.00
C36    C     0.21041   0.31205   0.24162   0.00000  Uiso   1.00
C37    C     0.12333   0.02132   0.25688   0.00000  Uiso   1.00
C38    C     0.21047   0.02132   0.24142   0.00000  Uiso   1.00
H39    H     0.28295   0.18840   0.10179   0.00000  Uiso   1.00
H40    H     0.08928   0.29586   0.26336   0.00000  Uiso   1.00
H41    H     0.30263   0.10672   0.22036   0.00000  Uiso   1.00
H42    H     0.03048   0.22639   0.28022   0.00000  Uiso   1.00
H43    H     0.05299   0.10644   0.22123   0.00000  Uiso   1.00
H44    H     0.27965   0.22632   0.28033   0.00000  Uiso   1.00
H45    H     0.03182   0.04666   0.49279   0.00000  Uiso   1.00
H46    H     0.06241   0.02097   0.02652   0.00000  Uiso   1.00
H47    H     0.33069   0.02774   0.04986   0.00000  Uiso   1.00
H48    H     0.03651   0.07792   0.08469   0.00000  Uiso   1.00
H49    H     0.00749   0.10482   0.05179   0.00000  Uiso   1.00
H50    H     0.04376   0.14906   0.39849   0.00000  Uiso   1.00
H51    H     0.24631   0.26271   0.45151   0.00000  Uiso   1.00
H52    H     0.27380   0.25688   0.49457   0.00000  Uiso   1.00
H53    H     0.31026   0.27287   0.43680   0.00000  Uiso   1.00
H54    H     0.32564   0.19815   0.44701   0.00000  Uiso   1.00
H55    H     0.29823   0.20522   0.40576   0.00000  Uiso   1.00
H56    H     0.11276   0.06751   0.16110   0.00000  Uiso   1.00
H57    H     0.22427   0.06736   0.32359   0.00000  Uiso   1.00
H58    H     0.02092   0.12118   0.47704   0.00000  Uiso   1.00
H59    H     0.30649   0.19411   0.02043   0.00000  Uiso   1.00
H60    H     0.12072   0.08211   0.06511   0.00000  Uiso   1.00
H61    H     0.22171   0.18120   0.41652   0.00000  Uiso   1.00
H62    H     0.24438   0.29583   0.23543   0.00000  Uiso   1.00
H63    H     0.08936   0.03752   0.26308   0.00000  Uiso   1.00
H64    H     0.24445   0.03754   0.23510   0.00000  Uiso   1.00
N65    N     0.04759   0.16668   0.25001   0.00000  Uiso   1.00
N66    N     0.28574   0.16666   0.24999   0.00000  Uiso   1.00
O67    O     0.12846   0.22775   0.25001   0.00000  Uiso   1.00
O68    O     0.14527   0.07975   0.14130   0.00000  Uiso   1.00
O69    O     0.23633   0.10825   0.38230   0.00000  Uiso   1.00
O70    O     0.19393   0.08423   0.33991   0.00000  Uiso   1.00
O71    O     0.20488   0.10558   0.25000   0.00000  Uiso   1.00
O72    O     0.20490   0.22774   0.25000   0.00000  Uiso   1.00
O73    O     0.12843   0.10559   0.25000   0.00000  Uiso   1.00
O74    O     0.10661   0.16667   0.31613   0.00000  Uiso   1.00
O75    O     0.22672   0.16666   0.18388   0.00000  Uiso   1.00
O76    O     0.18305   0.16666   0.31612   0.00000  Uiso   1.00
O77    O     0.15028   0.16667   0.18388   0.00000  Uiso   1.00
O78    O     0.10072   0.13374   0.12985   0.00000  Uiso   1.00
Zn79   Zn    0.11562   0.16667   0.25000   0.00000  Uiso   1.00
Zn80   Zn    0.21771   0.16666   0.25000   0.00000  Uiso   1.00
C81    C     0.50003   0.24671   0.24990   0.00000  Uiso   1.00
C82    C     0.45662   0.31206   0.25704   0.00000  Uiso   1.00
C83    C     0.50022   0.04249   0.24925   0.00000  Uiso   1.00
C84    C     0.50013   0.29087   0.24954   0.00000  Uiso   1.00
C85    C     0.64896   0.13334   0.23362   0.00000  Uiso   1.00
C86    C     0.35089   0.19986   0.26673   0.00000  Uiso   1.00
C87    C     0.36343   0.13326   0.23391   0.00000  Uiso   1.00
C88    C     0.63626   0.19983   0.26679   0.00000  Uiso   1.00
C89    C     0.47028   0.16236   0.33730   0.00000  Uiso   1.00
C90    C     0.52991   0.16434   0.16229   0.00000  Uiso   1.00
C91    C     0.45420   0.14790   0.38524   0.00000  Uiso   1.00
C92    C     0.50012   0.08663   0.24964   0.00000  Uiso   1.00
C93    C     0.54770   0.15872   0.11213   0.00000  Uiso   1.00
C94    C     0.39211   0.12772   0.45774   0.00000  Uiso   1.00
C95    C     0.60567   0.17880   0.03857   0.00000  Uiso   1.00
C96    C     0.40499   0.14324   0.41271   0.00000  Uiso   1.00
C97    C     0.59257   0.17531   0.08568   0.00000  Uiso   1.00
C98    C     0.48962   0.13530   0.40302   0.00000  Uiso   1.00
C99    C     0.51816   0.13951   0.09075   0.00000  Uiso   1.00
C100   C     0.47633   0.13377   0.45074   0.00000  Uiso   1.00
C101   C     0.53045   0.14332   0.04200   0.00000  Uiso   1.00
C102   C     0.42820   0.12246   0.47724   0.00000  Uiso   1.00
C103   C     0.45771   0.10375   0.03766   0.00000  Uiso   1.00
C104   C     0.57375   0.16635   0.01660   0.00000  Uiso   1.00
C105   C     0.50952   0.14282   0.47251   0.00000  Uiso   1.00
C106   C     0.49944   0.12943   0.01820   0.00000  Uiso   1.00
C107   C     0.37169   0.08385   0.04885   0.00000  Uiso   1.00
C108   C     0.36557   0.04230   0.02804   0.00000  Uiso   1.00
C109   C     0.62451   0.20743   0.44329   0.00000  Uiso   1.00
C110   C     0.61288   0.25272   0.45759   0.00000  Uiso   1.00
C111   C     0.47401   0.11778   0.12122   0.00000  Uiso   1.00
C112   C     0.53206   0.10956   0.37435   0.00000  Uiso   1.00
C113   C     0.54985   0.16820   0.45020   0.00000  Uiso   1.00
C114   C     0.41946   0.10448   0.02083   0.00000  Uiso   1.00
C115   C     0.58296   0.17880   0.47055   0.00000  Uiso   1.00
C116   C     0.54375   0.31205   0.24162   0.00000  Uiso   1.00
C117   C     0.45666   0.02132   0.25688   0.00000  Uiso   1.00
C118   C     0.54380   0.02132   0.24142   0.00000  Uiso   1.00
H119   H     0.61628   0.18840   0.10179   0.00000  Uiso   1.00
H120   H     0.42262   0.29586   0.26336   0.00000  Uiso   1.00
H121   H     0.63596   0.10672   0.22036   0.00000  Uiso   1.00
H122   H     0.36381   0.22639   0.28022   0.00000  Uiso   1.00
H123   H     0.38632   0.10644   0.22123   0.00000  Uiso   1.00
H124   H     0.61298   0.22632   0.28033   0.00000  Uiso   1.00
H125   H     0.36515   0.04666   0.49279   0.00000  Uiso   1.00
H126   H     0.39574   0.02097   0.02652   0.00000  Uiso   1.00
H127   H     0.66403   0.02774   0.04986   0.00000  Uiso   1.00
H128   H     0.36984   0.07792   0.08469   0.00000  Uiso   1.00
H129   H     0.34082   0.10482   0.05179   0.00000  Uiso   1.00
H130   H     0.37709   0.14906   0.39849   0.00000  Uiso   1.00
H131   H     0.57964   0.26271   0.45151   0.00000  Uiso   1.00
H132   H     0.60714   0.25688   0.49457   0.00000  Uiso   1.00
H133   H     0.64359   0.27287   0.43680   0.00000  Uiso   1.00
H134   H     0.65898   0.19815   0.44701   0.00000  Uiso   1.00
H135   H     0.63156   0.20522   0.40576   0.00000  Uiso   1.00
H136   H     0.44610   0.06751   0.16110   0.00000  Uiso   1.00
H137   H     0.55761   0.06736   0.32359   0.00000  Uiso   1.00
H138   H     0.35425   0.12118   0.47704   0.00000  Uiso   1.00
H139   H     0.63982   0.19411   0.02043   0.00000  Uiso   1.00
H140   H     0.45405   0.08211   0.06511   0.00000  Uiso   1.00
H141   H     0.55504   0.18120   0.41652   0.00000  Uiso   1.00
H142   H     0.57771   0.29583   0.23543   0.00000  Uiso   1.00
H143   H     0.42269   0.03752   0.26308   0.00000  Uiso   1.00
H144   H     0.57778   0.03754   0.23510   0.00000  Uiso   1.00
N145   N     0.38093   0.16668   0.25001   0.00000  Uiso   1.00
N146   N     0.61907   0.16666   0.24999   0.00000  Uiso   1.00
O147   O     0.46179   0.22775   0.25001   0.00000  Uiso   1.00
O148   O     0.47860   0.07975   0.14130   0.00000  Uiso   1.00
O149   O     0.56966   0.10825   0.38230   0.00000  Uiso   1.00
O150   O     0.52727   0.08423   0.33991   0.00000  Uiso   1.00
O151   O     0.53821   0.10558   0.25000   0.00000  Uiso   1.00
O152   O     0.53823   0.22774   0.25000   0.00000  Uiso   1.00
O153   O     0.46177   0.10559   0.25000   0.00000  Uiso   1.00
O154   O     0.43994   0.16667   0.31613   0.00000  Uiso   1.00
O155   O     0.56006   0.16666   0.18388   0.00000  Uiso   1.00
O156   O     0.51639   0.16666   0.31612   0.00000  Uiso   1.00
O157   O     0.48361   0.16667   0.18388   0.00000  Uiso   1.00
O158   O     0.43406   0.13374   0.12985   0.00000  Uiso   1.00
Zn159  Zn    0.44896   0.16667   0.25000   0.00000  Uiso   1.00
Zn160  Zn    0.55104   0.16666   0.25000   0.00000  Uiso   1.00
C161   C     0.83337   0.24671   0.24990   0.00000  Uiso   1.00
C162   C     0.78995   0.31206   0.25704   0.00000  Uiso   1.00
C163   C     0.83355   0.04249   0.24925   0.00000  Uiso   1.00
C164   C     0.83346   0.29087   0.24954   0.00000  Uiso   1.00
C165   C     0.98229   0.13334   0.23362   0.00000  Uiso   1.00
C166   C     0.68423   0.19986   0.26673   0.00000  Uiso   1.00
C167   C     0.69677   0.13326   0.23391   0.00000  Uiso   1.00
C168   C     0.96960   0.19983   0.26679   0.00000  Uiso   1.00
C169   C     0.80362   0.16236   0.33730   0.00000  Uiso   1.00
C170   C     0.86325   0.16434   0.16229   0.00000  Uiso   1.00
C171   C     0.78754   0.14790   0.38524   0.00000  Uiso   1.00
C172   C     0.83345   0.08663   0.24964   0.00000  Uiso   1.00
C173   C     0.88103   0.15872   0.11213   0.00000  Uiso   1.00
C174   C     0.72544   0.12772   0.45774   0.00000  Uiso   1.00
C175   C     0.93900   0.17880   0.03857   0.00000  Uiso   1.00
C176   C     0.73832   0.14324   0.41271   0.00000  Uiso   1.00
C177   C     0.92591   0.17531   0.08568   0.00000  Uiso   1.00
C178   C     0.82295   0.13530   0.40302   0.00000  Uiso   1.00
C179   C     0.85149   0.13951   0.09075   0.00000  Uiso   1.00
C180   C     0.80966   0.13377   0.45074   0.00000  Uiso   1.00
C181   C     0.86378   0.14332   0.04200   0.00000  Uiso   1.00
C182   C     0.76153   0.12246   0.47724   0.00000  Uiso   1.00
C183   C     0.79105   0.10375   0.03766   0.00000  Uiso   1.00
C184   C     0.90708   0.16635   0.01660   0.00000  Uiso   1.00
C185   C     0.84285   0.14282   0.47251   0.00000  Uiso   1.00
C186   C     0.83277   0.12943   0.01820   0.00000  Uiso   1.00
C187   C     0.70502   0.08385   0.04885   0.00000  Uiso   1.00
C188   C     0.69891   0.04230   0.02804   0.00000  Uiso   1.00
C189   C     0.95784   0.20743   0.44329   0.00000  Uiso   1.00
C190   C     0.94621   0.25272   0.45759   0.00000  Uiso   1.00
C191   C     0.80734   0.11778   0.12122   0.00000  Uiso   1.00
C192   C     0.86539   0.10956   0.37435   0.00000  Uiso   1.00
C193   C     0.88318   0.16820   0.45020   0.00000  Uiso   1.00
C194   C     0.75279   0.10448   0.02083   0.00000  Uiso   1.00
C195   C     0.91629   0.17880   0.47055   0.00000  Uiso   1.00
C196   C     0.87708   0.31205   0.24162   0.00000  Uiso   1.00
C197   C     0.79000   0.02132   0.25688   0.00000  Uiso   1.00
C198   C     0.87713   0.02132   0.24142   0.00000  Uiso   1.00
H199   H     0.94962   0.18840   0.10179   0.00000  Uiso   1.00
H200   H     0.75595   0.29586   0.26336   0.00000  Uiso   1.00
H201   H     0.96930   0.10672   0.22036   0.00000  Uiso   1.00
H202   H     0.69715   0.22639   0.28022   0.00000  Uiso   1.00
H203   H     0.71966   0.10644   0.22123   0.00000  Uiso   1.00
H204   H     0.94631   0.22632   0.28033   0.00000  Uiso   1.00
H205   H     0.69849   0.04666   0.49279   0.00000  Uiso   1.00
H206   H     0.72908   0.02097   0.02652   0.00000  Uiso   1.00
H207   H     0.99736   0.02774   0.04986   0.00000  Uiso   1.00
H208   H     0.70317   0.07792   0.08469   0.00000  Uiso   1.00
H209   H     0.67415   0.10482   0.05179   0.00000  Uiso   1.00
H210   H     0.71042   0.14906   0.39849   0.00000  Uiso   1.00
H211   H     0.91297   0.26271   0.45151   0.00000  Uiso   1.00
H212   H     0.94047   0.25688   0.49457   0.00000  Uiso   1.00
H213   H     0.97693   0.27287   0.43680   0.00000  Uiso   1.00
H214   H     0.99231   0.19815   0.44701   0.00000  Uiso   1.00
H215   H     0.96490   0.20522   0.40576   0.00000  Uiso   1.00
H216   H     0.77943   0.06751   0.16110   0.00000  Uiso   1.00
H217   H     0.89094   0.06736   0.32359   0.00000  Uiso   1.00
H218   H     0.68758   0.12118   0.47704   0.00000  Uiso   1.00
H219   H     0.97315   0.19411   0.02043   0.00000  Uiso   1.00
H220   H     0.78739   0.08211   0.06511   0.00000  Uiso   1.00
H221   H     0.88837   0.18120   0.41652   0.00000  Uiso   1.00
H222   H     0.91104   0.29583   0.23543   0.00000  Uiso   1.00
H223   H     0.75603   0.03752   0.26308   0.00000  Uiso   1.00
H224   H     0.91112   0.03754   0.23510   0.00000  Uiso   1.00
N225   N     0.71426   0.16668   0.25001   0.00000  Uiso   1.00
N226   N     0.95241   0.16666   0.24999   0.00000  Uiso   1.00
O227   O     0.79512   0.22775   0.25001   0.00000  Uiso   1.00
O228   O     0.81194   0.07975   0.14130   0.00000  Uiso   1.00
O229   O     0.90300   0.10825   0.38230   0.00000  Uiso   1.00
O230   O     0.86060   0.08423   0.33991   0.00000  Uiso   1.00
O231   O     0.87154   0.10558   0.25000   0.00000  Uiso   1.00
O232   O     0.87157   0.22774   0.25000   0.00000  Uiso   1.00
O233   O     0.79510   0.10559   0.25000   0.00000  Uiso   1.00
O234   O     0.77328   0.16667   0.31613   0.00000  Uiso   1.00
O235   O     0.89339   0.16666   0.18388   0.00000  Uiso   1.00
O236   O     0.84972   0.16666   0.31612   0.00000  Uiso   1.00
O237   O     0.81695   0.16667   0.18388   0.00000  Uiso   1.00
O238   O     0.76739   0.13374   0.12985   0.00000  Uiso   1.00
Zn239  Zn    0.78229   0.16667   0.25000   0.00000  Uiso   1.00
Zn240  Zn    0.88438   0.16666   0.25000   0.00000  Uiso   1.00
C241   C     0.16670   0.58005   0.24990   0.00000  Uiso   1.00
C242   C     0.12328   0.64539   0.25704   0.00000  Uiso   1.00
C243   C     0.16689   0.37583   0.24925   0.00000  Uiso   1.00
C244   C     0.16680   0.62420   0.24954   0.00000  Uiso   1.00
C245   C     0.31563   0.46668   0.23362   0.00000  Uiso   1.00
C246   C     0.01756   0.53320   0.26673   0.00000  Uiso   1.00
C247   C     0.03010   0.46659   0.23391   0.00000  Uiso   1.00
C248   C     0.30293   0.53316   0.26679   0.00000  Uiso   1.00
C249   C     0.13695   0.49569   0.33730   0.00000  Uiso   1.00
C250   C     0.19658   0.49767   0.16229   0.00000  Uiso   1.00
C251   C     0.12087   0.48123   0.38524   0.00000  Uiso   1.00
C252   C     0.16679   0.41996   0.24964   0.00000  Uiso   1.00
C253   C     0.21437   0.49205   0.11213   0.00000  Uiso   1.00
C254   C     0.05878   0.46105   0.45774   0.00000  Uiso   1.00
C255   C     0.27233   0.51214   0.03857   0.00000  Uiso   1.00
C256   C     0.07166   0.47657   0.41271   0.00000  Uiso   1.00
C257   C     0.25924   0.50864   0.08568   0.00000  Uiso   1.00
C258   C     0.15629   0.46864   0.40302   0.00000  Uiso   1.00
C259   C     0.18482   0.47285   0.09075   0.00000  Uiso   1.00
C260   C     0.14299   0.46710   0.45074   0.00000  Uiso   1.00
C261   C     0.19711   0.47666   0.04200   0.00000  Uiso   1.00
C262   C     0.09486   0.45580   0.47724   0.00000  Uiso   1.00
C263   C     0.12438   0.43709   0.03766   0.00000  Uiso   1.00
C264   C     0.24042   0.49969   0.01660   0.00000  Uiso   1.00
C265   C     0.17618   0.47615   0.47251   0.00000  Uiso   1.00
C266   C     0.16610   0.46276   0.01820   0.00000  Uiso   1.00
C267   C     0.03836   0.41719   0.04885   0.00000  Uiso   1.00
C268   C     0.03224   0.37564   0.02804   0.00000  Uiso   1.00
C269   C     0.29117   0.54076   0.44329   0.00000  Uiso   1.00
C270   C     0.27955   0.58605   0.45759   0.00000  Uiso   1.00
C271   C     0.14067   0.45111   0.12122   0.00000  Uiso   1.00
C272   C     0.19872   0.44289   0.37435   0.00000  Uiso   1.00
C273   C     0.21652   0.50154   0.45020   0.00000  Uiso   1.00
C274   C     0.08612   0.43781   0.02083   0.00000  Uiso   1.00
C275   C     0.24962   0.51213   0.47055   0.00000  Uiso   1.00
C276   C     0.21041   0.64538   0.24162   0.00000  Uiso   1.00
C277   C     0.12333   0.35465   0.25688   0.00000  Uiso   1.00
C278   C     0.21047   0.35465   0.24142   0.00000  Uiso   1.00
H279   H     0.28295   0.52174   0.10179   0.00000  Uiso   1.00
H280   H     0.08928   0.62919   0.26336   0.00000  Uiso   1.00
H281   H     0.30263   0.44005   0.22036   0.00000  Uiso   1.00
H282   H     0.03048   0.55972   0.28022   0.00000  Uiso   1.00
H283   H     0.05299   0.43978   0.22123   0.00000  Uiso   1.00
H284   H     0.27965   0.55966   0.28033   0.00000  Uiso   1.00
H285   H     0.03182   0.37999   0.49279   0.00000  Uiso   1.00
H286   H     0.06241   0.35430   0.02652   0.00000  Uiso   1.00
H287   H     0.33069   0.36107   0.04986   0.00000  Uiso   1.00
H288   H     0.03651   0.41125   0.08469   0.00000  Uiso   1.00
H289   H     0.00749   0.43816   0.05179   0.00000  Uiso   1.00
H290   H     0.04376   0.48239   0.39849   0.00000  Uiso   1.00
H291   H     0.24631   0.59604   0.45151   0.00000  Uiso   1.00
H292   H     0.27380   0.59021   0.49457   0.00000  Uiso   1.00
H293   H     0.31026   0.60620   0.43680   0.00000  Uiso   1.00
H294   H     0.32564   0.53149   0.44701   0.00000  Uiso   1.00
H295   H     0.29823   0.53856   0.40576   0.00000  Uiso   1.00
H296   H     0.11276   0.40084   0.16110   0.00000  Uiso   1.00
H297   H     0.22427   0.40069   0.32359   0.00000  Uiso   1.00
H298   H     0.02092   0.45451   0.47704   0.00000  Uiso   1.00
H299   H     0.30649   0.52744   0.02043   0.00000  Uiso   1.00
H300   H     0.12072   0.41544   0.06511   0.00000  Uiso   1.00
H301   H     0.22171   0.51453   0.41652   0.00000  Uiso   1.00
H302   H     0.24438   0.62916   0.23543   0.00000  Uiso   1.00
H303   H     0.08936   0.37086   0.26308   0.00000  Uiso   1.00
H304   H     0.24445   0.37087   0.23510   0.00000  Uiso   1.00
N305   N     0.04759   0.50001   0.25001   0.00000  Uiso   1.00
N306   N     0.28574   0.49999   0.24999   0.00000  Uiso   1.00
O307   O     0.12846   0.56108   0.25001   0.00000  Uiso   1.00
O308   O     0.14527   0.41309   0.14130   0.00000  Uiso   1.00
O309   O     0.23633   0.44158   0.38230   0.00000  Uiso   1.00
O310   O     0.19393   0.41757   0.33991   0.00000  Uiso   1.00
O311   O     0.20488   0.43892   0.25000   0.00000  Uiso   1.00
O312   O     0.20490   0.56107   0.25000   0.00000  Uiso   1.00
O313   O     0.12843   0.43893   0.25000   0.00000  Uiso   1.00
O314   O     0.10661   0.50001   0.31613   0.00000  Uiso   1.00
O315   O     0.22672   0.49999   0.18388   0.00000  Uiso   1.00
O316   O     0.18305   0.50000   0.31612   0.00000  Uiso   1.00
O317   O     0.15028   0.50000   0.18388   0.00000  Uiso   1.00
O318   O     0.10072   0.46708   0.12985   0.00000  Uiso   1.00
Zn319  Zn    0.11562   0.50001   0.25000   0.00000  Uiso   1.00
Zn320  Zn    0.21771   0.49999   0.25000   0.00000  Uiso   1.00
C321   C     0.50003   0.58005   0.24990   0.00000  Uiso   1.00
C322   C     0.45662   0.64539   0.25704   0.00000  Uiso   1.00
C323   C     0.50022   0.37583   0.24925   0.00000  Uiso   1.00
C324   C     0.50013   0.62420   0.24954   0.00000  Uiso   1.00
C325   C     0.64896   0.46668   0.23362   0.00000  Uiso   1.00
C326   C     0.35089   0.53320   0.26673   0.00000  Uiso   1.00
C327   C     0.36343   0.46659   0.23391   0.00000  Uiso   1.00
C328   C     0.63626   0.53316   0.26679   0.00000  Uiso   1.00
C329   C     0.47028   0.49569   0.33730   0.00000  Uiso   1.00
C330   C     0.52991   0.49767   0.16229   0.00000  Uiso   1.00
C331   C     0.45420   0.48123   0.38524   0.00000  Uiso   1.00
C332   C     0.50012   0.41996   0.24964   0.00000  Uiso   1.00
C333   C     0.54770   0.49205   0.11213   0.00000  Uiso   1.00
C334   C     0.39211   0.46105   0.45774   0.00000  Uiso   1.00
C335   C     0.60567   0.51214   0.03857   0.00000  Uiso   1.00
C336   C     0.40499   0.47657   0.41271   0.00000  Uiso   1.00
C337   C     0.59257   0.50864   0.08568   0.00000  Uiso   1.00
C338   C     0.48962   0.46864   0.40302   0.00000  Uiso   1.00
C339   C     0.51816   0.47285   0.09075   0.00000  Uiso   1.00
C340   C     0.47633   0.46710   0.45074   0.00000  Uiso   1.00
C341   C     0.53045   0.47666   0.04200   0.00000  Uiso   1.00
C342   C     0.42820   0.45580   0.47724   0.00000  Uiso   1.00
C343   C     0.45771   0.43709   0.03766   0.00000  Uiso   1.00
C344   C     0.57375   0.49969   0.01660   0.00000  Uiso   1.00
C345   C     0.50952   0.47615   0.47251   0.00000  Uiso   1.00
C346   C     0.49944   0.46276   0.01820   0.00000  Uiso   1.00
C347   C     0.37169   0.41719   0.04885   0.00000  Uiso   1.00
C348   C     0.36557   0.37564   0.02804   0.00000  Uiso   1.00
C349   C     0.62451   0.54076   0.44329   0.00000  Uiso   1.00
C350   C     0.61288   0.58605   0.45759   0.00000  Uiso   1.00
C351   C     0.47401   0.45111   0.12122   0.00000  Uiso   1.00
C352   C     0.53206   0.44289   0.37435   0.00000  Uiso   1.00
C353   C     0.54985   0.50154   0.45020   0.00000  Uiso   1.00
C354   C     0.41946   0.43781   0.02083   0.00000  Uiso   1.00
C355   C     0.58296   0.51213   0.47055   0.00000  Uiso   1.00
C356   C     0.54375   0.64538   0.24162   0.00000  Uiso   1.00
C357   C     0.45666   0.35465   0.25688   0.00000  Uiso   1.00
C358   C     0.54380   0.35465   0.24142   0.00000  Uiso   1.00
H359   H     0.61628   0.52174   0.10179   0.00000  Uiso   1.00
H360   H     0.42262   0.62919   0.26336   0.00000  Uiso   1.00
H361   H     0.63596   0.44005   0.22036   0.00000  Uiso   1.00
H362   H     0.36381   0.55972   0.28022   0.00000  Uiso   1.00
H363   H     0.38632   0.43978   0.22123   0.00000  Uiso   1.00
H364   H     0.61298   0.55966   0.28033   0.00000  Uiso   1.00
H365   H     0.36515   0.37999   0.49279   0.00000  Uiso   1.00
H366   H     0.39574   0.35430   0.02652   0.00000  Uiso   1.00
H367   H     0.66403   0.36107   0.04986   0.00000  Uiso   1.00
H368   H     0.36984   0.41125   0.08469   0.00000  Uiso   1.00
H369   H     0.34082   0.43816   0.05179   0.00000  Uiso   1.00
H370   H     0.37709   0.48239   0.39849   0.00000  Uiso   1.00
H371   H     0.57964   0.59604   0.45151   0.00000  Uiso   1.00
H372   H     0.60714   0.59021   0.49457   0.00000  Uiso   1.00
H373   H     0.64359   0.60620   0.43680   0.00000  Uiso   1.00
H374   H     0.65898   0.53149   0.44701   0.00000  Uiso   1.00
H375   H     0.63156   0.53856   0.40576   0.00000  Uiso   1.00
H376   H     0.44610   0.40084   0.16110   0.00000  Uiso   1.00
H377   H     0.55761   0.40069   0.32359   0.00000  Uiso   1.00
H378   H     0.35425   0.45451   0.47704   0.00000  Uiso   1.00
H379   H     0.63982   0.52744   0.02043   0.00000  Uiso   1.00
H380   H     0.45405   0.41544   0.06511   0.00000  Uiso   1.00
H381   H     0.55504   0.51453   0.41652   0.00000  Uiso   1.00
H382   H     0.57771   0.62916   0.23543   0.00000  Uiso   1.00
H383   H     0.42269   0.37086   0.26308   0.00000  Uiso   1.00
H384   H     0.57778   0.37087   0.23510   0.00000  Uiso   1.00
N385   N     0.38093   0.50001   0.25001   0.00000  Uiso   1.00
N386   N     0.61907   0.49999   0.24999   0.00000  Uiso   1.00
O387   O     0.46179   0.56108   0.25001   0.00000  Uiso   1.00
O388   O     0.47860   0.41309   0.14130   0.00000  Uiso   1.00
O389   O     0.56966   0.44158   0.38230   0.00000  Uiso   1.00
O390   O     0.52727   0.41757   0.33991   0.00000  Uiso   1.00
O391   O     0.53821   0.43892   0.25000   0.00000  Uiso   1.00
O392   O     0.53823   0.56107   0.25000   0.00000  Uiso   1.00
O393   O     0.46177   0.43893   0.25000   0.00000  Uiso   1.00
O394   O     0.43994   0.50001   0.31613   0.00000  Uiso   1.00
O395   O     0.56006   0.49999   0.18388   0.00000  Uiso   1.00
O396   O     0.51639   0.50000   0.31612   0.00000  Uiso   1.00
O397   O     0.48361   0.50000   0.18388   0.00000  Uiso   1.00
O398   O     0.43406   0.46708   0.12985   0.00000  Uiso   1.00
Zn399  Zn    0.44896   0.50001   0.25000   0.00000  Uiso   1.00
Zn400  Zn    0.55104   0.49999   0.25000   0.00000  Uiso   1.00
C401   C     0.83337   0.58005   0.24990   0.00000  Uiso   1.00
C402   C     0.78995   0.64539   0.25704   0.00000  Uiso   1.00
C403   C     0.83355   0.37583   0.24925   0.00000  Uiso   1.00
C404   C     0.83346   0.62420   0.24954   0.00000  Uiso   1.00
C405   C     0.98229   0.46668   0.23362   0.00000  Uiso   1.00
C406   C     0.68423   0.53320   0.26673   0.00000  Uiso   1.00
C407   C     0.69677   0.46659   0.23391   0.00000  Uiso   1.00
C408   C     0.96960   0.53316   0.26679   0.00000  Uiso   1.00
C409   C     0.80362   0.49569   0.33730   0.00000  Uiso   1.00
C410   C     0.86325   0.49767   0.16229   0.00000  Uiso   1.00
C411   C     0.78754   0.48123   0.38524   0.00000  Uiso   1.00
C412   C     0.83345   0.41996   0.24964   0.00000  Uiso   1.00
C413   C     0.88103   0.49205   0.11213   0.00000  Uiso   1.00
C414   C     0.72544   0.46105   0.45774   0.00000  Uiso   1.00
C415   C     0.93900   0.51214   0.03857   0.00000  Uiso   1.00
C416   C     0.73832   0.47657   0.41271   0.00000  Uiso   1.00
C417   C     0.92591   0.50864   0.08568   0.00000  Uiso   1.00
C418   C     0.82295   0.46864   0.40302   0.00000  Uiso   1.00
C419   C     0.85149   0.47285   0.09075   0.00000  Uiso   1.00
C420   C     0.80966   0.46710   0.45074   0.00000  Uiso   1.00
C421   C     0.86378   0.47666   0.04200   0.00000  Uiso   1.00
C422   C     0.76153   0.45580   0.47724   0.00000  Uiso   1.00
C423   C     0.79105   0.43709   0.03766   0.00000  Uiso   1.00
C424   C     0.90708   0.49969   0.01660   0.00000  Uiso   1.00
C425   C     0.84285   0.47615   0.47251   0.00000  Uiso   1.00
C426   C     0.83277   0.46276   0.01820   0.00000  Uiso   1.00
C427   C     0.70502   0.41719   0.04885   0.00000  Uiso   1.00
C428   C     0.69891   0.37564   0.02804   0.00000  Uiso   1.00
C429   C     0.95784   0.54076   0.44329   0.00000  Uiso   1.00
C430   C     0.94621   0.58605   0.45759   0.00000  Uiso   1.00
C431   C     0.80734   0.45111   0.12122   0.00000  Uiso   1.00
C432   C     0.86539   0.44289   0.37435   0.00000  Uiso   1.00
C433   C     0.88318   0.50154   0.45020   0.00000  Uiso   1.00
C434   C     0.75279   0.43781   0.02083   0.00000  Uiso   1.00
C435   C     0.91629   0.51213   0.47055   0.00000  Uiso   1.00
C436   C     0.87708   0.64538   0.24162   0.00000  Uiso   1.00
C437   C     0.79000   0.35465   0.25688   0.00000  Uiso   1.00
C438   C     0.87713   0.35465   0.24142   0.00000  Uiso   1.00
H439   H     0.94962   0.52174   0.10179   0.00000  Uiso   1.00
H440   H     0.75595   0.62919   0.26336   0.00000  Uiso   1.00
H441   H     0.96930   0.44005   0.22036   0.00000  Uiso   1.00
H442   H     0.69715   0.55972   0.28022   0.00000  Uiso   1.00
H443   H     0.71966   0.43978   0.22123   0.00000  Uiso   1.00
H444   H     0.94631   0.55966   0.28033   0.00000  Uiso   1.00
H445   H     0.69849   0.37999   0.49279   0.00000  Uiso   1.00
H446   H     0.72908   0.35430   0.02652   0.00000  Uiso   1.00
H447   H     0.99736   0.36107   0.04986   0.00000  Uiso   1.00
H448   H     0.70317   0.41125   0.08469   0.00000  Uiso   1.00
H449   H     0.67415   0.43816   0.05179   0.00000  Uiso   1.00
H450   H     0.71042   0.48239   0.39849   0.00000  Uiso   1.00
H451   H     0.91297   0.59604   0.45151   0.00000  Uiso   1.00
H452   H     0.94047   0.59021   0.49457   0.00000  Uiso   1.00
H453   H     0.97693   0.60620   0.43680   0.00000  Uiso   1.00
H454   H     0.99231   0.53149   0.44701   0.00000  Uiso   1.00
H455   H     0.96490   0.53856   0.40576   0.00000  Uiso   1.00
H456   H     0.77943   0.40084   0.16110   0.00000  Uiso   1.00
H457   H     0.89094   0.40069   0.32359   0.00000  Uiso   1.00
H458   H     0.68758   0.45451   0.47704   0.00000  Uiso   1.00
H459   H     0.97315   0.52744   0.02043   0.00000  Uiso   1.00
H460   H     0.78739   0.41544   0.06511   0.00000  Uiso   1.00
H461   H     0.88837   0.51453   0.41652   0.00000  Uiso   1.00
H462   H     0.91104   0.62916   0.23543   0.00000  Uiso   1.00
H463   H     0.75603   0.37086   0.26308   0.00000  Uiso   1.00
H464   H     0.91112   0.37087   0.23510   0.00000  Uiso   1.00
N465   N     0.71426   0.50001   0.25001   0.00000  Uiso   1.00
N466   N     0.95241   0.49999   0.24999   0.00000  Uiso   1.00
O467   O     0.79512   0.56108   0.25001   0.00000  Uiso   1.00
O468   O     0.81194   0.41309   0.14130   0.00000  Uiso   1.00
O469   O     0.90300   0.44158   0.38230   0.00000  Uiso   1.00
O470   O     0.86060   0.41757   0.33991   0.00000  Uiso   1.00
O471   O     0.87154   0.43892   0.25000   0.00000  Uiso   1.00
O472   O     0.87157   0.56107   0.25000   0.00000  Uiso   1.00
O473   O     0.79510   0.43893   0.25000   0.00000  Uiso   1.00
O474   O     0.77328   0.50001   0.31613   0.00000  Uiso   1.00
O475   O     0.89339   0.49999   0.18388   0.00000  Uiso   1.00
O476   O     0.84972   0.50000   0.31612   0.00000  Uiso   1.00
O477   O     0.81695   0.50000   0.18388   0.00000  Uiso   1.00
O478   O     0.76739   0.46708   0.12985   0.00000  Uiso   1.00
Zn479  Zn    0.78229   0.50001   0.25000   0.00000  Uiso   1.00
Zn480  Zn    0.88438   0.49999   0.25000   0.00000  Uiso   1.00
C481   C     0.16670   0.91338   0.24990   0.00000  Uiso   1.00
C482   C     0.12328   0.97872   0.25704   0.00000  Uiso   1.00
C483   C     0.16689   0.70916   0.24925   0.00000  Uiso   1.00
C484   C     0.16680   0.95754   0.24954   0.00000  Uiso   1.00
C485   C     0.31563   0.80001   0.23362   0.00000  Uiso   1.00
C486   C     0.01756   0.86653   0.26673   0.00000  Uiso   1.00
C487   C     0.03010   0.79993   0.23391   0.00000  Uiso   1.00
C488   C     0.30293   0.86649   0.26679   0.00000  Uiso   1.00
C489   C     0.13695   0.82902   0.33730   0.00000  Uiso   1.00
C490   C     0.19658   0.83100   0.16229   0.00000  Uiso   1.00
C491   C     0.12087   0.81457   0.38524   0.00000  Uiso   1.00
C492   C     0.16679   0.75329   0.24964   0.00000  Uiso   1.00
C493   C     0.21437   0.82538   0.11213   0.00000  Uiso   1.00
C494   C     0.05878   0.79439   0.45774   0.00000  Uiso   1.00
C495   C     0.27233   0.84547   0.03857   0.00000  Uiso   1.00
C496   C     0.07166   0.80990   0.41271   0.00000  Uiso   1.00
C497   C     0.25924   0.84198   0.08568   0.00000  Uiso   1.00
C498   C     0.15629   0.80197   0.40302   0.00000  Uiso   1.00
C499   C     0.18482   0.80618   0.09075   0.00000  Uiso   1.00
C500   C     0.14299   0.80043   0.45074   0.00000  Uiso   1.00
C501   C     0.19711   0.80999   0.04200   0.00000  Uiso   1.00
C502   C     0.09486   0.78913   0.47724   0.00000  Uiso   1.00
C503   C     0.12438   0.77042   0.03766   0.00000  Uiso   1.00
C504   C     0.24042   0.83302   0.01660   0.00000  Uiso   1.00
C505   C     0.17618   0.80948   0.47251   0.00000  Uiso   1.00
C506   C     0.16610   0.79609   0.01820   0.00000  Uiso   1.00
C507   C     0.03836   0.75052   0.04885   0.00000  Uiso   1.00
C508   C     0.03224   0.70897   0.02804   0.00000  Uiso   1.00
C509   C     0.29117   0.87410   0.44329   0.00000  Uiso   1.00
C510   C     0.27955   0.91938   0.45759   0.00000  Uiso   1.00
C511   C     0.14067   0.78444   0.12122   0.00000  Uiso   1.00
C512   C     0.19872   0.77623   0.37435   0.00000  Uiso   1.00
C513   C     0.21652   0.83487   0.45020   0.00000  Uiso   1.00
C514   C     0.08612   0.77115   0.02083   0.00000  Uiso   1.00
C515   C     0.24962   0.84547   0.47055   0.00000  Uiso   1.00
C516   C     0.21041   0.97871   0.24162   0.00000  Uiso   1.00
C517   C     0.12333   0.68799   0.25688   0.00000  Uiso   1.00
C518   C     0.21047   0.68799   0.24142   0.00000  Uiso   1.00
H519   H     0.28295   0.85507   0.10179   0.00000  Uiso   1.00
H520   H     0.08928   0.96253   0.26336   0.00000  Uiso   1.00
H521   H     0.30263   0.77339   0.22036   0.00000  Uiso   1.00
H522   H     0.03048   0.89305   0.28022   0.00000  Uiso   1.00
H523   H     0.05299   0.77311   0.22123   0.00000  Uiso   1.00
H524   H     0.27965   0.89299   0.28033   0.00000  Uiso   1.00
H525   H     0.03182   0.71333   0.49279   0.00000  Uiso   1.00
H526   H     0.06241   0.68763   0.02652   0.00000  Uiso   1.00
H527   H     0.33069   0.69440   0.04986   0.00000  Uiso   1.00
H528   H     0.03651   0.74459   0.08469   0.00000  Uiso   1.00
H529   H     0.00749   0.77149   0.05179   0.00000  Uiso   1.00
H530   H     0.04376   0.81573   0.39849   0.00000  Uiso   1.00
H531   H     0.24631   0.92937   0.45151   0.00000  Uiso   1.00
H532   H     0.27380   0.92355   0.49457   0.00000  Uiso   1.00
H533   H     0.31026   0.93954   0.43680   0.00000  Uiso   1.00
H534   H     0.32564   0.86482   0.44701   0.00000  Uiso   1.00
H535   H     0.29823   0.87189   0.40576   0.00000  Uiso   1.00
H536   H     0.11276   0.73418   0.16110   0.00000  Uiso   1.00
H537   H     0.22427   0.73402   0.32359   0.00000  Uiso   1.00
H538   H     0.02092   0.78784   0.47704   0.00000  Uiso   1.00
H539   H     0.30649   0.86078   0.02043   0.00000  Uiso   1.00
H540   H     0.12072   0.74878   0.06511   0.00000  Uiso   1.00
H541   H     0.22171   0.84787   0.41652   0.00000  Uiso   1.00
H542   H     0.24438   0.96250   0.23543   0.00000  Uiso   1.00
H543   H     0.08936   0.70419   0.26308   0.00000  Uiso   1.00
H544   H     0.24445   0.70421   0.23510   0.00000  Uiso   1.00
N545   N     0.04759   0.83334   0.25001   0.00000  Uiso   1.00
N546   N     0.28574   0.83332   0.24999   0.00000  Uiso   1.00
O547   O     0.12846   0.89442   0.25001   0.00000  Uiso   1.00
O548   O     0.14527   0.74642   0.14130   0.00000  Uiso   1.00
O549   O     0.23633   0.77491   0.38230   0.00000  Uiso   1.00
O550   O     0.19393   0.75090   0.33991   0.00000  Uiso   1.00
O551   O     0.20488   0.77225   0.25000   0.00000  Uiso   1.00
O552   O     0.20490   0.89441   0.25000   0.00000  Uiso   1.00
O553   O     0.12843   0.77226   0.25000   0.00000  Uiso   1.00
O554   O     0.10661   0.83334   0.31613   0.00000  Uiso   1.00
O555   O     0.22672   0.83333   0.18388   0.00000  Uiso   1.00
O556   O     0.18305   0.83333   0.31612   0.00000  Uiso   1.00
O557   O     0.15028   0.83334   0.18388   0.00000  Uiso   1.00
O558   O     0.10072   0.80041   0.12985   0.00000  Uiso   1.00
Zn559  Zn    0.11562   0.83334   0.25000   0.00000  Uiso   1.00
Zn560  Zn    0.21771   0.83333   0.25000   0.00000  Uiso   1.00
C561   C     0.50003   0.91338   0.24990   0.00000  Uiso   1.00
C562   C     0.45662   0.97872   0.25704   0.00000  Uiso   1.00
C563   C     0.50022   0.70916   0.24925   0.00000  Uiso   1.00
C564   C     0.50013   0.95754   0.24954   0.00000  Uiso   1.00
C565   C     0.64896   0.80001   0.23362   0.00000  Uiso   1.00
C566   C     0.35089   0.86653   0.26673   0.00000  Uiso   1.00
C567   C     0.36343   0.79993   0.23391   0.00000  Uiso   1.00
C568   C     0.63626   0.86649   0.26679   0.00000  Uiso   1.00
C569   C     0.47028   0.82902   0.33730   0.00000  Uiso   1.00
C570   C     0.52991   0.83100   0.16229   0.00000  Uiso   1.00
C571   C     0.45420   0.81457   0.38524   0.00000  Uiso   1.00
C572   C     0.50012   0.75329   0.24964   0.00000  Uiso   1.00
C573   C     0.54770   0.82538   0.11213   0.00000  Uiso   1.00
C574   C     0.39211   0.79439   0.45774   0.00000  Uiso   1.00
C575   C     0.60567   0.84547   0.03857   0.00000  Uiso   1.00
C576   C     0.40499   0.80990   0.41271   0.00000  Uiso   1.00
C577   C     0.59257   0.84198   0.08568   0.00000  Uiso   1.00
C578   C     0.48962   0.80197   0.40302   0.00000  Uiso   1.00
C579   C     0.51816   0.80618   0.09075   0.00000  Uiso   1.00
C580   C     0.47633   0.80043   0.45074   0.00000  Uiso   1.00
C581   C     0.53045   0.80999   0.04200   0.00000  Uiso   1.00
C582   C     0.42820   0.78913   0.47724   0.00000  Uiso   1.00
C583   C     0.45771   0.77042   0.03766   0.00000  Uiso   1.00
C584   C     0.57375   0.83302   0.01660   0.00000  Uiso   1.00
C585   C     0.50952   0.80948   0.47251   0.00000  Uiso   1.00
C586   C     0.49944   0.79609   0.01820   0.00000  Uiso   1.00
C587   C     0.37169   0.75052   0.04885   0.00000  Uiso   1.00
C588   C     0.36557   0.70897   0.02804   0.00000  Uiso   1.00
C589   C     0.62451   0.87410   0.44329   0.00000  Uiso   1.00
C590   C     0.61288   0.91938   0.45759   0.00000  Uiso   1.00
C591   C     0.47401   0.78444   0.12122   0.00000  Uiso   1.00
C592   C     0.53206   0.77623   0.37435   0.00000  Uiso   1.00
C593   C     0.54985   0.83487   0.45020   0.00000  Uiso   1.00
C594   C     0.41946   0.77115   0.02083   0.00000  Uiso   1.00
C595   C     0.58296   0.84547   0.47055   0.00000  Uiso   1.00
C596   C     0.54375   0.97871   0.24162   0.00000  Uiso   1.00
C597   C     0.45666   0.68799   0.25688   0.00000  Uiso   1.00
C598   C     0.54380   0.68799   0.24142   0.00000  Uiso   1.00
H599   H     0.61628   0.85507   0.10179   0.00000  Uiso   1.00
H600   H     0.42262   0.96253   0.26336   0.00000  Uiso   1.00
H601   H     0.63596   0.77339   0.22036   0.00000  Uiso   1.00
H602   H     0.36381   0.89305   0.28022   0.00000  Uiso   1.00
H603   H     0.38632   0.77311   0.22123   0.00000  Uiso   1.00
H604   H     0.61298   0.89299   0.28033   0.00000  Uiso   1.00
H605   H     0.36515   0.71333   0.49279   0.00000  Uiso   1.00
H606   H     0.39574   0.68763   0.02652   0.00000  Uiso   1.00
H607   H     0.66403   0.69440   0.04986   0.00000  Uiso   1.00
H608   H     0.36984   0.74459   0.08469   0.00000  Uiso   1.00
H609   H     0.34082   0.77149   0.05179   0.00000  Uiso   1.00
H610   H     0.37709   0.81573   0.39849   0.00000  Uiso   1.00
H611   H     0.57964   0.92937   0.45151   0.00000  Uiso   1.00
H612   H     0.60714   0.92355   0.49457   0.00000  Uiso   1.00
H613   H     0.64359   0.93954   0.43680   0.00000  Uiso   1.00
H614   H     0.65898   0.86482   0.44701   0.00000  Uiso   1.00
H615   H     0.63156   0.87189   0.40576   0.00000  Uiso   1.00
H616   H     0.44610   0.73418   0.16110   0.00000  Uiso   1.00
H617   H     0.55761   0.73402   0.32359   0.00000  Uiso   1.00
H618   H     0.35425   0.78784   0.47704   0.00000  Uiso   1.00
H619   H     0.63982   0.86078   0.02043   0.00000  Uiso   1.00
H620   H     0.45405   0.74878   0.06511   0.00000  Uiso   1.00
H621   H     0.55504   0.84787   0.41652   0.00000  Uiso   1.00
H622   H     0.57771   0.96250   0.23543   0.00000  Uiso   1.00
H623   H     0.42269   0.70419   0.26308   0.00000  Uiso   1.00
H624   H     0.57778   0.70421   0.23510   0.00000  Uiso   1.00
N625   N     0.38093   0.83334   0.25001   0.00000  Uiso   1.00
N626   N     0.61907   0.83332   0.24999   0.00000  Uiso   1.00
O627   O     0.46179   0.89442   0.25001   0.00000  Uiso   1.00
O628   O     0.47860   0.74642   0.14130   0.00000  Uiso   1.00
O629   O     0.56966   0.77491   0.38230   0.00000  Uiso   1.00
O630   O     0.52727   0.75090   0.33991   0.00000  Uiso   1.00
O631   O     0.53821   0.77225   0.25000   0.00000  Uiso   1.00
O632   O     0.53823   0.89441   0.25000   0.00000  Uiso   1.00
O633   O     0.46177   0.77226   0.25000   0.00000  Uiso   1.00
O634   O     0.43994   0.83334   0.31613   0.00000  Uiso   1.00
O635   O     0.56006   0.83333   0.18388   0.00000  Uiso   1.00
O636   O     0.51639   0.83333   0.31612   0.00000  Uiso   1.00
O637   O     0.48361   0.83334   0.18388   0.00000  Uiso   1.00
O638   O     0.43406   0.80041   0.12985   0.00000  Uiso   1.00
Zn639  Zn    0.44896   0.83334   0.25000   0.00000  Uiso   1.00
Zn640  Zn    0.55104   0.83333   0.25000   0.00000  Uiso   1.00
C641   C     0.83337   0.91338   0.24990   0.00000  Uiso   1.00
C642   C     0.78995   0.97872   0.25704   0.00000  Uiso   1.00
C643   C     0.83355   0.70916   0.24925   0.00000  Uiso   1.00
C644   C     0.83346   0.95754   0.24954   0.00000  Uiso   1.00
C645   C     0.98229   0.80001   0.23362   0.00000  Uiso   1.00
C646   C     0.68423   0.86653   0.26673   0.00000  Uiso   1.00
C647   C     0.69677   0.79993   0.23391   0.00000  Uiso   1.00
C648   C     0.96960   0.86649   0.26679   0.00000  Uiso   1.00
C649   C     0.80362   0.82902   0.33730   0.00000  Uiso   1.00
C650   C     0.86325   0.83100   0.16229   0.00000  Uiso   1.00
C651   C     0.78754   0.81457   0.38524   0.00000  Uiso   1.00
C652   C     0.83345   0.75329   0.24964   0.00000  Uiso   1.00
C653   C     0.88103   0.82538   0.11213   0.00000  Uiso   1.00
C654   C     0.72544   0.79439   0.45774   0.00000  Uiso   1.00
C655   C     0.93900   0.84547   0.03857   0.00000  Uiso   1.00
C656   C     0.73832   0.80990   0.41271   0.00000  Uiso   1.00
C657   C     0.92591   0.84198   0.08568   0.00000  Uiso   1.00
C658   C     0.82295   0.80197   0.40302   0.00000  Uiso   1.00
C659   C     0.85149   0.80618   0.09075   0.00000  Uiso   1.00
C660   C     0.80966   0.80043   0.45074   0.00000  Uiso   1.00
C661   C     0.86378   0.80999   0.04200   0.00000  Uiso   1.00
C662   C     0.76153   0.78913   0.47724   0.00000  Uiso   1.00
C663   C     0.79105   0.77042   0.03766   0.00000  Uiso   1.00
C664   C     0.90708   0.83302   0.01660   0.00000  Uiso   1.00
C665   C     0.84285   0.80948   0.47251   0.00000  Uiso   1.00
C666   C     0.83277   0.79609   0.01820   0.00000  Uiso   1.00
C667   C     0.70502   0.75052   0.04885   0.00000  Uiso   1.00
C668   C     0.69891   0.70897   0.02804   0.00000  Uiso   1.00
C669   C     0.95784   0.87410   0.44329   0.00000  Uiso   1.00
C670   C     0.94621   0.91938   0.45759   0.00000  Uiso   1.00
C671   C     0.80734   0.78444   0.12122   0.00000  Uiso   1.00
C672   C     0.86539   0.77623   0.37435   0.00000  Uiso   1.00
C673   C     0.88318   0.83487   0.45020   0.00000  Uiso   1.00
C674   C     0.75279   0.77115   0.02083   0.00000  Uiso   1.00
C675   C     0.91629   0.84547   0.47055   0.00000  Uiso   1.00
C676   C     0.87708   0.97871   0.24162   0.00000  Uiso   1.00
C677   C     0.79000   0.68799   0.25688   0.00000  Uiso   1.00
C678   C     0.87713   0.68799   0.24142   0.00000  Uiso   1.00
H679   H     0.94962   0.85507   0.10179   0.00000  Uiso   1.00
H680   H     0.75595   0.96253   0.26336   0.00000  Uiso   1.00
H681   H     0.96930   0.77339   0.22036   0.00000  Uiso   1.00
H682   H     0.69715   0.89305   0.28022   0.00000  Uiso   1.00
H683   H     0.71966   0.77311   0.22123   0.00000  Uiso   1.00
H684   H     0.94631   0.89299   0.28033   0.00000  Uiso   1.00
H685   H     0.69849   0.71333   0.49279   0.00000  Uiso   1.00
H686   H     0.72908   0.68763   0.02652   0.00000  Uiso   1.00
H687   H     0.99736   0.69440   0.04986   0.00000  Uiso   1.00
H688   H     0.70317   0.74459   0.08469   0.00000  Uiso   1.00
H689   H     0.67415   0.77149   0.05179   0.00000  Uiso   1.00
H690   H     0.71042   0.81573   0.39849   0.00000  Uiso   1.00
H691   H     0.91297   0.92937   0.45151   0.00000  Uiso   1.00
H692   H     0.94047   0.92355   0.49457   0.00000  Uiso   1.00
H693   H     0.97693   0.93954   0.43680   0.00000  Uiso   1.00
H694   H     0.99231   0.86482   0.44701   0.00000  Uiso   1.00
H695   H     0.96490   0.87189   0.40576   0.00000  Uiso   1.00
H696   H     0.77943   0.73418   0.16110   0.00000  Uiso   1.00
H697   H     0.89094   0.73402   0.32359   0.00000  Uiso   1.00
H698   H     0.68758   0.78784   0.47704   0.00000  Uiso   1.00
H699   H     0.97315   0.86078   0.02043   0.00000  Uiso   1.00
H700   H     0.78739   0.74878   0.06511   0.00000  Uiso   1.00
H701   H     0.88837   0.84787   0.41652   0.00000  Uiso   1.00
H702   H     0.91104   0.96250   0.23543   0.00000  Uiso   1.00
H703   H     0.75603   0.70419   0.26308   0.00000  Uiso   1.00
H704   H     0.91112   0.70421   0.23510   0.00000  Uiso   1.00
N705   N     0.71426   0.83334   0.25001   0.00000  Uiso   1.00
N706   N     0.95241   0.83332   0.24999   0.00000  Uiso   1.00
O707   O     0.79512   0.89442   0.25001   0.00000  Uiso   1.00
O708   O     0.81194   0.74642   0.14130   0.00000  Uiso   1.00
O709   O     0.90300   0.77491   0.38230   0.00000  Uiso   1.00
O710   O     0.86060   0.75090   0.33991   0.00000  Uiso   1.00
O711   O     0.87154   0.77225   0.25000   0.00000  Uiso   1.00
O712   O     0.87157   0.89441   0.25000   0.00000  Uiso   1.00
O713   O     0.79510   0.77226   0.25000   0.00000  Uiso   1.00
O714   O     0.77328   0.83334   0.31613   0.00000  Uiso   1.00
O715   O     0.89339   0.83333   0.18388   0.00000  Uiso   1.00
O716   O     0.84972   0.83333   0.31612   0.00000  Uiso   1.00
O717   O     0.81695   0.83334   0.18388   0.00000  Uiso   1.00
O718   O     0.76739   0.80041   0.12985   0.00000  Uiso   1.00
Zn719  Zn    0.78229   0.83334   0.25000   0.00000  Uiso   1.00
Zn720  Zn    0.88438   0.83333   0.25000   0.00000  Uiso   1.00
C721   C     0.16670   0.24671   0.74990   0.00000  Uiso   1.00
C722   C     0.12328   0.31206   0.75704   0.00000  Uiso   1.00
C723   C     0.16689   0.04249   0.74925   0.00000  Uiso   1.00
C724   C     0.16680   0.29087   0.74954   0.00000  Uiso   1.00
C725   C     0.31563   0.13334   0.73362   0.00000  Uiso   1.00
C726   C     0.01756   0.19986   0.76673   0.00000  Uiso   1.00
C727   C     0.03010   0.13326   0.73391   0.00000  Uiso   1.00
C728   C     0.30293   0.19983   0.76679   0.00000  Uiso   1.00
C729   C     0.13695   0.16236   0.83730   0.00000  Uiso   1.00
C730   C     0.19658   0.16434   0.66229   0.00000  Uiso   1.00
C731   C     0.12087   0.14790   0.88524   0.00000  Uiso   1.00
C732   C     0.16679   0.08663   0.74964   0.00000  Uiso   1.00
C733   C     0.21437   0.15872   0.61213   0.00000  Uiso   1.00
C734   C     0.05878   0.12772   0.95774   0.00000  Uiso   1.00
C735   C     0.27233   0.17880   0.53857   0.00000  Uiso   1.00
C736   C     0.07166   0.14324   0.91271   0.00000  Uiso   1.00
C737   C     0.25924   0.17531   0.58568   0.00000  Uiso   1.00
C738   C     0.15629   0.13530   0.90302   0.00000  Uiso   1.00
C739   C     0.18482   0.13951   0.59075   0.00000  Uiso   1.00
C740   C     0.14299   0.13377   0.95074   0.00000  Uiso   1.00
C741   C     0.19711   0.14332   0.54200   0.00000  Uiso   1.00
C742   C     0.09486   0.12246   0.97724   0.00000  Uiso   1.00
C743   C     0.12438   0.10375   0.53766   0.00000  Uiso   1.00
C744   C     0.24042   0.16635   0.51660   0.00000  Uiso   1.00
C745   C     0.17618   0.14282   0.97251   0.00000  Uiso   1.00
C746   C     0.16610   0.12943   0.51820   0.00000  Uiso   1.00
C747   C     0.03836   0.08385   0.54885   0.00000  Uiso   1.00
C748   C     0.03224   0.04230   0.52804   0.00000  Uiso   1.00
C749   C     0.29117   0.20743   0.94329   0.00000  Uiso   1.00
C750   C     0.27955   0.25272   0.95759   0.00000  Uiso   1.00
C751   C     0.14067   0.11778   0.62122   0.00000  Uiso   1.00
C752   C     0.19872   0.10956   0.87435   0.00000  Uiso   1.00
C753   C     0.21652   0.16820   0.95020   0.00000  Uiso   1.00
C754   C     0.08612   0.10448   0.52083   0.00000  Uiso   1.00
C755   C     0.24962   0.17880   0.97055   0.00000  Uiso   1.00
C756   C     0.21041   0.31205   0.74162   0.00000  Uiso   1.00
C757   C     0.12333   0.02132   0.75688   0.00000  Uiso   1.00
C758   C     0.21047   0.02132   0.74142   0.00000  Uiso   1.00
H759   H     0.28295   0.18840   0.60179   0.00000  Uiso   1.00
H760   H     0.08928   0.29586   0.76336   0.00000  Uiso   1.00
H761   H     0.30263   0.10672   0.72036   0.00000  Uiso   1.00
H762   H     0.03048   0.22639   0.78022   0.00000  Uiso   1.00
H763   H     0.05299   0.10644   0.72123   0.00000  Uiso   1.00
H764   H     0.27965   0.22632   0.78033   0.00000  Uiso   1.00
H765   H     0.03182   0.04666   0.99279   0.00000  Uiso   1.00
H766   H     0.06241   0.02097   0.52652   0.00000  Uiso   1.00
H767   H     0.33069   0.02774   0.54986   0.00000  Uiso   1.00
H768   H     0.03651   0.07792   0.58469   0.00000  Uiso   1.00
H769   H     0.00749   0.10482   0.55179   0.00000  Uiso   1.00
H770   H     0.04376   0.14906   0.89849   0.00000  Uiso   1.00
H771   H     0.24631   0.26271   0.95151   0.00000  Uiso   1.00
H772   H     0.27380   0.25688   0.99457   0.00000  Uiso   1.00
H773   H     0.31026   0.27287   0.93680   0.00000  Uiso   1.00
H774   H     0.32564   0.19815   0.94701   0.00000  Uiso   1.00
H775   H     0.29823   0.20522   0.90576   0.00000  Uiso   1.00
H776   H     0.11276   0.06751   0.66110   0.00000  Uiso   1.00
H777   H     0.22427   0.06736   0.82359   0.00000  Uiso   1.00
H778   H     0.02092   0.12118   0.97704   0.00000  Uiso   1.00
H779   H     0.30649   0.19411   0.52043   0.00000  Uiso   1.00
H780   H     0.12072   0.08211   0.56511   0.00000  Uiso   1.00
H781   H     0.22171   0.18120   0.91652   0.00000  Uiso   1.00
H782   H     0.24438   0.29583   0.73543   0.00000  Uiso   1.00
H783   H     0.08936   0.03752   0.76308   0.00000  Uiso   1.00
H784   H     0.24445   0.03754   0.73510   0.00000  Uiso   1.00
N785   N     0.04759   0.16668   0.75001   0.00000  Uiso   1.00
N786   N     0.28574   0.16666   0.74999   0.00000  Uiso   1.00
O787   O     0.12846   0.22775   0.75001   0.00000  Uiso   1.00
O788   O     0.14527   0.07975   0.64130   0.00000  Uiso   1.00
O789   O     0.23633   0.10825   0.88230   0.00000  Uiso   1.00
O790   O     0.19393   0.08423   0.83991   0.00000  Uiso   1.00
O791   O     0.20488   0.10558   0.75000   0.00000  Uiso   1.00
O792   O     0.20490   0.22774   0.75000   0.00000  Uiso   1.00
O793   O     0.12843   0.10559   0.75000   0.00000  Uiso   1.00
O794   O     0.10661   0.16667   0.81613   0.00000  Uiso   1.00
O795   O     0.22672   0.16666   0.68388   0.00000  Uiso   1.00
O796   O     0.18305   0.16666   0.81612   0.00000  Uiso   1.00
O797   O     0.15028   0.16667   0.68388   0.00000  Uiso   1.00
O798   O     0.10072   0.13374   0.62985   0.00000  Uiso   1.00
Zn799  Zn    0.11562   0.16667   0.75000   0.00000  Uiso   1.00
Zn800  Zn    0.21771   0.16666   0.75000   0.00000  Uiso   1.00
C801   C     0.50003   0.24671   0.74990   0.00000  Uiso   1.00
C802   C     0.45662   0.31206   0.75704   0.00000  Uiso   1.00
C803   C     0.50022   0.04249   0.74925   0.00000  Uiso   1.00
C804   C     0.50013   0.29087   0.74954   0.00000  Uiso   1.00
C805   C     0.64896   0.13334   0.73362   0.00000  Uiso   1.00
C806   C     0.35089   0.19986   0.76673   0.00000  Uiso   1.00
C807   C     0.36343   0.13326   0.73391   0.00000  Uiso   1.00
C808   C     0.63626   0.19983   0.76679   0.00000  Uiso   1.00
C809   C     0.47028   0.16236   0.83730   0.00000  Uiso   1.00
C810   C     0.52991   0.16434   0.66229   0.00000  Uiso   1.00
C811   C     0.45420   0.14790   0.88524   0.00000  Uiso   1.00
C812   C     0.50012   0.08663   0.74964   0.00000  Uiso   1.00
C813   C     0.54770   0.15872   0.61213   0.00000  Uiso   1.00
C814   C     0.39211   0.12772   0.95774   0.00000  Uiso   1.00
C815   C     0.60567   0.17880   0.53857   0.00000  Uiso   1.00
C816   C     0.40499   0.14324   0.91271   0.00000  Uiso   1.00
C817   C     0.59257   0.17531   0.58568   0.00000  Uiso   1.00
C818   C     0.48962   0.13530   0.90302   0.00000  Uiso   1.00
C819   C     0.51816   0.13951   0.59075   0.00000  Uiso   1.00
C820   C     0.47633   0.13377   0.95074   0.00000  Uiso   1.00
C821   C     0.53045   0.14332   0.54200   0.00000  Uiso   1.00
C822   C     0.42820   0.12246   0.97724   0.00000  Uiso   1.00
C823   C     0.45771   0.10375   0.53766   0.00000  Uiso   1.00
C824   C     0.57375   0.16635   0.51660   0.00000  Uiso   1.00
C825   C     0.50952   0.14282   0.97251   0.00000  Uiso   1.00
C826   C     0.49944   0.12943   0.51820   0.00000  Uiso   1.00
C827   C     0.37169   0.08385   0.54885   0.00000  Uiso   1.00
C828   C     0.36557   0.04230   0.52804   0.00000  Uiso   1.00
C829   C     0.62451   0.20743   0.94329   0.00000  Uiso   1.00
C830   C     0.61288   0.25272   0.95759   0.00000  Uiso   1.00
C831   C     0.47401   0.11778   0.62122   0.00000  Uiso   1.00
C832   C     0.53206   0.10956   0.87435   0.00000  Uiso   1.00
C833   C     0.54985   0.16820   0.95020   0.00000  Uiso   1.00
C834   C     0.41946   0.10448   0.52083   0.00000  Uiso   1.00
C835   C     0.58296   0.17880   0.97055   0.00000  Uiso   1.00
C836   C     0.54375   0.31205   0.74162   0.00000  Uiso   1.00
C837   C     0.45666   0.02132   0.75688   0.00000  Uiso   1.00
C838   C     0.54380   0.02132   0.74142   0.00000  Uiso   1.00
H839   H     0.61628   0.18840   0.60179   0.00000  Uiso   1.00
H840   H     0.42262   0.29586   0.76336   0.00000  Uiso   1.00
H841   H     0.63596   0.10672   0.72036   0.00000  Uiso   1.00
H842   H     0.36381   0.22639   0.78022   0.00000  Uiso   1.00
H843   H     0.38632   0.10644   0.72123   0.00000  Uiso   1.00
H844   H     0.61298   0.22632   0.78033   0.00000  Uiso   1.00
H845   H     0.36515   0.04666   0.99279   0.00000  Uiso   1.00
H846   H     0.39574   0.02097   0.52652   0.00000  Uiso   1.00
H847   H     0.66403   0.02774   0.54986   0.00000  Uiso   1.00
H848   H     0.36984   0.07792   0.58469   0.00000  Uiso   1.00
H849   H     0.34082   0.10482   0.55179   0.00000  Uiso   1.00
H850   H     0.37709   0.14906   0.89849   0.00000  Uiso   1.00
H851   H     0.57964   0.26271   0.95151   0.00000  Uiso   1.00
H852   H     0.60714   0.25688   0.99457   0.00000  Uiso   1.00
H853   H     0.64359   0.27287   0.93680   0.00000  Uiso   1.00
H854   H     0.65898   0.19815   0.94701   0.00000  Uiso   1.00
H855   H     0.63156   0.20522   0.90576   0.00000  Uiso   1.00
H856   H     0.44610   0.06751   0.66110   0.00000  Uiso   1.00
H857   H     0.55761   0.06736   0.82359   0.00000  Uiso   1.00
H858   H     0.35425   0.12118   0.97704   0.00000  Uiso   1.00
H859   H     0.63982   0.19411   0.52043   0.00000  Uiso   1.00
H860   H     0.45405   0.08211   0.56511   0.00000  Uiso   1.00
H861   H     0.55504   0.18120   0.91652   0.00000  Uiso   1.00
H862   H     0.57771   0.29583   0.73543   0.00000  Uiso   1.00
H863   H     0.42269   0.03752   0.76308   0.00000  Uiso   1.00
H864   H     0.57778   0.03754   0.73510   0.00000  Uiso   1.00
N865   N     0.38093   0.16668   0.75001   0.00000  Uiso   1.00
N866   N     0.61907   0.16666   0.74999   0.00000  Uiso   1.00
O867   O     0.46179   0.22775   0.75001   0.00000  Uiso   1.00
O868   O     0.47860   0.07975   0.64130   0.00000  Uiso   1.00
O869   O     0.56966   0.10825   0.88230   0.00000  Uiso   1.00
O870   O     0.52727   0.08423   0.83991   0.00000  Uiso   1.00
O871   O     0.53821   0.10558   0.75000   0.00000  Uiso   1.00
O872   O     0.53823   0.22774   0.75000   0.00000  Uiso   1.00
O873   O     0.46177   0.10559   0.75000   0.00000  Uiso   1.00
O874   O     0.43994   0.16667   0.81613   0.00000  Uiso   1.00
O875   O     0.56006   0.16666   0.68388   0.00000  Uiso   1.00
O876   O     0.51639   0.16666   0.81612   0.00000  Uiso   1.00
O877   O     0.48361   0.16667   0.68388   0.00000  Uiso   1.00
O878   O     0.43406   0.13374   0.62985   0.00000  Uiso   1.00
Zn879  Zn    0.44896   0.16667   0.75000   0.00000  Uiso   1.00
Zn880  Zn    0.55104   0.16666   0.75000   0.00000  Uiso   1.00
C881   C     0.83337   0.24671   0.74990   0.00000  Uiso   1.00
C882   C     0.78995   0.31206   0.75704   0.00000  Uiso   1.00
C883   C     0.83355   0.04249   0.74925   0.00000  Uiso   1.00
C884   C     0.83346   0.29087   0.74954   0.00000  Uiso   1.00
C885   C     0.98229   0.13334   0.73362   0.00000  Uiso   1.00
C886   C     0.68423   0.19986   0.76673   0.00000  Uiso   1.00
C887   C     0.69677   0.13326   0.73391   0.00000  Uiso   1.00
C888   C     0.96960   0.19983   0.76679   0.00000  Uiso   1.00
C889   C     0.80362   0.16236   0.83730   0.00000  Uiso   1.00
C890   C     0.86325   0.16434   0.66229   0.00000  Uiso   1.00
C891   C     0.78754   0.14790   0.88524   0.00000  Uiso   1.00
C892   C     0.83345   0.08663   0.74964   0.00000  Uiso   1.00
C893   C     0.88103   0.15872   0.61213   0.00000  Uiso   1.00
C894   C     0.72544   0.12772   0.95774   0.00000  Uiso   1.00
C895   C     0.93900   0.17880   0.53857   0.00000  Uiso   1.00
C896   C     0.73832   0.14324   0.91271   0.00000  Uiso   1.00
C897   C     0.92591   0.17531   0.58568   0.00000  Uiso   1.00
C898   C     0.82295   0.13530   0.90302   0.00000  Uiso   1.00
C899   C     0.85149   0.13951   0.59075   0.00000  Uiso   1.00
C900   C     0.80966   0.13377   0.95074   0.00000  Uiso   1.00
C901   C     0.86378   0.14332   0.54200   0.00000  Uiso   1.00
C902   C     0.76153   0.12246   0.97724   0.00000  Uiso   1.00
C903   C     0.79105   0.10375   0.53766   0.00000  Uiso   1.00
C904   C     0.90708   0.16635   0.51660   0.00000  Uiso   1.00
C905   C     0.84285   0.14282   0.97251   0.00000  Uiso   1.00
C906   C     0.83277   0.12943   0.51820   0.00000  Uiso   1.00
C907   C     0.70502   0.08385   0.54885   0.00000  Uiso   1.00
C908   C     0.69891   0.04230   0.52804   0.00000  Uiso   1.00
C909   C     0.95784   0.20743   0.94329   0.00000  Uiso   1.00
C910   C     0.94621   0.25272   0.95759   0.00000  Uiso   1.00
C911   C     0.80734   0.11778   0.62122   0.00000  Uiso   1.00
C912   C     0.86539   0.10956   0.87435   0.00000  Uiso   1.00
C913   C     0.88318   0.16820   0.95020   0.00000  Uiso   1.00
C914   C     0.75279   0.10448   0.52083   0.00000  Uiso   1.00
C915   C     0.91629   0.17880   0.97055   0.00000  Uiso   1.00
C916   C     0.87708   0.31205   0.74162   0.00000  Uiso   1.00
C917   C     0.79000   0.02132   0.75688   0.00000  Uiso   1.00
C918   C     0.87713   0.02132   0.74142   0.00000  Uiso   1.00
H919   H     0.94962   0.18840   0.60179   0.00000  Uiso   1.00
H920   H     0.75595   0.29586   0.76336   0.00000  Uiso   1.00
H921   H     0.96930   0.10672   0.72036   0.00000  Uiso   1.00
H922   H     0.69715   0.22639   0.78022   0.00000  Uiso   1.00
H923   H     0.71966   0.10644   0.72123   0.00000  Uiso   1.00
H924   H     0.94631   0.22632   0.78033   0.00000  Uiso   1.00
H925   H     0.69849   0.04666   0.99279   0.00000  Uiso   1.00
H926   H     0.72908   0.02097   0.52652   0.00000  Uiso   1.00
H927   H     0.99736   0.02774   0.54986   0.00000  Uiso   1.00
H928   H     0.70317   0.07792   0.58469   0.00000  Uiso   1.00
H929   H     0.67415   0.10482   0.55179   0.00000  Uiso   1.00
H930   H     0.71042   0.14906   0.89849   0.00000  Uiso   1.00
H931   H     0.91297   0.26271   0.95151   0.00000  Uiso   1.00
H932   H     0.94047   0.25688   0.99457   0.00000  Uiso   1.00
H933   H     0.97693   0.27287   0.93680   0.00000  Uiso   1.00
H934   H     0.99231   0.19815   0.94701   0.00000  Uiso   1.00
H935   H     0.96490   0.20522   0.90576   0.00000  Uiso   1.00
H936   H     0.77943   0.06751   0.66110   0.00000  Uiso   1.00
H937   H     0.89094   0.06736   0.82359   0.00000  Uiso   1.00
H938   H     0.68758   0.12118   0.97704   0.00000  Uiso   1.00
H939   H     0.97315   0.19411   0.52043   0.00000  Uiso   1.00
H940   H     0.78739   0.08211   0.56511   0.00000  Uiso   1.00
H941   H     0.88837   0.18120   0.91652   0.00000  Uiso   1.00
H942   H     0.91104   0.29583   0.73543   0.00000  Uiso   1.00
H943   H     0.75603   0.03752   0.76308   0.00000  Uiso   1.00
H944   H     0.91112   0.03754   0.73510   0.00000  Uiso   1.00
N945   N     0.71426   0.16668   0.75001   0.00000  Uiso   1.00
N946   N     0.95241   0.16666   0.74999   0.00000  Uiso   1.00
O947   O     0.79512   0.22775   0.75001   0.00000  Uiso   1.00
O948   O     0.81194   0.07975   0.64130   0.00000  Uiso   1.00
O949   O     0.90300   0.10825   0.88230   0.00000  Uiso   1.00
O950   O     0.86060   0.08423   0.83991   0.00000  Uiso   1.00
O951   O     0.87154   0.10558   0.75000   0.00000  Uiso   1.00
O952   O     0.87157   0.22774   0.75000   0.00000  Uiso   1.00
O953   O     0.79510   0.10559   0.75000   0.00000  Uiso   1.00
O954   O     0.77328   0.16667   0.81613   0.00000  Uiso   1.00
O955   O     0.89339   0.16666   0.68388   0.00000  Uiso   1.00
O956   O     0.84972   0.16666   0.81612   0.00000  Uiso   1.00
O957   O     0.81695   0.16667   0.68388   0.00000  Uiso   1.00
O958   O     0.76739   0.13374   0.62985   0.00000  Uiso   1.00
Zn959  Zn    0.78229   0.16667   0.75000   0.00000  Uiso   1.00
Zn960  Zn    0.88438   0.16666   0.75000   0.00000  Uiso   1.00
C961   C     0.16670   0.58005   0.74990   0.00000  Uiso   1.00
C962   C     0.12328   0.64539   0.75704   0.00000  Uiso   1.00
C963   C     0.16689   0.37583   0.74925   0.00000  Uiso   1.00
C964   C     0.16680   0.62420   0.74954   0.00000  Uiso   1.00
C965   C     0.31563   0.46668   0.73362   0.00000  Uiso   1.00
C966   C     0.01756   0.53320   0.76673   0.00000  Uiso   1.00
C967   C     0.03010   0.46659   0.73391   0.00000  Uiso   1.00
C968   C     0.30293   0.53316   0.76679   0.00000  Uiso   1.00
C969   C     0.13695   0.49569   0.83730   0.00000  Uiso   1.00
C970   C     0.19658   0.49767   0.66229   0.00000  Uiso   1.00
C971   C     0.12087   0.48123   0.88524   0.00000  Uiso   1.00
C972   C     0.16679   0.41996   0.74964   0.00000  Uiso   1.00
C973   C     0.21437   0.49205   0.61213   0.00000  Uiso   1.00
C974   C     0.05878   0.46105   0.95774   0.00000  Uiso   1.00
C975   C     0.27233   0.51214   0.53857   0.00000  Uiso   1.00
C976   C     0.07166   0.47657   0.91271   0.00000  Uiso   1.00
C977   C     0.25924   0.50864   0.58568   0.00000  Uiso   1.00
C978   C     0.15629   0.46864   0.90302   0.00000  Uiso   1.00
C979   C     0.18482   0.47285   0.59075   0.00000  Uiso   1.00
C980   C     0.14299   0.46710   0.95074   0.00000  Uiso   1.00
C981   C     0.19711   0.47666   0.54200   0.00000  Uiso   1.00
C982   C     0.09486   0.45580   0.97724   0.00000  Uiso   1.00
C983   C     0.12438   0.43709   0.53766   0.00000  Uiso   1.00
C984   C     0.24042   0.49969   0.51660   0.00000  Uiso   1.00
C985   C     0.17618   0.47615   0.97251   0.00000  Uiso   1.00
C986   C     0.16610   0.46276   0.51820   0.00000  Uiso   1.00
C987   C     0.03836   0.41719   0.54885   0.00000  Uiso   1.00
C988   C     0.03224   0.37564   0.52804   0.00000  Uiso   1.00
C989   C     0.29117   0.54076   0.94329   0.00000  Uiso   1.00
C990   C     0.27955   0.58605   0.95759   0.00000  Uiso   1.00
C991   C     0.14067   0.45111   0.62122   0.00000  Uiso   1.00
C992   C     0.19872   0.44289   0.87435   0.00000  Uiso   1.00
C993   C     0.21652   0.50154   0.95020   0.00000  Uiso   1.00
C994   C     0.08612   0.43781   0.52083   0.00000  Uiso   1.00
C995   C     0.24962   0.51213   0.97055   0.00000  Uiso   1.00
C996   C     0.21041   0.64538   0.74162   0.00000  Uiso   1.00
C997   C     0.12333   0.35465   0.75688   0.00000  Uiso   1.00
C998   C     0.21047   0.35465   0.74142   0.00000  Uiso   1.00
H999   H     0.28295   0.52174   0.60179   0.00000  Uiso   1.00
H1000  H     0.08928   0.62919   0.76336   0.00000  Uiso   1.00
H1001  H     0.30263   0.44005   0.72036   0.00000  Uiso   1.00
H1002  H     0.03048   0.55972   0.78022   0.00000  Uiso   1.00
H1003  H     0.05299   0.43978   0.72123   0.00000  Uiso   1.00
H1004  H     0.27965   0.55966   0.78033   0.00000  Uiso   1.00
H1005  H     0.03182   0.37999   0.99279   0.00000  Uiso   1.00
H1006  H     0.06241   0.35430   0.52652   0.00000  Uiso   1.00
H1007  H     0.33069   0.36107   0.54986   0.00000  Uiso   1.00
H1008  H     0.03651   0.41125   0.58469   0.00000  Uiso   1.00
H1009  H     0.00749   0.43816   0.55179   0.00000  Uiso   1.00
H1010  H     0.04376   0.48239   0.89849   0.00000  Uiso   1.00
H1011  H     0.24631   0.59604   0.95151   0.00000  Uiso   1.00
H1012  H     0.27380   0.59021   0.99457   0.00000  Uiso   1.00
H1013  H     0.31026   0.60620   0.93680   0.00000  Uiso   1.00
H1014  H     0.32564   0.53149   0.94701   0.00000  Uiso   1.00
H1015  H     0.29823   0.53856   0.90576   0.00000  Uiso   1.00
H1016  H     0.11276   0.40084   0.66110   0.00000  Uiso   1.00
H1017  H     0.22427   0.40069   0.82359   0.00000  Uiso   1.00
H1018  H     0.02092   0.45451   0.97704   0.00000  Uiso   1.00
H1019  H     0.30649   0.52744   0.52043   0.00000  Uiso   1.00
H1020  H     0.12072   0.41544   0.56511   0.00000  Uiso   1.00
H1021  H     0.22171   0.51453   0.91652   0.00000  Uiso   1.00
H1022  H     0.24438   0.62916   0.73543   0.00000  Uiso   1.00
H1023  H     0.08936   0.37086   0.76308   0.00000  Uiso   1.00
H1024  H     0.24445   0.37087   0.73510   0.00000  Uiso   1.00
N1025  N     0.04759   0.50001   0.75001   0.00000  Uiso   1.00
N1026  N     0.28574   0.49999   0.74999   0.00000  Uiso   1.00
O1027  O     0.12846   0.56108   0.75001   0.00000  Uiso   1.00
O1028  O     0.14527   0.41309   0.64130   0.00000  Uiso   1.00
O1029  O     0.23633   0.44158   0.88230   0.00000  Uiso   1.00
O1030  O     0.19393   0.41757   0.83991   0.00000  Uiso   1.00
O1031  O     0.20488   0.43892   0.75000   0.00000  Uiso   1.00
O1032  O     0.20490   0.56107   0.75000   0.00000  Uiso   1.00
O1033  O     0.12843   0.43893   0.75000   0.00000  Uiso   1.00
O1034  O     0.10661   0.50001   0.81613   0.00000  Uiso   1.00
O1035  O     0.22672   0.49999   0.68388   0.00000  Uiso   1.00
O1036  O     0.18305   0.50000   0.81612   0.00000  Uiso   1.00
O1037  O     0.15028   0.50000   0.68388   0.00000  Uiso   1.00
O1038  O     0.10072   0.46708   0.62985   0.00000  Uiso   1.00
Zn1039 Zn    0.11562   0.50001   0.75000   0.00000  Uiso   1.00
Zn1040 Zn    0.21771   0.49999   0.75000   0.00000  Uiso   1.00
C1041  C     0.50003   0.58005   0.74990   0.00000  Uiso   1.00
C1042  C     0.45662   0.64539   0.75704   0.00000  Uiso   1.00
C1043  C     0.50022   0.37583   0.74925   0.00000  Uiso   1.00
C1044  C     0.50013   0.62420   0.74954   0.00000  Uiso   1.00
C1045  C     0.64896   0.46668   0.73362   0.00000  Uiso   1.00
C1046  C     0.35089   0.53320   0.76673   0.00000  Uiso   1.00
C1047  C     0.36343   0.46659   0.73391   0.00000  Uiso   1.00
C1048  C     0.63626   0.53316   0.76679   0.00000  Uiso   1.00
C1049  C     0.47028   0.49569   0.83730   0.00000  Uiso   1.00
C1050  C     0.52991   0.49767   0.66229   0.00000  Uiso   1.00
C1051  C     0.45420   0.48123   0.88524   0.00000  Uiso   1.00
C1052  C     0.50012   0.41996   0.74964   0.00000  Uiso   1.00
C1053  C     0.54770   0.49205   0.61213   0.00000  Uiso   1.00
C1054  C     0.39211   0.46105   0.95774   0.00000  Uiso   1.00
C1055  C     0.60567   0.51214   0.53857   0.00000  Uiso   1.00
C1056  C     0.40499   0.47657   0.91271   0.00000  Uiso   1.00
C1057  C     0.59257   0.50864   0.58568   0.00000  Uiso   1.00
C1058  C     0.48962   0.46864   0.90302   0.00000  Uiso   1.00
C1059  C     0.51816   0.47285   0.59075   0.00000  Uiso   1.00
C1060  C     0.47633   0.46710   0.95074   0.00000  Uiso   1.00
C1061  C     0.53045   0.47666   0.54200   0.00000  Uiso   1.00
C1062  C     0.42820   0.45580   0.97724   0.00000  Uiso   1.00
C1063  C     0.45771   0.43709   0.53766   0.00000  Uiso   1.00
C1064  C     0.57375   0.49969   0.51660   0.00000  Uiso   1.00
C1065  C     0.50952   0.47615   0.97251   0.00000  Uiso   1.00
C1066  C     0.49944   0.46276   0.51820   0.00000  Uiso   1.00
C1067  C     0.37169   0.41719   0.54885   0.00000  Uiso   1.00
C1068  C     0.36557   0.37564   0.52804   0.00000  Uiso   1.00
C1069  C     0.62451   0.54076   0.94329   0.00000  Uiso   1.00
C1070  C     0.61288   0.58605   0.95759   0.00000  Uiso   1.00
C1071  C     0.47401   0.45111   0.62122   0.00000  Uiso   1.00
C1072  C     0.53206   0.44289   0.87435   0.00000  Uiso   1.00
C1073  C     0.54985   0.50154   0.95020   0.00000  Uiso   1.00
C1074  C     0.41946   0.43781   0.52083   0.00000  Uiso   1.00
C1075  C     0.58296   0.51213   0.97055   0.00000  Uiso   1.00
C1076  C     0.54375   0.64538   0.74162   0.00000  Uiso   1.00
C1077  C     0.45666   0.35465   0.75688   0.00000  Uiso   1.00
C1078  C     0.54380   0.35465   0.74142   0.00000  Uiso   1.00
H1079  H     0.61628   0.52174   0.60179   0.00000  Uiso   1.00
H1080  H     0.42262   0.62919   0.76336   0.00000  Uiso   1.00
H1081  H     0.63596   0.44005   0.72036   0.00000  Uiso   1.00
H1082  H     0.36381   0.55972   0.78022   0.00000  Uiso   1.00
H1083  H     0.38632   0.43978   0.72123   0.00000  Uiso   1.00
H1084  H     0.61298   0.55966   0.78033   0.00000  Uiso   1.00
H1085  H     0.36515   0.37999   0.99279   0.00000  Uiso   1.00
H1086  H     0.39574   0.35430   0.52652   0.00000  Uiso   1.00
H1087  H     0.66403   0.36107   0.54986   0.00000  Uiso   1.00
H1088  H     0.36984   0.41125   0.58469   0.00000  Uiso   1.00
H1089  H     0.34082   0.43816   0.55179   0.00000  Uiso   1.00
H1090  H     0.37709   0.48239   0.89849   0.00000  Uiso   1.00
H1091  H     0.57964   0.59604   0.95151   0.00000  Uiso   1.00
H1092  H     0.60714   0.59021   0.99457   0.00000  Uiso   1.00
H1093  H     0.64359   0.60620   0.93680   0.00000  Uiso   1.00
H1094  H     0.65898   0.53149   0.94701   0.00000  Uiso   1.00
H1095  H     0.63156   0.53856   0.90576   0.00000  Uiso   1.00
H1096  H     0.44610   0.40084   0.66110   0.00000  Uiso   1.00
H1097  H     0.55761   0.40069   0.82359   0.00000  Uiso   1.00
H1098  H     0.35425   0.45451   0.97704   0.00000  Uiso   1.00
H1099  H     0.63982   0.52744   0.52043   0.00000  Uiso   1.00
H1100  H     0.45405   0.41544   0.56511   0.00000  Uiso   1.00
H1101  H     0.55504   0.51453   0.91652   0.00000  Uiso   1.00
H1102  H     0.57771   0.62916   0.73543   0.00000  Uiso   1.00
H1103  H     0.42269   0.37086   0.76308   0.00000  Uiso   1.00
H1104  H     0.57778   0.37087   0.73510   0.00000  Uiso   1.00
N1105  N     0.38093   0.50001   0.75001   0.00000  Uiso   1.00
N1106  N     0.61907   0.49999   0.74999   0.00000  Uiso   1.00
O1107  O     0.46179   0.56108   0.75001   0.00000  Uiso   1.00
O1108  O     0.47860   0.41309   0.64130   0.00000  Uiso   1.00
O1109  O     0.56966   0.44158   0.88230   0.00000  Uiso   1.00
O1110  O     0.52727   0.41757   0.83991   0.00000  Uiso   1.00
O1111  O     0.53821   0.43892   0.75000   0.00000  Uiso   1.00
O1112  O     0.53823   0.56107   0.75000   0.00000  Uiso   1.00
O1113  O     0.46177   0.43893   0.75000   0.00000  Uiso   1.00
O1114  O     0.43994   0.50001   0.81613   0.00000  Uiso   1.00
O1115  O     0.56006   0.49999   0.68388   0.00000  Uiso   1.00
O1116  O     0.51639   0.50000   0.81612   0.00000  Uiso   1.00
O1117  O     0.48361   0.50000   0.68388   0.00000  Uiso   1.00
O1118  O     0.43406   0.46708   0.62985   0.00000  Uiso   1.00
Zn1119 Zn    0.44896   0.50001   0.75000   0.00000  Uiso   1.00
Zn1120 Zn    0.55104   0.49999   0.75000   0.00000  Uiso   1.00
C1121  C     0.83337   0.58005   0.74990   0.00000  Uiso   1.00
C1122  C     0.78995   0.64539   0.75704   0.00000  Uiso   1.00
C1123  C     0.83355   0.37583   0.74925   0.00000  Uiso   1.00
C1124  C     0.83346   0.62420   0.74954   0.00000  Uiso   1.00
C1125  C     0.98229   0.46668   0.73362   0.00000  Uiso   1.00
C1126  C     0.68423   0.53320   0.76673   0.00000  Uiso   1.00
C1127  C     0.69677   0.46659   0.73391   0.00000  Uiso   1.00
C1128  C     0.96960   0.53316   0.76679   0.00000  Uiso   1.00
C1129  C     0.80362   0.49569   0.83730   0.00000  Uiso   1.00
C1130  C     0.86325   0.49767   0.66229   0.00000  Uiso   1.00
C1131  C     0.78754   0.48123   0.88524   0.00000  Uiso   1.00
C1132  C     0.83345   0.41996   0.74964   0.00000  Uiso   1.00
C1133  C     0.88103   0.49205   0.61213   0.00000  Uiso   1.00
C1134  C     0.72544   0.46105   0.95774   0.00000  Uiso   1.00
C1135  C     0.93900   0.51214   0.53857   0.00000  Uiso   1.00
C1136  C     0.73832   0.47657   0.91271   0.00000  Uiso   1.00
C1137  C     0.92591   0.50864   0.58568   0.00000  Uiso   1.00
C1138  C     0.82295   0.46864   0.90302   0.00000  Uiso   1.00
C1139  C     0.85149   0.47285   0.59075   0.00000  Uiso   1.00
C1140  C     0.80966   0.46710   0.95074   0.00000  Uiso   1.00
C1141  C     0.86378   0.47666   0.54200   0.00000  Uiso   1.00
C1142  C     0.76153   0.45580   0.97724   0.00000  Uiso   1.00
C1143  C     0.79105   0.43709   0.53766   0.00000  Uiso   1.00
C1144  C     0.90708   0.49969   0.51660   0.00000  Uiso   1.00
C1145  C     0.84285   0.47615   0.97251   0.00000  Uiso   1.00
C1146  C     0.83277   0.46276   0.51820   0.00000  Uiso   1.00
C1147  C     0.70502   0.41719   0.54885   0.00000  Uiso   1.00
C1148  C     0.69891   0.37564   0.52804   0.00000  Uiso   1.00
C1149  C     0.95784   0.54076   0.94329   0.00000  Uiso   1.00
C1150  C     0.94621   0.58605   0.95759   0.00000  Uiso   1.00
C1151  C     0.80734   0.45111   0.62122   0.00000  Uiso   1.00
C1152  C     0.86539   0.44289   0.87435   0.00000  Uiso   1.00
C1153  C     0.88318   0.50154   0.95020   0.00000  Uiso   1.00
C1154  C     0.75279   0.43781   0.52083   0.00000  Uiso   1.00
C1155  C     0.91629   0.51213   0.97055   0.00000  Uiso   1.00
C1156  C     0.87708   0.64538   0.74162   0.00000  Uiso   1.00
C1157  C     0.79000   0.35465   0.75688   0.00000  Uiso   1.00
C1158  C     0.87713   0.35465   0.74142   0.00000  Uiso   1.00
H1159  H     0.94962   0.52174   0.60179   0.00000  Uiso   1.00
H1160  H     0.75595   0.62919   0.76336   0.00000  Uiso   1.00
H1161  H     0.96930   0.44005   0.72036   0.00000  Uiso   1.00
H1162  H     0.69715   0.55972   0.78022   0.00000  Uiso   1.00
H1163  H     0.71966   0.43978   0.72123   0.00000  Uiso   1.00
H1164  H     0.94631   0.55966   0.78033   0.00000  Uiso   1.00
H1165  H     0.69849   0.37999   0.99279   0.00000  Uiso   1.00
H1166  H     0.72908   0.35430   0.52652   0.00000  Uiso   1.00
H1167  H     0.99736   0.36107   0.54986   0.00000  Uiso   1.00
H1168  H     0.70317   0.41125   0.58469   0.00000  Uiso   1.00
H1169  H     0.67415   0.43816   0.55179   0.00000  Uiso   1.00
H1170  H     0.71042   0.48239   0.89849   0.00000  Uiso   1.00
H1171  H     0.91297   0.59604   0.95151   0.00000  Uiso   1.00
H1172  H     0.94047   0.59021   0.99457   0.00000  Uiso   1.00
H1173  H     0.97693   0.60620   0.93680   0.00000  Uiso   1.00
H1174  H     0.99231   0.53149   0.94701   0.00000  Uiso   1.00
H1175  H     0.96490   0.53856   0.90576   0.00000  Uiso   1.00
H1176  H     0.77943   0.40084   0.66110   0.00000  Uiso   1.00
H1177  H     0.89094   0.40069   0.82359   0.00000  Uiso   1.00
H1178  H     0.68758   0.45451   0.97704   0.00000  Uiso   1.00
H1179  H     0.97315   0.52744   0.52043   0.00000  Uiso   1.00
H1180  H     0.78739   0.41544   0.56511   0.00000  Uiso   1.00
H1181  H     0.88837   0.51453   0.91652   0.00000  Uiso   1.00
H1182  H     0.91104   0.62916   0.73543   0.00000  Uiso   1.00
H1183  H     0.75603   0.37086   0.76308   0.00000  Uiso   1.00
H1184  H     0.91112   0.37087   0.73510   0.00000  Uiso   1.00
N1185  N     0.71426   0.50001   0.75001   0.00000  Uiso   1.00
N1186  N     0.95241   0.49999   0.74999   0.00000  Uiso   1.00
O1187  O     0.79512   0.56108   0.75001   0.00000  Uiso   1.00
O1188  O     0.81194   0.41309   0.64130   0.00000  Uiso   1.00
O1189  O     0.90300   0.44158   0.88230   0.00000  Uiso   1.00
O1190  O     0.86060   0.41757   0.83991   0.00000  Uiso   1.00
O1191  O     0.87154   0.43892   0.75000   0.00000  Uiso   1.00
O1192  O     0.87157   0.56107   0.75000   0.00000  Uiso   1.00
O1193  O     0.79510   0.43893   0.75000   0.00000  Uiso   1.00
O1194  O     0.77328   0.50001   0.81613   0.00000  Uiso   1.00
O1195  O     0.89339   0.49999   0.68388   0.00000  Uiso   1.00
O1196  O     0.84972   0.50000   0.81612   0.00000  Uiso   1.00
O1197  O     0.81695   0.50000   0.68388   0.00000  Uiso   1.00
O1198  O     0.76739   0.46708   0.62985   0.00000  Uiso   1.00
Zn1199 Zn    0.78229   0.50001   0.75000   0.00000  Uiso   1.00
Zn1200 Zn    0.88438   0.49999   0.75000   0.00000  Uiso   1.00
C1201  C     0.16670   0.91338   0.74990   0.00000  Uiso   1.00
C1202  C     0.12328   0.97872   0.75704   0.00000  Uiso   1.00
C1203  C     0.16689   0.70916   0.74925   0.00000  Uiso   1.00
C1204  C     0.16680   0.95754   0.74954   0.00000  Uiso   1.00
C1205  C     0.31563   0.80001   0.73362   0.00000  Uiso   1.00
C1206  C     0.01756   0.86653   0.76673   0.00000  Uiso   1.00
C1207  C     0.03010   0.79993   0.73391   0.00000  Uiso   1.00
C1208  C     0.30293   0.86649   0.76679   0.00000  Uiso   1.00
C1209  C     0.13695   0.82902   0.83730   0.00000  Uiso   1.00
C1210  C     0.19658   0.83100   0.66229   0.00000  Uiso   1.00
C1211  C     0.12087   0.81457   0.88524   0.00000  Uiso   1.00
C1212  C     0.16679   0.75329   0.74964   0.00000  Uiso   1.00
C1213  C     0.21437   0.82538   0.61213   0.00000  Uiso   1.00
C1214  C     0.05878   0.79439   0.95774   0.00000  Uiso   1.00
C1215  C     0.27233   0.84547   0.53857   0.00000  Uiso   1.00
C1216  C     0.07166   0.80990   0.91271   0.00000  Uiso   1.00
C1217  C     0.25924   0.84198   0.58568   0.00000  Uiso   1.00
C1218  C     0.15629   0.80197   0.90302   0.00000  Uiso   1.00
C1219  C     0.18482   0.80618   0.59075   0.00000  Uiso   1.00
C1220  C     0.14299   0.80043   0.95074   0.00000  Uiso   1.00
C1221  C     0.19711   0.80999   0.54200   0.00000  Uiso   1.00
C1222  C     0.09486   0.78913   0.97724   0.00000  Uiso   1.00
C1223  C     0.12438   0.77042   0.53766   0.00000  Uiso   1.00
C1224  C     0.24042   0.83302   0.51660   0.00000  Uiso   1.00
C1225  C     0.17618   0.80948   0.97251   0.00000  Uiso   1.00
C1226  C     0.16610   0.79609   0.51820   0.00000  Uiso   1.00
C1227  C     0.03836   0.75052   0.54885   0.00000  Uiso   1.00
C1228  C     0.03224   0.70897   0.52804   0.00000  Uiso   1.00
C1229  C     0.29117   0.87410   0.94329   0.00000  Uiso   1.00
C1230  C     0.27955   0.91938   0.95759   0.00000  Uiso   1.00
C1231  C     0.14067   0.78444   0.62122   0.00000  Uiso   1.00
C1232  C     0.19872   0.77623   0.87435   0.00000  Uiso   1.00
C1233  C     0.21652   0.83487   0.95020   0.00000  Uiso   1.00
C1234  C     0.08612   0.77115   0.52083   0.00000  Uiso   1.00
C1235  C     0.24962   0.84547   0.97055   0.00000  Uiso   1.00
C1236  C     0.21041   0.97871   0.74162   0.00000  Uiso   1.00
C1237  C     0.12333   0.68799   0.75688   0.00000  Uiso   1.00
C1238  C     0.21047   0.68799   0.74142   0.00000  Uiso   1.00
H1239  H     0.28295   0.85507   0.60179   0.00000  Uiso   1.00
H1240  H     0.08928   0.96253   0.76336   0.00000  Uiso   1.00
H1241  H     0.30263   0.77339   0.72036   0.00000  Uiso   1.00
H1242  H     0.03048   0.89305   0.78022   0.00000  Uiso   1.00
H1243  H     0.05299   0.77311   0.72123   0.00000  Uiso   1.00
H1244  H     0.27965   0.89299   0.78033   0.00000  Uiso   1.00
H1245  H     0.03182   0.71333   0.99279   0.00000  Uiso   1.00
H1246  H     0.06241   0.68763   0.52652   0.00000  Uiso   1.00
H1247  H     0.33069   0.69440   0.54986   0.00000  Uiso   1.00
H1248  H     0.03651   0.74459   0.58469   0.00000  Uiso   1.00
H1249  H     0.00749   0.77149   0.55179   0.00000  Uiso   1.00
H1250  H     0.04376   0.81573   0.89849   0.00000  Uiso   1.00
H1251  H     0.24631   0.92937   0.95151   0.00000  Uiso   1.00
H1252  H     0.27380   0.92355   0.99457   0.00000  Uiso   1.00
H1253  H     0.31026   0.93954   0.93680   0.00000  Uiso   1.00
H1254  H     0.32564   0.86482   0.94701   0.00000  Uiso   1.00
H1255  H     0.29823   0.87189   0.90576   0.00000  Uiso   1.00
H1256  H     0.11276   0.73418   0.66110   0.00000  Uiso   1.00
H1257  H     0.22427   0.73402   0.82359   0.00000  Uiso   1.00
H1258  H     0.02092   0.78784   0.97704   0.00000  Uiso   1.00
H1259  H     0.30649   0.86078   0.52043   0.00000  Uiso   1.00
H1260  H     0.12072   0.74878   0.56511   0.00000  Uiso   1.00
H1261  H     0.22171   0.84787   0.91652   0.00000  Uiso   1.00
H1262  H     0.24438   0.96250   0.73543   0.00000  Uiso   1.00
H1263  H     0.08936   0.70419   0.76308   0.00000  Uiso   1.00
H1264  H     0.24445   0.70421   0.73510   0.00000  Uiso   1.00
N1265  N     0.04759   0.83334   0.75001   0.00000  Uiso   1.00
N1266  N     0.28574   0.83332   0.74999   0.00000  Uiso   1.00
O1267  O     0.12846   0.89442   0.75001   0.00000  Uiso   1.00
O1268  O     0.14527   0.74642   0.64130   0.00000  Uiso   1.00
O1269  O     0.23633   0.77491   0.88230   0.00000  Uiso   1.00
O1270  O     0.19393   0.75090   0.83991   0.00000  Uiso   1.00
O1271  O     0.20488   0.77225   0.75000   0.00000  Uiso   1.00
O1272  O     0.20490   0.89441   0.75000   0.00000  Uiso   1.00
O1273  O     0.12843   0.77226   0.75000   0.00000  Uiso   1.00
O1274  O     0.10661   0.83334   0.81613   0.00000  Uiso   1.00
O1275  O     0.22672   0.83333   0.68388   0.00000  Uiso   1.00
O1276  O     0.18305   0.83333   0.81612   0.00000  Uiso   1.00
O1277  O     0.15028   0.83334   0.68388   0.00000  Uiso   1.00
O1278  O     0.10072   0.80041   0.62985   0.00000  Uiso   1.00
Zn1279 Zn    0.11562   0.83334   0.75000   0.00000  Uiso   1.00
Zn1280 Zn    0.21771   0.83333   0.75000   0.00000  Uiso   1.00
C1281  C     0.50003   0.91338   0.74990   0.00000  Uiso   1.00
C1282  C     0.45662   0.97872   0.75704   0.00000  Uiso   1.00
C1283  C     0.50022   0.70916   0.74925   0.00000  Uiso   1.00
C1284  C     0.50013   0.95754   0.74954   0.00000  Uiso   1.00
C1285  C     0.64896   0.80001   0.73362   0.00000  Uiso   1.00
C1286  C     0.35089   0.86653   0.76673   0.00000  Uiso   1.00
C1287  C     0.36343   0.79993   0.73391   0.00000  Uiso   1.00
C1288  C     0.63626   0.86649   0.76679   0.00000  Uiso   1.00
C1289  C     0.47028   0.82902   0.83730   0.00000  Uiso   1.00
C1290  C     0.52991   0.83100   0.66229   0.00000  Uiso   1.00
C1291  C     0.45420   0.81457   0.88524   0.00000  Uiso   1.00
C1292  C     0.50012   0.75329   0.74964   0.00000  Uiso   1.00
C1293  C     0.54770   0.82538   0.61213   0.00000  Uiso   1.00
C1294  C     0.39211   0.79439   0.95774   0.00000  Uiso   1.00
C1295  C     0.60567   0.84547   0.53857   0.00000  Uiso   1.00
C1296  C     0.40499   0.80990   0.91271   0.00000  Uiso   1.00
C1297  C     0.59257   0.84198   0.58568   0.00000  Uiso   1.00
C1298  C     0.48962   0.80197   0.90302   0.00000  Uiso   1.00
C1299  C     0.51816   0.80618   0.59075   0.00000  Uiso   1.00
C1300  C     0.47633   0.80043   0.95074   0.00000  Uiso   1.00
C1301  C     0.53045   0.80999   0.54200   0.00000  Uiso   1.00
C1302  C     0.42820   0.78913   0.97724   0.00000  Uiso   1.00
C1303  C     0.45771   0.77042   0.53766   0.00000  Uiso   1.00
C1304  C     0.57375   0.83302   0.51660   0.00000  Uiso   1.00
C1305  C     0.50952   0.80948   0.97251   0.00000  Uiso   1.00
C1306  C     0.49944   0.79609   0.51820   0.00000  Uiso   1.00
C1307  C     0.37169   0.75052   0.54885   0.00000  Uiso   1.00
C1308  C     0.36557   0.70897   0.52804   0.00000  Uiso   1.00
C1309  C     0.62451   0.87410   0.94329   0.00000  Uiso   1.00
C1310  C     0.61288   0.91938   0.95759   0.00000  Uiso   1.00
C1311  C     0.47401   0.78444   0.62122   0.00000  Uiso   1.00
C1312  C     0.53206   0.77623   0.87435   0.00000  Uiso   1.00
C1313  C     0.54985   0.83487   0.95020   0.00000  Uiso   1.00
C1314  C     0.41946   0.77115   0.52083   0.00000  Uiso   1.00
C1315  C     0.58296   0.84547   0.97055   0.00000  Uiso   1.00
C1316  C     0.54375   0.97871   0.74162   0.00000  Uiso   1.00
C1317  C     0.45666   0.68799   0.75688   0.00000  Uiso   1.00
C1318  C     0.54380   0.68799   0.74142   0.00000  Uiso   1.00
H1319  H     0.61628   0.85507   0.60179   0.00000  Uiso   1.00
H1320  H     0.42262   0.96253   0.76336   0.00000  Uiso   1.00
H1321  H     0.63596   0.77339   0.72036   0.00000  Uiso   1.00
H1322  H     0.36381   0.89305   0.78022   0.00000  Uiso   1.00
H1323  H     0.38632   0.77311   0.72123   0.00000  Uiso   1.00
H1324  H     0.61298   0.89299   0.78033   0.00000  Uiso   1.00
H1325  H     0.36515   0.71333   0.99279   0.00000  Uiso   1.00
H1326  H     0.39574   0.68763   0.52652   0.00000  Uiso   1.00
H1327  H     0.66403   0.69440   0.54986   0.00000  Uiso   1.00
H1328  H     0.36984   0.74459   0.58469   0.00000  Uiso   1.00
H1329  H     0.34082   0.77149   0.55179   0.00000  Uiso   1.00
H1330  H     0.37709   0.81573   0.89849   0.00000  Uiso   1.00
H1331  H     0.57964   0.92937   0.95151   0.00000  Uiso   1.00
H1332  H     0.60714   0.92355   0.99457   0.00000  Uiso   1.00
H1333  H     0.64359   0.93954   0.93680   0.00000  Uiso   1.00
H1334  H     0.65898   0.86482   0.94701   0.00000  Uiso   1.00
H1335  H     0.63156   0.87189   0.90576   0.00000  Uiso   1.00
H1336  H     0.44610   0.73418   0.66110   0.00000  Uiso   1.00
H1337  H     0.55761   0.73402   0.82359   0.00000  Uiso   1.00
H1338  H     0.35425   0.78784   0.97704   0.00000  Uiso   1.00
H1339  H     0.63982   0.86078   0.52043   0.00000  Uiso   1.00
H1340  H     0.45405   0.74878   0.56511   0.00000  Uiso   1.00
H1341  H     0.55504   0.84787   0.91652   0.00000  Uiso   1.00
H1342  H     0.57771   0.96250   0.73543   0.00000  Uiso   1.00
H1343  H     0.42269   0.70419   0.76308   0.00000  Uiso   1.00
H1344  H     0.57778   0.70421   0.73510   0.00000  Uiso   1.00
N1345  N     0.38093   0.83334   0.75001   0.00000  Uiso   1.00
N1346  N     0.61907   0.83332   0.74999   0.00000  Uiso   1.00
O1347  O     0.46179   0.89442   0.75001   0.00000  Uiso   1.00
O1348  O     0.47860   0.74642   0.64130   0.00000  Uiso   1.00
O1349  O     0.56966   0.77491   0.88230   0.00000  Uiso   1.00
O1350  O     0.52727   0.75090   0.83991   0.00000  Uiso   1.00
O1351  O     0.53821   0.77225   0.75000   0.00000  Uiso   1.00
O1352  O     0.53823   0.89441   0.75000   0.00000  Uiso   1.00
O1353  O     0.46177   0.77226   0.75000   0.00000  Uiso   1.00
O1354  O     0.43994   0.83334   0.81613   0.00000  Uiso   1.00
O1355  O     0.56006   0.83333   0.68388   0.00000  Uiso   1.00
O1356  O     0.51639   0.83333   0.81612   0.00000  Uiso   1.00
O1357  O     0.48361   0.83334   0.68388   0.00000  Uiso   1.00
O1358  O     0.43406   0.80041   0.62985   0.00000  Uiso   1.00
Zn1359 Zn    0.44896   0.83334   0.75000   0.00000  Uiso   1.00
Zn1360 Zn    0.55104   0.83333   0.75000   0.00000  Uiso   1.00
C1361  C     0.83337   0.91338   0.74990   0.00000  Uiso   1.00
C1362  C     0.78995   0.97872   0.75704   0.00000  Uiso   1.00
C1363  C     0.83355   0.70916   0.74925   0.00000  Uiso   1.00
C1364  C     0.83346   0.95754   0.74954   0.00000  Uiso   1.00
C1365  C     0.98229   0.80001   0.73362   0.00000  Uiso   1.00
C1366  C     0.68423   0.86653   0.76673   0.00000  Uiso   1.00
C1367  C     0.69677   0.79993   0.73391   0.00000  Uiso   1.00
C1368  C     0.96960   0.86649   0.76679   0.00000  Uiso   1.00
C1369  C     0.80362   0.82902   0.83730   0.00000  Uiso   1.00
C1370  C     0.86325   0.83100   0.66229   0.00000  Uiso   1.00
C1371  C     0.78754   0.81457   0.88524   0.00000  Uiso   1.00
C1372  C     0.83345   0.75329   0.74964   0.00000  Uiso   1.00
C1373  C     0.88103   0.82538   0.61213   0.00000  Uiso   1.00
C1374  C     0.72544   0.79439   0.95774   0.00000  Uiso   1.00
C1375  C     0.93900   0.84547   0.53857   0.00000  Uiso   1.00
C1376  C     0.73832   0.80990   0.91271   0.00000  Uiso   1.00
C1377  C     0.92591   0.84198   0.58568   0.00000  Uiso   1.00
C1378  C     0.82295   0.80197   0.90302   0.00000  Uiso   1.00
C1379  C     0.85149   0.80618   0.59075   0.00000  Uiso   1.00
C1380  C     0.80966   0.80043   0.95074   0.00000  Uiso   1.00
C1381  C     0.86378   0.80999   0.54200   0.00000  Uiso   1.00
C1382  C     0.76153   0.78913   0.97724   0.00000  Uiso   1.00
C1383  C     0.79105   0.77042   0.53766   0.00000  Uiso   1.00
C1384  C     0.90708   0.83302   0.51660   0.00000  Uiso   1.00
C1385  C     0.84285   0.80948   0.97251   0.00000  Uiso   1.00
C1386  C     0.83277   0.79609   0.51820   0.00000  Uiso   1.00
C1387  C     0.70502   0.75052   0.54885   0.00000  Uiso   1.00
C1388  C     0.69891   0.70897   0.52804   0.00000  Uiso   1.00
C1389  C     0.95784   0.87410   0.94329   0.00000  Uiso   1.00
C1390  C     0.94621   0.91938   0.95759   0.00000  Uiso   1.00
C1391  C     0.80734   0.78444   0.62122   0.00000  Uiso   1.00
C1392  C     0.86539   0.77623   0.87435   0.00000  Uiso   1.00
C1393  C     0.88318   0.83487   0.95020   0.00000  Uiso   1.00
C1394  C     0.75279   0.77115   0.52083   0.00000  Uiso   1.00
C1395  C     0.91629   0.84547   0.97055   0.00000  Uiso   1.00
C1396  C     0.87708   0.97871   0.74162   0.00000  Uiso   1.00
C1397  C     0.79000   0.68799   0.75688   0.00000  Uiso   1.00
C1398  C     0.87713   0.68799   0.74142   0.00000  Uiso   1.00
H1399  H     0.94962   0.85507   0.60179   0.00000  Uiso   1.00
H1400  H     0.75595   0.96253   0.76336   0.00000  Uiso   1.00
H1401  H     0.96930   0.77339   0.72036   0.00000  Uiso   1.00
H1402  H     0.69715   0.89305   0.78022   0.00000  Uiso   1.00
H1403  H     0.71966   0.77311   0.72123   0.00000  Uiso   1.00
H1404  H     0.94631   0.89299   0.78033   0.00000  Uiso   1.00
H1405  H     0.69849   0.71333   0.99279   0.00000  Uiso   1.00
H1406  H     0.72908   0.68763   0.52652   0.00000  Uiso   1.00
H1407  H     0.99736   0.69440   0.54986   0.00000  Uiso   1.00
H1408  H     0.70317   0.74459   0.58469   0.00000  Uiso   1.00
H1409  H     0.67415   0.77149   0.55179   0.00000  Uiso   1.00
H1410  H     0.71042   0.81573   0.89849   0.00000  Uiso   1.00
H1411  H     0.91297   0.92937   0.95151   0.00000  Uiso   1.00
H1412  H     0.94047   0.92355   0.99457   0.00000  Uiso   1.00
H1413  H     0.97693   0.93954   0.93680   0.00000  Uiso   1.00
H1414  H     0.99231   0.86482   0.94701   0.00000  Uiso   1.00
H1415  H     0.96490   0.87189   0.90576   0.00000  Uiso   1.00
H1416  H     0.77943   0.73418   0.66110   0.00000  Uiso   1.00
H1417  H     0.89094   0.73402   0.82359   0.00000  Uiso   1.00
H1418  H     0.68758   0.78784   0.97704   0.00000  Uiso   1.00
H1419  H     0.97315   0.86078   0.52043   0.00000  Uiso   1.00
H1420  H     0.78739   0.74878   0.56511   0.00000  Uiso   1.00
H1421  H     0.88837   0.84787   0.91652   0.00000  Uiso   1.00
H1422  H     0.91104   0.96250   0.73543   0.00000  Uiso   1.00
H1423  H     0.75603   0.70419   0.76308   0.00000  Uiso   1.00
H1424  H     0.91112   0.70421   0.73510   0.00000  Uiso   1.00
N1425  N     0.71426   0.83334   0.75001   0.00000  Uiso   1.00
N1426  N     0.95241   0.83332   0.74999   0.00000  Uiso   1.00
O1427  O     0.79512   0.89442   0.75001   0.00000  Uiso   1.00
O1428  O     0.81194   0.74642   0.64130   0.00000  Uiso   1.00
O1429  O     0.90300   0.77491   0.88230   0.00000  Uiso   1.00
O1430  O     0.86060   0.75090   0.83991   0.00000  Uiso   1.00
O1431  O     0.87154   0.77225   0.75000   0.00000  Uiso   1.00
O1432  O     0.87157   0.89441   0.75000   0.00000  Uiso   1.00
O1433  O     0.79510   0.77226   0.75000   0.00000  Uiso   1.00
O1434  O     0.77328   0.83334   0.81613   0.00000  Uiso   1.00
O1435  O     0.89339   0.83333   0.68388   0.00000  Uiso   1.00
O1436  O     0.84972   0.83333   0.81612   0.00000  Uiso   1.00
O1437  O     0.81695   0.83334   0.68388   0.00000  Uiso   1.00
O1438  O     0.76739   0.80041   0.62985   0.00000  Uiso   1.00
Zn1439 Zn    0.78229   0.83334   0.75000   0.00000  Uiso   1.00
Zn1440 Zn    0.88438   0.83333   0.75000   0.00000  Uiso   1.00
loop_
_geom_bond_atom_site_label_1
_geom_bond_atom_site_label_2
_geom_bond_distance
_geom_bond_site_symmetry_2
_ccdc_geom_bond_type
C1     O67     1.282   .     A
C1     O72     1.282   .     A
C1     C4      1.419   .     S
C2     C4      1.397   .     A
C2     H40     1.084   .     S
C2     C277    1.369   .     S
C3     C12     1.419   .     S
C3     C38     1.397   .     A
C3     C37     1.397   .     A
C4     C36     1.397   .     A
C5     H41     1.081   .     S
C5     N66     1.366   .     A
C5     C87     1.414   .     S
C6     N65     1.366   .     A
C6     H42     1.081   .     S
C6     C168    1.415   1_455 S
C7     H43     1.080   .     S
C7     N65     1.366   .     A
C7     C165    1.414   1_455 S
C8     N66     1.366   .     A
C8     H44     1.081   .     S
C8     C86     1.415   .     S
C9     O76     1.287   .     A
C9     C11     1.466   .     S
C9     O74     1.296   .     A
C10    O77     1.289   .     A
C10    C13     1.469   .     S
C10    O75     1.296   .     A
C11    C18     1.406   .     A
C11    C16     1.402   .     A
C12    O73     1.282   .     A
C12    O71     1.283   .     A
C13    C19     1.417   .     A
C13    C17     1.388   .     A
C14    H58     1.081   .     S
C14    C16     1.401   .     A
C14    C22     1.413   .     A
C15    C24     1.409   .     A
C15    C17     1.379   .     A
C15    H59     1.079   .     S
C16    H50     1.082   .     S
C17    H39     1.084   .     S
C18    C32     1.500   .     S
C18    C20     1.393   .     A
C19    C31     1.479   .     S
C19    C21     1.431   .     A
C20    C22     1.408   .     A
C20    C25     1.409   .     A
C21    C26     1.442   .     A
C21    C24     1.439   .     A
C22    C754    1.407   .     S
C23    C26     1.422   .     A
C23    H60     1.073   .     S
C23    C34     1.406   .     A
C24    C755    1.414   1_554 S
C25    C33     1.401   .     A
C25    C746    1.408   .     S
C26    C745    1.408   1_554 S
C27    H48     1.112   .     S
C27    C34     1.515   .     S
C27    C28     1.527   .     S
C27    H49     1.110   .     S
C28    H46     1.111   .     S
C28    H765    1.110   1_554 S
C28    H207    1.110   1_455 S
C29    H54     1.105   .     S
C29    H55     1.113   .     S
C29    C30     1.527   .     S
C29    C35     1.521   .     S
C30    H51     1.111   .     S
C30    H53     1.110   .     S
C30    H52     1.110   .     S
C31    O68     1.398   .     S
C31    O78     1.224   .     D
C32    O70     1.397   .     S
C32    O69     1.222   .     D
C33    C35     1.386   .     A
C33    H61     1.084   .     S
C34    C742    1.407   1_554 S
C35    C744    1.414   .     S
C36    H62     1.084   .     S
C36    C278    1.370   .     S
C37    H63     1.084   .     S
C37    C482    1.369   1_545 S
C38    H64     1.084   .     S
C38    C516    1.370   1_545 S
H45    C748    1.110   .     S
H47    C108    1.110   .     S
H56    O68     1.013   .     S
H57    O70     1.014   .     S
N65    Zn79    2.008   .     S
N66    Zn80    2.008   .     S
O67    Zn79    2.000   .     S
O71    Zn80    2.000   .     S
O72    Zn80    1.999   .     S
O73    Zn79    1.999   .     S
O74    Zn79    1.977   .     S
O75    Zn80    1.977   .     S
O76    Zn80    1.939   .     S
O77    Zn79    1.939   .     S
C81    O147    1.282   .     A
C81    O152    1.282   .     A
C81    C84     1.419   .     S
C82    C84     1.397   .     A
C82    H120    1.084   .     S
C82    C357    1.369   .     S
C83    C92     1.419   .     S
C83    C118    1.397   .     A
C83    C117    1.397   .     A
C84    C116    1.397   .     A
C85    H121    1.081   .     S
C85    N146    1.366   .     A
C85    C167    1.414   .     S
C86    N145    1.366   .     A
C86    H122    1.081   .     S
C87    H123    1.080   .     S
C87    N145    1.366   .     A
C88    N146    1.366   .     A
C88    H124    1.081   .     S
C88    C166    1.415   .     S
C89    O156    1.287   .     A
C89    C91     1.466   .     S
C89    O154    1.296   .     A
C90    O157    1.289   .     A
C90    C93     1.469   .     S
C90    O155    1.296   .     A
C91    C98     1.406   .     A
C91    C96     1.402   .     A
C92    O153    1.282   .     A
C92    O151    1.283   .     A
C93    C99     1.417   .     A
C93    C97     1.388   .     A
C94    H138    1.081   .     S
C94    C96     1.401   .     A
C94    C102    1.413   .     A
C95    C104    1.409   .     A
C95    C97     1.379   .     A
C95    H139    1.079   .     S
C96    H130    1.082   .     S
C97    H119    1.084   .     S
C98    C112    1.500   .     S
C98    C100    1.393   .     A
C99    C111    1.479   .     S
C99    C101    1.431   .     A
C100   C102    1.408   .     A
C100   C105    1.409   .     A
C101   C106    1.442   .     A
C101   C104    1.439   .     A
C102   C834    1.407   .     S
C103   C106    1.422   .     A
C103   H140    1.073   .     S
C103   C114    1.406   .     A
C104   C835    1.414   1_554 S
C105   C113    1.401   .     A
C105   C826    1.408   .     S
C106   C825    1.408   1_554 S
C107   H128    1.112   .     S
C107   C114    1.515   .     S
C107   C108    1.527   .     S
C107   H129    1.110   .     S
C108   H126    1.111   .     S
C108   H845    1.110   1_554 S
C109   H134    1.105   .     S
C109   H135    1.113   .     S
C109   C110    1.527   .     S
C109   C115    1.521   .     S
C110   H131    1.111   .     S
C110   H133    1.110   .     S
C110   H132    1.110   .     S
C111   O148    1.398   .     S
C111   O158    1.224   .     D
C112   O150    1.397   .     S
C112   O149    1.222   .     D
C113   C115    1.386   .     A
C113   H141    1.084   .     S
C114   C822    1.407   1_554 S
C115   C824    1.414   .     S
C116   H142    1.084   .     S
C116   C358    1.370   .     S
C117   H143    1.084   .     S
C117   C562    1.369   1_545 S
C118   H144    1.084   .     S
C118   C596    1.370   1_545 S
H125   C828    1.110   .     S
H127   C188    1.110   .     S
H136   O148    1.013   .     S
H137   O150    1.014   .     S
N145   Zn159   2.008   .     S
N146   Zn160   2.008   .     S
O147   Zn159   2.000   .     S
O151   Zn160   2.000   .     S
O152   Zn160   1.999   .     S
O153   Zn159   1.999   .     S
O154   Zn159   1.977   .     S
O155   Zn160   1.977   .     S
O156   Zn160   1.939   .     S
O157   Zn159   1.939   .     S
C161   O227    1.282   .     A
C161   O232    1.282   .     A
C161   C164    1.419   .     S
C162   C164    1.397   .     A
C162   H200    1.084   .     S
C162   C437    1.369   .     S
C163   C172    1.419   .     S
C163   C198    1.397   .     A
C163   C197    1.397   .     A
C164   C196    1.397   .     A
C165   H201    1.081   .     S
C165   N226    1.366   .     A
C165   C7      1.414   1_655 S
C166   N225    1.366   .     A
C166   H202    1.081   .     S
C167   H203    1.080   .     S
C167   N225    1.366   .     A
C168   N226    1.366   .     A
C168   H204    1.081   .     S
C168   C6      1.415   1_655 S
C169   O236    1.287   .     A
C169   C171    1.466   .     S
C169   O234    1.296   .     A
C170   O237    1.289   .     A
C170   C173    1.469   .     S
C170   O235    1.296   .     A
C171   C178    1.406   .     A
C171   C176    1.402   .     A
C172   O233    1.282   .     A
C172   O231    1.283   .     A
C173   C179    1.417   .     A
C173   C177    1.388   .     A
C174   H218    1.081   .     S
C174   C176    1.401   .     A
C174   C182    1.413   .     A
C175   C184    1.409   .     A
C175   C177    1.379   .     A
C175   H219    1.079   .     S
C176   H210    1.082   .     S
C177   H199    1.084   .     S
C178   C192    1.500   .     S
C178   C180    1.393   .     A
C179   C191    1.479   .     S
C179   C181    1.431   .     A
C180   C182    1.408   .     A
C180   C185    1.409   .     A
C181   C186    1.442   .     A
C181   C184    1.439   .     A
C182   C914    1.407   .     S
C183   C186    1.422   .     A
C183   H220    1.073   .     S
C183   C194    1.406   .     A
C184   C915    1.414   1_554 S
C185   C193    1.401   .     A
C185   C906    1.408   .     S
C186   C905    1.408   1_554 S
C187   H208    1.112   .     S
C187   C194    1.515   .     S
C187   C188    1.527   .     S
C187   H209    1.110   .     S
C188   H206    1.111   .     S
C188   H925    1.110   1_554 S
C189   H214    1.105   .     S
C189   H215    1.113   .     S
C189   C190    1.527   .     S
C189   C195    1.521   .     S
C190   H211    1.111   .     S
C190   H213    1.110   .     S
C190   H212    1.110   .     S
C191   O228    1.398   .     S
C191   O238    1.224   .     D
C192   O230    1.397   .     S
C192   O229    1.222   .     D
C193   C195    1.386   .     A
C193   H221    1.084   .     S
C194   C902    1.407   1_554 S
C195   C904    1.414   .     S
C196   H222    1.084   .     S
C196   C438    1.370   .     S
C197   H223    1.084   .     S
C197   C642    1.369   1_545 S
C198   H224    1.084   .     S
C198   C676    1.370   1_545 S
H205   C908    1.110   .     S
H207   C28     1.110   1_655 S
H216   O228    1.013   .     S
H217   O230    1.014   .     S
N225   Zn239   2.008   .     S
N226   Zn240   2.008   .     S
O227   Zn239   2.000   .     S
O231   Zn240   2.000   .     S
O232   Zn240   1.999   .     S
O233   Zn239   1.999   .     S
O234   Zn239   1.977   .     S
O235   Zn240   1.977   .     S
O236   Zn240   1.939   .     S
O237   Zn239   1.939   .     S
C241   O307    1.282   .     A
C241   O312    1.282   .     A
C241   C244    1.419   .     S
C242   C244    1.397   .     A
C242   H280    1.084   .     S
C242   C517    1.369   .     S
C243   C252    1.419   .     S
C243   C278    1.397   .     A
C243   C277    1.397   .     A
C244   C276    1.397   .     A
C245   H281    1.081   .     S
C245   N306    1.366   .     A
C245   C327    1.414   .     S
C246   N305    1.366   .     A
C246   H282    1.081   .     S
C246   C408    1.415   1_455 S
C247   H283    1.080   .     S
C247   N305    1.366   .     A
C247   C405    1.414   1_455 S
C248   N306    1.366   .     A
C248   H284    1.081   .     S
C248   C326    1.415   .     S
C249   O316    1.287   .     A
C249   C251    1.466   .     S
C249   O314    1.296   .     A
C250   O317    1.289   .     A
C250   C253    1.469   .     S
C250   O315    1.296   .     A
C251   C258    1.406   .     A
C251   C256    1.402   .     A
C252   O313    1.282   .     A
C252   O311    1.283   .     A
C253   C259    1.417   .     A
C253   C257    1.388   .     A
C254   H298    1.081   .     S
C254   C256    1.401   .     A
C254   C262    1.413   .     A
C255   C264    1.409   .     A
C255   C257    1.379   .     A
C255   H299    1.079   .     S
C256   H290    1.082   .     S
C257   H279    1.084   .     S
C258   C272    1.500   .     S
C258   C260    1.393   .     A
C259   C271    1.479   .     S
C259   C261    1.431   .     A
C260   C262    1.408   .     A
C260   C265    1.409   .     A
C261   C266    1.442   .     A
C261   C264    1.439   .     A
C262   C994    1.407   .     S
C263   C266    1.422   .     A
C263   H300    1.073   .     S
C263   C274    1.406   .     A
C264   C995    1.414   1_554 S
C265   C273    1.401   .     A
C265   C986    1.408   .     S
C266   C985    1.408   1_554 S
C267   H288    1.112   .     S
C267   C274    1.515   .     S
C267   C268    1.527   .     S
C267   H289    1.110   .     S
C268   H286    1.111   .     S
C268   H1005   1.110   1_554 S
C268   H447    1.110   1_455 S
C269   H294    1.105   .     S
C269   H295    1.113   .     S
C269   C270    1.527   .     S
C269   C275    1.521   .     S
C270   H291    1.111   .     S
C270   H293    1.110   .     S
C270   H292    1.110   .     S
C271   O308    1.398   .     S
C271   O318    1.224   .     D
C272   O310    1.397   .     S
C272   O309    1.222   .     D
C273   C275    1.386   .     A
C273   H301    1.084   .     S
C274   C982    1.407   1_554 S
C275   C984    1.414   .     S
C276   H302    1.084   .     S
C276   C518    1.370   .     S
C277   H303    1.084   .     S
C278   H304    1.084   .     S
H285   C988    1.110   .     S
H287   C348    1.110   .     S
H296   O308    1.013   .     S
H297   O310    1.014   .     S
N305   Zn319   2.008   .     S
N306   Zn320   2.008   .     S
O307   Zn319   2.000   .     S
O311   Zn320   2.000   .     S
O312   Zn320   1.999   .     S
O313   Zn319   1.999   .     S
O314   Zn319   1.977   .     S
O315   Zn320   1.977   .     S
O316   Zn320   1.939   .     S
O317   Zn319   1.939   .     S
C321   O387    1.282   .     A
C321   O392    1.282   .     A
C321   C324    1.419   .     S
C322   C324    1.397   .     A
C322   H360    1.084   .     S
C322   C597    1.369   .     S
C323   C332    1.419   .     S
C323   C358    1.397   .     A
C323   C357    1.397   .     A
C324   C356    1.397   .     A
C325   H361    1.081   .     S
C325   N386    1.366   .     A
C325   C407    1.414   .     S
C326   N385    1.366   .     A
C326   H362    1.081   .     S
C327   H363    1.080   .     S
C327   N385    1.366   .     A
C328   N386    1.366   .     A
C328   H364    1.081   .     S
C328   C406    1.415   .     S
C329   O396    1.287   .     A
C329   C331    1.466   .     S
C329   O394    1.296   .     A
C330   O397    1.289   .     A
C330   C333    1.469   .     S
C330   O395    1.296   .     A
C331   C338    1.406   .     A
C331   C336    1.402   .     A
C332   O393    1.282   .     A
C332   O391    1.283   .     A
C333   C339    1.417   .     A
C333   C337    1.388   .     A
C334   H378    1.081   .     S
C334   C336    1.401   .     A
C334   C342    1.413   .     A
C335   C344    1.409   .     A
C335   C337    1.379   .     A
C335   H379    1.079   .     S
C336   H370    1.082   .     S
C337   H359    1.084   .     S
C338   C352    1.500   .     S
C338   C340    1.393   .     A
C339   C351    1.479   .     S
C339   C341    1.431   .     A
C340   C342    1.408   .     A
C340   C345    1.409   .     A
C341   C346    1.442   .     A
C341   C344    1.439   .     A
C342   C1074   1.407   .     S
C343   C346    1.422   .     A
C343   H380    1.073   .     S
C343   C354    1.406   .     A
C344   C1075   1.414   1_554 S
C345   C353    1.401   .     A
C345   C1066   1.408   .     S
C346   C1065   1.408   1_554 S
C347   H368    1.112   .     S
C347   C354    1.515   .     S
C347   C348    1.527   .     S
C347   H369    1.110   .     S
C348   H366    1.111   .     S
C348   H1085   1.110   1_554 S
C349   H374    1.105   .     S
C349   H375    1.113   .     S
C349   C350    1.527   .     S
C349   C355    1.521   .     S
C350   H371    1.111   .     S
C350   H373    1.110   .     S
C350   H372    1.110   .     S
C351   O388    1.398   .     S
C351   O398    1.224   .     D
C352   O390    1.397   .     S
C352   O389    1.222   .     D
C353   C355    1.386   .     A
C353   H381    1.084   .     S
C354   C1062   1.407   1_554 S
C355   C1064   1.414   .     S
C356   H382    1.084   .     S
C356   C598    1.370   .     S
C357   H383    1.084   .     S
C358   H384    1.084   .     S
H365   C1068   1.110   .     S
H367   C428    1.110   .     S
H376   O388    1.013   .     S
H377   O390    1.014   .     S
N385   Zn399   2.008   .     S
N386   Zn400   2.008   .     S
O387   Zn399   2.000   .     S
O391   Zn400   2.000   .     S
O392   Zn400   1.999   .     S
O393   Zn399   1.999   .     S
O394   Zn399   1.977   .     S
O395   Zn400   1.977   .     S
O396   Zn400   1.939   .     S
O397   Zn399   1.939   .     S
C401   O467    1.282   .     A
C401   O472    1.282   .     A
C401   C404    1.419   .     S
C402   C404    1.397   .     A
C402   H440    1.084   .     S
C402   C677    1.369   .     S
C403   C412    1.419   .     S
C403   C438    1.397   .     A
C403   C437    1.397   .     A
C404   C436    1.397   .     A
C405   H441    1.081   .     S
C405   N466    1.366   .     A
C405   C247    1.414   1_655 S
C406   N465    1.366   .     A
C406   H442    1.081   .     S
C407   H443    1.080   .     S
C407   N465    1.366   .     A
C408   N466    1.366   .     A
C408   H444    1.081   .     S
C408   C246    1.415   1_655 S
C409   O476    1.287   .     A
C409   C411    1.466   .     S
C409   O474    1.296   .     A
C410   O477    1.289   .     A
C410   C413    1.469   .     S
C410   O475    1.296   .     A
C411   C418    1.406   .     A
C411   C416    1.402   .     A
C412   O473    1.282   .     A
C412   O471    1.283   .     A
C413   C419    1.417   .     A
C413   C417    1.388   .     A
C414   H458    1.081   .     S
C414   C416    1.401   .     A
C414   C422    1.413   .     A
C415   C424    1.409   .     A
C415   C417    1.379   .     A
C415   H459    1.079   .     S
C416   H450    1.082   .     S
C417   H439    1.084   .     S
C418   C432    1.500   .     S
C418   C420    1.393   .     A
C419   C431    1.479   .     S
C419   C421    1.431   .     A
C420   C422    1.408   .     A
C420   C425    1.409   .     A
C421   C426    1.442   .     A
C421   C424    1.439   .     A
C422   C1154   1.407   .     S
C423   C426    1.422   .     A
C423   H460    1.073   .     S
C423   C434    1.406   .     A
C424   C1155   1.414   1_554 S
C425   C433    1.401   .     A
C425   C1146   1.408   .     S
C426   C1145   1.408   1_554 S
C427   H448    1.112   .     S
C427   C434    1.515   .     S
C427   C428    1.527   .     S
C427   H449    1.110   .     S
C428   H446    1.111   .     S
C428   H1165   1.110   1_554 S
C429   H454    1.105   .     S
C429   H455    1.113   .     S
C429   C430    1.527   .     S
C429   C435    1.521   .     S
C430   H451    1.111   .     S
C430   H453    1.110   .     S
C430   H452    1.110   .     S
C431   O468    1.398   .     S
C431   O478    1.224   .     D
C432   O470    1.397   .     S
C432   O469    1.222   .     D
C433   C435    1.386   .     A
C433   H461    1.084   .     S
C434   C1142   1.407   1_554 S
C435   C1144   1.414   .     S
C436   H462    1.084   .     S
C436   C678    1.370   .     S
C437   H463    1.084   .     S
C438   H464    1.084   .     S
H445   C1148   1.110   .     S
H447   C268    1.110   1_655 S
H456   O468    1.013   .     S
H457   O470    1.014   .     S
N465   Zn479   2.008   .     S
N466   Zn480   2.008   .     S
O467   Zn479   2.000   .     S
O471   Zn480   2.000   .     S
O472   Zn480   1.999   .     S
O473   Zn479   1.999   .     S
O474   Zn479   1.977   .     S
O475   Zn480   1.977   .     S
O476   Zn480   1.939   .     S
O477   Zn479   1.939   .     S
C481   O547    1.282   .     A
C481   O552    1.282   .     A
C481   C484    1.419   .     S
C482   C484    1.397   .     A
C482   H520    1.084   .     S
C482   C37     1.369   1_565 S
C483   C492    1.419   .     S
C483   C518    1.397   .     A
C483   C517    1.397   .     A
C484   C516    1.397   .     A
C485   H521    1.081   .     S
C485   N546    1.366   .     A
C485   C567    1.414   .     S
C486   N545    1.366   .     A
C486   H522    1.081   .     S
C486   C648    1.415   1_455 S
C487   H523    1.080   .     S
C487   N545    1.366   .     A
C487   C645    1.414   1_455 S
C488   N546    1.366   .     A
C488   H524    1.081   .     S
C488   C566    1.415   .     S
C489   O556    1.287   .     A
C489   C491    1.466   .     S
C489   O554    1.296   .     A
C490   O557    1.289   .     A
C490   C493    1.469   .     S
C490   O555    1.296   .     A
C491   C498    1.406   .     A
C491   C496    1.402   .     A
C492   O553    1.282   .     A
C492   O551    1.283   .     A
C493   C499    1.417   .     A
C493   C497    1.388   .     A
C494   H538    1.081   .     S
C494   C496    1.401   .     A
C494   C502    1.413   .     A
C495   C504    1.409   .     A
C495   C497    1.379   .     A
C495   H539    1.079   .     S
C496   H530    1.082   .     S
C497   H519    1.084   .     S
C498   C512    1.500   .     S
C498   C500    1.393   .     A
C499   C511    1.479   .     S
C499   C501    1.431   .     A
C500   C502    1.408   .     A
C500   C505    1.409   .     A
C501   C506    1.442   .     A
C501   C504    1.439   .     A
C502   C1234   1.407   .     S
C503   C506    1.422   .     A
C503   H540    1.073   .     S
C503   C514    1.406   .     A
C504   C1235   1.414   1_554 S
C505   C513    1.401   .     A
C505   C1226   1.408   .     S
C506   C1225   1.408   1_554 S
C507   H528    1.112   .     S
C507   C514    1.515   .     S
C507   C508    1.527   .     S
C507   H529    1.110   .     S
C508   H526    1.111   .     S
C508   H1245   1.110   1_554 S
C508   H687    1.110   1_455 S
C509   H534    1.105   .     S
C509   H535    1.113   .     S
C509   C510    1.527   .     S
C509   C515    1.521   .     S
C510   H531    1.111   .     S
C510   H533    1.110   .     S
C510   H532    1.110   .     S
C511   O548    1.398   .     S
C511   O558    1.224   .     D
C512   O550    1.397   .     S
C512   O549    1.222   .     D
C513   C515    1.386   .     A
C513   H541    1.084   .     S
C514   C1222   1.407   1_554 S
C515   C1224   1.414   .     S
C516   H542    1.084   .     S
C516   C38     1.370   1_565 S
C517   H543    1.084   .     S
C518   H544    1.084   .     S
H525   C1228   1.110   .     S
H527   C588    1.110   .     S
H536   O548    1.013   .     S
H537   O550    1.014   .     S
N545   Zn559   2.008   .     S
N546   Zn560   2.008   .     S
O547   Zn559   2.000   .     S
O551   Zn560   2.000   .     S
O552   Zn560   1.999   .     S
O553   Zn559   1.999   .     S
O554   Zn559   1.977   .     S
O555   Zn560   1.977   .     S
O556   Zn560   1.939   .     S
O557   Zn559   1.939   .     S
C561   O627    1.282   .     A
C561   O632    1.282   .     A
C561   C564    1.419   .     S
C562   C564    1.397   .     A
C562   H600    1.084   .     S
C562   C117    1.369   1_565 S
C563   C572    1.419   .     S
C563   C598    1.397   .     A
C563   C597    1.397   .     A
C564   C596    1.397   .     A
C565   H601    1.081   .     S
C565   N626    1.366   .     A
C565   C647    1.414   .     S
C566   N625    1.366   .     A
C566   H602    1.081   .     S
C567   H603    1.080   .     S
C567   N625    1.366   .     A
C568   N626    1.366   .     A
C568   H604    1.081   .     S
C568   C646    1.415   .     S
C569   O636    1.287   .     A
C569   C571    1.466   .     S
C569   O634    1.296   .     A
C570   O637    1.289   .     A
C570   C573    1.469   .     S
C570   O635    1.296   .     A
C571   C578    1.406   .     A
C571   C576    1.402   .     A
C572   O633    1.282   .     A
C572   O631    1.283   .     A
C573   C579    1.417   .     A
C573   C577    1.388   .     A
C574   H618    1.081   .     S
C574   C576    1.401   .     A
C574   C582    1.413   .     A
C575   C584    1.409   .     A
C575   C577    1.379   .     A
C575   H619    1.079   .     S
C576   H610    1.082   .     S
C577   H599    1.084   .     S
C578   C592    1.500   .     S
C578   C580    1.393   .     A
C579   C591    1.479   .     S
C579   C581    1.431   .     A
C580   C582    1.408   .     A
C580   C585    1.409   .     A
C581   C586    1.442   .     A
C581   C584    1.439   .     A
C582   C1314   1.407   .     S
C583   C586    1.422   .     A
C583   H620    1.073   .     S
C583   C594    1.406   .     A
C584   C1315   1.414   1_554 S
C585   C593    1.401   .     A
C585   C1306   1.408   .     S
C586   C1305   1.408   1_554 S
C587   H608    1.112   .     S
C587   C594    1.515   .     S
C587   C588    1.527   .     S
C587   H609    1.110   .     S
C588   H606    1.111   .     S
C588   H1325   1.110   1_554 S
C589   H614    1.105   .     S
C589   H615    1.113   .     S
C589   C590    1.527   .     S
C589   C595    1.521   .     S
C590   H611    1.111   .     S
C590   H613    1.110   .     S
C590   H612    1.110   .     S
C591   O628    1.398   .     S
C591   O638    1.224   .     D
C592   O630    1.397   .     S
C592   O629    1.222   .     D
C593   C595    1.386   .     A
C593   H621    1.084   .     S
C594   C1302   1.407   1_554 S
C595   C1304   1.414   .     S
C596   H622    1.084   .     S
C596   C118    1.370   1_565 S
C597   H623    1.084   .     S
C598   H624    1.084   .     S
H605   C1308   1.110   .     S
H607   C668    1.110   .     S
H616   O628    1.013   .     S
H617   O630    1.014   .     S
N625   Zn639   2.008   .     S
N626   Zn640   2.008   .     S
O627   Zn639   2.000   .     S
O631   Zn640   2.000   .     S
O632   Zn640   1.999   .     S
O633   Zn639   1.999   .     S
O634   Zn639   1.977   .     S
O635   Zn640   1.977   .     S
O636   Zn640   1.939   .     S
O637   Zn639   1.939   .     S
C641   O707    1.282   .     A
C641   O712    1.282   .     A
C641   C644    1.419   .     S
C642   C644    1.397   .     A
C642   H680    1.084   .     S
C642   C197    1.369   1_565 S
C643   C652    1.419   .     S
C643   C678    1.397   .     A
C643   C677    1.397   .     A
C644   C676    1.397   .     A
C645   H681    1.081   .     S
C645   N706    1.366   .     A
C645   C487    1.414   1_655 S
C646   N705    1.366   .     A
C646   H682    1.081   .     S
C647   H683    1.080   .     S
C647   N705    1.366   .     A
C648   N706    1.366   .     A
C648   H684    1.081   .     S
C648   C486    1.415   1_655 S
C649   O716    1.287   .     A
C649   C651    1.466   .     S
C649   O714    1.296   .     A
C650   O717    1.289   .     A
C650   C653    1.469   .     S
C650   O715    1.296   .     A
C651   C658    1.406   .     A
C651   C656    1.402   .     A
C652   O713    1.282   .     A
C652   O711    1.283   .     A
C653   C659    1.417   .     A
C653   C657    1.388   .     A
C654   H698    1.081   .     S
C654   C656    1.401   .     A
C654   C662    1.413   .     A
C655   C664    1.409   .     A
C655   C657    1.379   .     A
C655   H699    1.079   .     S
C656   H690    1.082   .     S
C657   H679    1.084   .     S
C658   C672    1.500   .     S
C658   C660    1.393   .     A
C659   C671    1.479   .     S
C659   C661    1.431   .     A
C660   C662    1.408   .     A
C660   C665    1.409   .     A
C661   C666    1.442   .     A
C661   C664    1.439   .     A
C662   C1394   1.407   .     S
C663   C666    1.422   .     A
C663   H700    1.073   .     S
C663   C674    1.406   .     A
C664   C1395   1.414   1_554 S
C665   C673    1.401   .     A
C665   C1386   1.408   .     S
C666   C1385   1.408   1_554 S
C667   H688    1.112   .     S
C667   C674    1.515   .     S
C667   C668    1.527   .     S
C667   H689    1.110   .     S
C668   H686    1.111   .     S
C668   H1405   1.110   1_554 S
C669   H694    1.105   .     S
C669   H695    1.113   .     S
C669   C670    1.527   .     S
C669   C675    1.521   .     S
C670   H691    1.111   .     S
C670   H693    1.110   .     S
C670   H692    1.110   .     S
C671   O708    1.398   .     S
C671   O718    1.224   .     D
C672   O710    1.397   .     S
C672   O709    1.222   .     D
C673   C675    1.386   .     A
C673   H701    1.084   .     S
C674   C1382   1.407   1_554 S
C675   C1384   1.414   .     S
C676   H702    1.084   .     S
C676   C198    1.370   1_565 S
C677   H703    1.084   .     S
C678   H704    1.084   .     S
H685   C1388   1.110   .     S
H687   C508    1.110   1_655 S
H696   O708    1.013   .     S
H697   O710    1.014   .     S
N705   Zn719   2.008   .     S
N706   Zn720   2.008   .     S
O707   Zn719   2.000   .     S
O711   Zn720   2.000   .     S
O712   Zn720   1.999   .     S
O713   Zn719   1.999   .     S
O714   Zn719   1.977   .     S
O715   Zn720   1.977   .     S
O716   Zn720   1.939   .     S
O717   Zn719   1.939   .     S
C721   O787    1.282   .     A
C721   O792    1.282   .     A
C721   C724    1.419   .     S
C722   C724    1.397   .     A
C722   H760    1.084   .     S
C722   C997    1.369   .     S
C723   C732    1.419   .     S
C723   C758    1.397   .     A
C723   C757    1.397   .     A
C724   C756    1.397   .     A
C725   H761    1.081   .     S
C725   N786    1.366   .     A
C725   C807    1.414   .     S
C726   N785    1.366   .     A
C726   H762    1.081   .     S
C726   C888    1.415   1_455 S
C727   H763    1.080   .     S
C727   N785    1.366   .     A
C727   C885    1.414   1_455 S
C728   N786    1.366   .     A
C728   H764    1.081   .     S
C728   C806    1.415   .     S
C729   O796    1.287   .     A
C729   C731    1.466   .     S
C729   O794    1.296   .     A
C730   O797    1.289   .     A
C730   C733    1.469   .     S
C730   O795    1.296   .     A
C731   C738    1.406   .     A
C731   C736    1.402   .     A
C732   O793    1.282   .     A
C732   O791    1.283   .     A
C733   C739    1.417   .     A
C733   C737    1.388   .     A
C734   H778    1.081   .     S
C734   C736    1.401   .     A
C734   C742    1.413   .     A
C735   C744    1.409   .     A
C735   C737    1.379   .     A
C735   H779    1.079   .     S
C736   H770    1.082   .     S
C737   H759    1.084   .     S
C738   C752    1.500   .     S
C738   C740    1.393   .     A
C739   C751    1.479   .     S
C739   C741    1.431   .     A
C740   C742    1.408   .     A
C740   C745    1.409   .     A
C741   C746    1.442   .     A
C741   C744    1.439   .     A
C742   C34     1.407   1_556 S
C743   C746    1.422   .     A
C743   H780    1.073   .     S
C743   C754    1.406   .     A
C745   C753    1.401   .     A
C745   C26     1.408   1_556 S
C747   H768    1.112   .     S
C747   C754    1.515   .     S
C747   C748    1.527   .     S
C747   H769    1.110   .     S
C748   H766    1.111   .     S
C748   H927    1.110   1_455 S
C749   H774    1.105   .     S
C749   H775    1.113   .     S
C749   C750    1.527   .     S
C749   C755    1.521   .     S
C750   H771    1.111   .     S
C750   H773    1.110   .     S
C750   H772    1.110   .     S
C751   O788    1.398   .     S
C751   O798    1.224   .     D
C752   O790    1.397   .     S
C752   O789    1.222   .     D
C753   C755    1.386   .     A
C753   H781    1.084   .     S
C755   C24     1.414   1_556 S
C756   H782    1.084   .     S
C756   C998    1.370   .     S
C757   H783    1.084   .     S
C757   C1202   1.369   1_545 S
C758   H784    1.084   .     S
C758   C1236   1.370   1_545 S
H765   C28     1.110   1_556 S
H767   C828    1.110   .     S
H776   O788    1.013   .     S
H777   O790    1.014   .     S
N785   Zn799   2.008   .     S
N786   Zn800   2.008   .     S
O787   Zn799   2.000   .     S
O791   Zn800   2.000   .     S
O792   Zn800   1.999   .     S
O793   Zn799   1.999   .     S
O794   Zn799   1.977   .     S
O795   Zn800   1.977   .     S
O796   Zn800   1.939   .     S
O797   Zn799   1.939   .     S
C801   O867    1.282   .     A
C801   O872    1.282   .     A
C801   C804    1.419   .     S
C802   C804    1.397   .     A
C802   H840    1.084   .     S
C802   C1077   1.369   .     S
C803   C812    1.419   .     S
C803   C838    1.397   .     A
C803   C837    1.397   .     A
C804   C836    1.397   .     A
C805   H841    1.081   .     S
C805   N866    1.366   .     A
C805   C887    1.414   .     S
C806   N865    1.366   .     A
C806   H842    1.081   .     S
C807   H843    1.080   .     S
C807   N865    1.366   .     A
C808   N866    1.366   .     A
C808   H844    1.081   .     S
C808   C886    1.415   .     S
C809   O876    1.287   .     A
C809   C811    1.466   .     S
C809   O874    1.296   .     A
C810   O877    1.289   .     A
C810   C813    1.469   .     S
C810   O875    1.296   .     A
C811   C818    1.406   .     A
C811   C816    1.402   .     A
C812   O873    1.282   .     A
C812   O871    1.283   .     A
C813   C819    1.417   .     A
C813   C817    1.388   .     A
C814   H858    1.081   .     S
C814   C816    1.401   .     A
C814   C822    1.413   .     A
C815   C824    1.409   .     A
C815   C817    1.379   .     A
C815   H859    1.079   .     S
C816   H850    1.082   .     S
C817   H839    1.084   .     S
C818   C832    1.500   .     S
C818   C820    1.393   .     A
C819   C831    1.479   .     S
C819   C821    1.431   .     A
C820   C822    1.408   .     A
C820   C825    1.409   .     A
C821   C826    1.442   .     A
C821   C824    1.439   .     A
C822   C114    1.407   1_556 S
C823   C826    1.422   .     A
C823   H860    1.073   .     S
C823   C834    1.406   .     A
C825   C833    1.401   .     A
C825   C106    1.408   1_556 S
C827   H848    1.112   .     S
C827   C834    1.515   .     S
C827   C828    1.527   .     S
C827   H849    1.110   .     S
C828   H846    1.111   .     S
C829   H854    1.105   .     S
C829   H855    1.113   .     S
C829   C830    1.527   .     S
C829   C835    1.521   .     S
C830   H851    1.111   .     S
C830   H853    1.110   .     S
C830   H852    1.110   .     S
C831   O868    1.398   .     S
C831   O878    1.224   .     D
C832   O870    1.397   .     S
C832   O869    1.222   .     D
C833   C835    1.386   .     A
C833   H861    1.084   .     S
C835   C104    1.414   1_556 S
C836   H862    1.084   .     S
C836   C1078   1.370   .     S
C837   H863    1.084   .     S
C837   C1282   1.369   1_545 S
C838   H864    1.084   .     S
C838   C1316   1.370   1_545 S
H845   C108    1.110   1_556 S
H847   C908    1.110   .     S
H856   O868    1.013   .     S
H857   O870    1.014   .     S
N865   Zn879   2.008   .     S
N866   Zn880   2.008   .     S
O867   Zn879   2.000   .     S
O871   Zn880   2.000   .     S
O872   Zn880   1.999   .     S
O873   Zn879   1.999   .     S
O874   Zn879   1.977   .     S
O875   Zn880   1.977   .     S
O876   Zn880   1.939   .     S
O877   Zn879   1.939   .     S
C881   O947    1.282   .     A
C881   O952    1.282   .     A
C881   C884    1.419   .     S
C882   C884    1.397   .     A
C882   H920    1.084   .     S
C882   C1157   1.369   .     S
C883   C892    1.419   .     S
C883   C918    1.397   .     A
C883   C917    1.397   .     A
C884   C916    1.397   .     A
C885   H921    1.081   .     S
C885   N946    1.366   .     A
C885   C727    1.414   1_655 S
C886   N945    1.366   .     A
C886   H922    1.081   .     S
C887   H923    1.080   .     S
C887   N945    1.366   .     A
C888   N946    1.366   .     A
C888   H924    1.081   .     S
C888   C726    1.415   1_655 S
C889   O956    1.287   .     A
C889   C891    1.466   .     S
C889   O954    1.296   .     A
C890   O957    1.289   .     A
C890   C893    1.469   .     S
C890   O955    1.296   .     A
C891   C898    1.406   .     A
C891   C896    1.402   .     A
C892   O953    1.282   .     A
C892   O951    1.283   .     A
C893   C899    1.417   .     A
C893   C897    1.388   .     A
C894   H938    1.081   .     S
C894   C896    1.401   .     A
C894   C902    1.413   .     A
C895   C904    1.409   .     A
C895   C897    1.379   .     A
C895   H939    1.079   .     S
C896   H930    1.082   .     S
C897   H919    1.084   .     S
C898   C912    1.500   .     S
C898   C900    1.393   .     A
C899   C911    1.479   .     S
C899   C901    1.431   .     A
C900   C902    1.408   .     A
C900   C905    1.409   .     A
C901   C906    1.442   .     A
C901   C904    1.439   .     A
C902   C194    1.407   1_556 S
C903   C906    1.422   .     A
C903   H940    1.073   .     S
C903   C914    1.406   .     A
C905   C913    1.401   .     A
C905   C186    1.408   1_556 S
C907   H928    1.112   .     S
C907   C914    1.515   .     S
C907   C908    1.527   .     S
C907   H929    1.110   .     S
C908   H926    1.111   .     S
C909   H934    1.105   .     S
C909   H935    1.113   .     S
C909   C910    1.527   .     S
C909   C915    1.521   .     S
C910   H931    1.111   .     S
C910   H933    1.110   .     S
C910   H932    1.110   .     S
C911   O948    1.398   .     S
C911   O958    1.224   .     D
C912   O950    1.397   .     S
C912   O949    1.222   .     D
C913   C915    1.386   .     A
C913   H941    1.084   .     S
C915   C184    1.414   1_556 S
C916   H942    1.084   .     S
C916   C1158   1.370   .     S
C917   H943    1.084   .     S
C917   C1362   1.369   1_545 S
C918   H944    1.084   .     S
C918   C1396   1.370   1_545 S
H925   C188    1.110   1_556 S
H927   C748    1.110   1_655 S
H936   O948    1.013   .     S
H937   O950    1.014   .     S
N945   Zn959   2.008   .     S
N946   Zn960   2.008   .     S
O947   Zn959   2.000   .     S
O951   Zn960   2.000   .     S
O952   Zn960   1.999   .     S
O953   Zn959   1.999   .     S
O954   Zn959   1.977   .     S
O955   Zn960   1.977   .     S
O956   Zn960   1.939   .     S
O957   Zn959   1.939   .     S
C961   O1027   1.282   .     A
C961   O1032   1.282   .     A
C961   C964    1.419   .     S
C962   C964    1.397   .     A
C962   H1000   1.084   .     S
C962   C1237   1.369   .     S
C963   C972    1.419   .     S
C963   C998    1.397   .     A
C963   C997    1.397   .     A
C964   C996    1.397   .     A
C965   H1001   1.081   .     S
C965   N1026   1.366   .     A
C965   C1047   1.414   .     S
C966   N1025   1.366   .     A
C966   H1002   1.081   .     S
C966   C1128   1.415   1_455 S
C967   H1003   1.080   .     S
C967   N1025   1.366   .     A
C967   C1125   1.414   1_455 S
C968   N1026   1.366   .     A
C968   H1004   1.081   .     S
C968   C1046   1.415   .     S
C969   O1036   1.287   .     A
C969   C971    1.466   .     S
C969   O1034   1.296   .     A
C970   O1037   1.289   .     A
C970   C973    1.469   .     S
C970   O1035   1.296   .     A
C971   C978    1.406   .     A
C971   C976    1.402   .     A
C972   O1033   1.282   .     A
C972   O1031   1.283   .     A
C973   C979    1.417   .     A
C973   C977    1.388   .     A
C974   H1018   1.081   .     S
C974   C976    1.401   .     A
C974   C982    1.413   .     A
C975   C984    1.409   .     A
C975   C977    1.379   .     A
C975   H1019   1.079   .     S
C976   H1010   1.082   .     S
C977   H999    1.084   .     S
C978   C992    1.500   .     S
C978   C980    1.393   .     A
C979   C991    1.479   .     S
C979   C981    1.431   .     A
C980   C982    1.408   .     A
C980   C985    1.409   .     A
C981   C986    1.442   .     A
C981   C984    1.439   .     A
C982   C274    1.407   1_556 S
C983   C986    1.422   .     A
C983   H1020   1.073   .     S
C983   C994    1.406   .     A
C985   C993    1.401   .     A
C985   C266    1.408   1_556 S
C987   H1008   1.112   .     S
C987   C994    1.515   .     S
C987   C988    1.527   .     S
C987   H1009   1.110   .     S
C988   H1006   1.111   .     S
C988   H1167   1.110   1_455 S
C989   H1014   1.105   .     S
C989   H1015   1.113   .     S
C989   C990    1.527   .     S
C989   C995    1.521   .     S
C990   H1011   1.111   .     S
C990   H1013   1.110   .     S
C990   H1012   1.110   .     S
C991   O1028   1.398   .     S
C991   O1038   1.224   .     D
C992   O1030   1.397   .     S
C992   O1029   1.222   .     D
C993   C995    1.386   .     A
C993   H1021   1.084   .     S
C995   C264    1.414   1_556 S
C996   H1022   1.084   .     S
C996   C1238   1.370   .     S
C997   H1023   1.084   .     S
C998   H1024   1.084   .     S
H1005  C268    1.110   1_556 S
H1007  C1068   1.110   .     S
H1016  O1028   1.013   .     S
H1017  O1030   1.014   .     S
N1025  Zn1039  2.008   .     S
N1026  Zn1040  2.008   .     S
O1027  Zn1039  2.000   .     S
O1031  Zn1040  2.000   .     S
O1032  Zn1040  1.999   .     S
O1033  Zn1039  1.999   .     S
O1034  Zn1039  1.977   .     S
O1035  Zn1040  1.977   .     S
O1036  Zn1040  1.939   .     S
O1037  Zn1039  1.939   .     S
C1041  O1107   1.282   .     A
C1041  O1112   1.282   .     A
C1041  C1044   1.419   .     S
C1042  C1044   1.397   .     A
C1042  H1080   1.084   .     S
C1042  C1317   1.369   .     S
C1043  C1052   1.419   .     S
C1043  C1078   1.397   .     A
C1043  C1077   1.397   .     A
C1044  C1076   1.397   .     A
C1045  H1081   1.081   .     S
C1045  N1106   1.366   .     A
C1045  C1127   1.414   .     S
C1046  N1105   1.366   .     A
C1046  H1082   1.081   .     S
C1047  H1083   1.080   .     S
C1047  N1105   1.366   .     A
C1048  N1106   1.366   .     A
C1048  H1084   1.081   .     S
C1048  C1126   1.415   .     S
C1049  O1116   1.287   .     A
C1049  C1051   1.466   .     S
C1049  O1114   1.296   .     A
C1050  O1117   1.289   .     A
C1050  C1053   1.469   .     S
C1050  O1115   1.296   .     A
C1051  C1058   1.406   .     A
C1051  C1056   1.402   .     A
C1052  O1113   1.282   .     A
C1052  O1111   1.283   .     A
C1053  C1059   1.417   .     A
C1053  C1057   1.388   .     A
C1054  H1098   1.081   .     S
C1054  C1056   1.401   .     A
C1054  C1062   1.413   .     A
C1055  C1064   1.409   .     A
C1055  C1057   1.379   .     A
C1055  H1099   1.079   .     S
C1056  H1090   1.082   .     S
C1057  H1079   1.084   .     S
C1058  C1072   1.500   .     S
C1058  C1060   1.393   .     A
C1059  C1071   1.479   .     S
C1059  C1061   1.431   .     A
C1060  C1062   1.408   .     A
C1060  C1065   1.409   .     A
C1061  C1066   1.442   .     A
C1061  C1064   1.439   .     A
C1062  C354    1.407   1_556 S
C1063  C1066   1.422   .     A
C1063  H1100   1.073   .     S
C1063  C1074   1.406   .     A
C1065  C1073   1.401   .     A
C1065  C346    1.408   1_556 S
C1067  H1088   1.112   .     S
C1067  C1074   1.515   .     S
C1067  C1068   1.527   .     S
C1067  H1089   1.110   .     S
C1068  H1086   1.111   .     S
C1069  H1094   1.105   .     S
C1069  H1095   1.113   .     S
C1069  C1070   1.527   .     S
C1069  C1075   1.521   .     S
C1070  H1091   1.111   .     S
C1070  H1093   1.110   .     S
C1070  H1092   1.110   .     S
C1071  O1108   1.398   .     S
C1071  O1118   1.224   .     D
C1072  O1110   1.397   .     S
C1072  O1109   1.222   .     D
C1073  C1075   1.386   .     A
C1073  H1101   1.084   .     S
C1075  C344    1.414   1_556 S
C1076  H1102   1.084   .     S
C1076  C1318   1.370   .     S
C1077  H1103   1.084   .     S
C1078  H1104   1.084   .     S
H1085  C348    1.110   1_556 S
H1087  C1148   1.110   .     S
H1096  O1108   1.013   .     S
H1097  O1110   1.014   .     S
N1105  Zn1119  2.008   .     S
N1106  Zn1120  2.008   .     S
O1107  Zn1119  2.000   .     S
O1111  Zn1120  2.000   .     S
O1112  Zn1120  1.999   .     S
O1113  Zn1119  1.999   .     S
O1114  Zn1119  1.977   .     S
O1115  Zn1120  1.977   .     S
O1116  Zn1120  1.939   .     S
O1117  Zn1119  1.939   .     S
C1121  O1187   1.282   .     A
C1121  O1192   1.282   .     A
C1121  C1124   1.419   .     S
C1122  C1124   1.397   .     A
C1122  H1160   1.084   .     S
C1122  C1397   1.369   .     S
C1123  C1132   1.419   .     S
C1123  C1158   1.397   .     A
C1123  C1157   1.397   .     A
C1124  C1156   1.397   .     A
C1125  H1161   1.081   .     S
C1125  N1186   1.366   .     A
C1125  C967    1.414   1_655 S
C1126  N1185   1.366   .     A
C1126  H1162   1.081   .     S
C1127  H1163   1.080   .     S
C1127  N1185   1.366   .     A
C1128  N1186   1.366   .     A
C1128  H1164   1.081   .     S
C1128  C966    1.415   1_655 S
C1129  O1196   1.287   .     A
C1129  C1131   1.466   .     S
C1129  O1194   1.296   .     A
C1130  O1197   1.289   .     A
C1130  C1133   1.469   .     S
C1130  O1195   1.296   .     A
C1131  C1138   1.406   .     A
C1131  C1136   1.402   .     A
C1132  O1193   1.282   .     A
C1132  O1191   1.283   .     A
C1133  C1139   1.417   .     A
C1133  C1137   1.388   .     A
C1134  H1178   1.081   .     S
C1134  C1136   1.401   .     A
C1134  C1142   1.413   .     A
C1135  C1144   1.409   .     A
C1135  C1137   1.379   .     A
C1135  H1179   1.079   .     S
C1136  H1170   1.082   .     S
C1137  H1159   1.084   .     S
C1138  C1152   1.500   .     S
C1138  C1140   1.393   .     A
C1139  C1151   1.479   .     S
C1139  C1141   1.431   .     A
C1140  C1142   1.408   .     A
C1140  C1145   1.409   .     A
C1141  C1146   1.442   .     A
C1141  C1144   1.439   .     A
C1142  C434    1.407   1_556 S
C1143  C1146   1.422   .     A
C1143  H1180   1.073   .     S
C1143  C1154   1.406   .     A
C1145  C1153   1.401   .     A
C1145  C426    1.408   1_556 S
C1147  H1168   1.112   .     S
C1147  C1154   1.515   .     S
C1147  C1148   1.527   .     S
C1147  H1169   1.110   .     S
C1148  H1166   1.111   .     S
C1149  H1174   1.105   .     S
C1149  H1175   1.113   .     S
C1149  C1150   1.527   .     S
C1149  C1155   1.521   .     S
C1150  H1171   1.111   .     S
C1150  H1173   1.110   .     S
C1150  H1172   1.110   .     S
C1151  O1188   1.398   .     S
C1151  O1198   1.224   .     D
C1152  O1190   1.397   .     S
C1152  O1189   1.222   .     D
C1153  C1155   1.386   .     A
C1153  H1181   1.084   .     S
C1155  C424    1.414   1_556 S
C1156  H1182   1.084   .     S
C1156  C1398   1.370   .     S
C1157  H1183   1.084   .     S
C1158  H1184   1.084   .     S
H1165  C428    1.110   1_556 S
H1167  C988    1.110   1_655 S
H1176  O1188   1.013   .     S
H1177  O1190   1.014   .     S
N1185  Zn1199  2.008   .     S
N1186  Zn1200  2.008   .     S
O1187  Zn1199  2.000   .     S
O1191  Zn1200  2.000   .     S
O1192  Zn1200  1.999   .     S
O1193  Zn1199  1.999   .     S
O1194  Zn1199  1.977   .     S
O1195  Zn1200  1.977   .     S
O1196  Zn1200  1.939   .     S
O1197  Zn1199  1.939   .     S
C1201  O1267   1.282   .     A
C1201  O1272   1.282   .     A
C1201  C1204   1.419   .     S
C1202  C1204   1.397   .     A
C1202  H1240   1.084   .     S
C1202  C757    1.369   1_565 S
C1203  C1212   1.419   .     S
C1203  C1238   1.397   .     A
C1203  C1237   1.397   .     A
C1204  C1236   1.397   .     A
C1205  H1241   1.081   .     S
C1205  N1266   1.366   .     A
C1205  C1287   1.414   .     S
C1206  N1265   1.366   .     A
C1206  H1242   1.081   .     S
C1206  C1368   1.415   1_455 S
C1207  H1243   1.080   .     S
C1207  N1265   1.366   .     A
C1207  C1365   1.414   1_455 S
C1208  N1266   1.366   .     A
C1208  H1244   1.081   .     S
C1208  C1286   1.415   .     S
C1209  O1276   1.287   .     A
C1209  C1211   1.466   .     S
C1209  O1274   1.296   .     A
C1210  O1277   1.289   .     A
C1210  C1213   1.469   .     S
C1210  O1275   1.296   .     A
C1211  C1218   1.406   .     A
C1211  C1216   1.402   .     A
C1212  O1273   1.282   .     A
C1212  O1271   1.283   .     A
C1213  C1219   1.417   .     A
C1213  C1217   1.388   .     A
C1214  H1258   1.081   .     S
C1214  C1216   1.401   .     A
C1214  C1222   1.413   .     A
C1215  C1224   1.409   .     A
C1215  C1217   1.379   .     A
C1215  H1259   1.079   .     S
C1216  H1250   1.082   .     S
C1217  H1239   1.084   .     S
C1218  C1232   1.500   .     S
C1218  C1220   1.393   .     A
C1219  C1231   1.479   .     S
C1219  C1221   1.431   .     A
C1220  C1222   1.408   .     A
C1220  C1225   1.409   .     A
C1221  C1226   1.442   .     A
C1221  C1224   1.439   .     A
C1222  C514    1.407   1_556 S
C1223  C1226   1.422   .     A
C1223  H1260   1.073   .     S
C1223  C1234   1.406   .     A
C1225  C1233   1.401   .     A
C1225  C506    1.408   1_556 S
C1227  H1248   1.112   .     S
C1227  C1234   1.515   .     S
C1227  C1228   1.527   .     S
C1227  H1249   1.110   .     S
C1228  H1246   1.111   .     S
C1228  H1407   1.110   1_455 S
C1229  H1254   1.105   .     S
C1229  H1255   1.113   .     S
C1229  C1230   1.527   .     S
C1229  C1235   1.521   .     S
C1230  H1251   1.111   .     S
C1230  H1253   1.110   .     S
C1230  H1252   1.110   .     S
C1231  O1268   1.398   .     S
C1231  O1278   1.224   .     D
C1232  O1270   1.397   .     S
C1232  O1269   1.222   .     D
C1233  C1235   1.386   .     A
C1233  H1261   1.084   .     S
C1235  C504    1.414   1_556 S
C1236  H1262   1.084   .     S
C1236  C758    1.370   1_565 S
C1237  H1263   1.084   .     S
C1238  H1264   1.084   .     S
H1245  C508    1.110   1_556 S
H1247  C1308   1.110   .     S
H1256  O1268   1.013   .     S
H1257  O1270   1.014   .     S
N1265  Zn1279  2.008   .     S
N1266  Zn1280  2.008   .     S
O1267  Zn1279  2.000   .     S
O1271  Zn1280  2.000   .     S
O1272  Zn1280  1.999   .     S
O1273  Zn1279  1.999   .     S
O1274  Zn1279  1.977   .     S
O1275  Zn1280  1.977   .     S
O1276  Zn1280  1.939   .     S
O1277  Zn1279  1.939   .     S
C1281  O1347   1.282   .     A
C1281  O1352   1.282   .     A
C1281  C1284   1.419   .     S
C1282  C1284   1.397   .     A
C1282  H1320   1.084   .     S
C1282  C837    1.369   1_565 S
C1283  C1292   1.419   .     S
C1283  C1318   1.397   .     A
C1283  C1317   1.397   .     A
C1284  C1316   1.397   .     A
C1285  H1321   1.081   .     S
C1285  N1346   1.366   .     A
C1285  C1367   1.414   .     S
C1286  N1345   1.366   .     A
C1286  H1322   1.081   .     S
C1287  H1323   1.080   .     S
C1287  N1345   1.366   .     A
C1288  N1346   1.366   .     A
C1288  H1324   1.081   .     S
C1288  C1366   1.415   .     S
C1289  O1356   1.287   .     A
C1289  C1291   1.466   .     S
C1289  O1354   1.296   .     A
C1290  O1357   1.289   .     A
C1290  C1293   1.469   .     S
C1290  O1355   1.296   .     A
C1291  C1298   1.406   .     A
C1291  C1296   1.402   .     A
C1292  O1353   1.282   .     A
C1292  O1351   1.283   .     A
C1293  C1299   1.417   .     A
C1293  C1297   1.388   .     A
C1294  H1338   1.081   .     S
C1294  C1296   1.401   .     A
C1294  C1302   1.413   .     A
C1295  C1304   1.409   .     A
C1295  C1297   1.379   .     A
C1295  H1339   1.079   .     S
C1296  H1330   1.082   .     S
C1297  H1319   1.084   .     S
C1298  C1312   1.500   .     S
C1298  C1300   1.393   .     A
C1299  C1311   1.479   .     S
C1299  C1301   1.431   .     A
C1300  C1302   1.408   .     A
C1300  C1305   1.409   .     A
C1301  C1306   1.442   .     A
C1301  C1304   1.439   .     A
C1302  C594    1.407   1_556 S
C1303  C1306   1.422   .     A
C1303  H1340   1.073   .     S
C1303  C1314   1.406   .     A
C1305  C1313   1.401   .     A
C1305  C586    1.408   1_556 S
C1307  H1328   1.112   .     S
C1307  C1314   1.515   .     S
C1307  C1308   1.527   .     S
C1307  H1329   1.110   .     S
C1308  H1326   1.111   .     S
C1309  H1334   1.105   .     S
C1309  H1335   1.113   .     S
C1309  C1310   1.527   .     S
C1309  C1315   1.521   .     S
C1310  H1331   1.111   .     S
C1310  H1333   1.110   .     S
C1310  H1332   1.110   .     S
C1311  O1348   1.398   .     S
C1311  O1358   1.224   .     D
C1312  O1350   1.397   .     S
C1312  O1349   1.222   .     D
C1313  C1315   1.386   .     A
C1313  H1341   1.084   .     S
C1315  C584    1.414   1_556 S
C1316  H1342   1.084   .     S
C1316  C838    1.370   1_565 S
C1317  H1343   1.084   .     S
C1318  H1344   1.084   .     S
H1325  C588    1.110   1_556 S
H1327  C1388   1.110   .     S
H1336  O1348   1.013   .     S
H1337  O1350   1.014   .     S
N1345  Zn1359  2.008   .     S
N1346  Zn1360  2.008   .     S
O1347  Zn1359  2.000   .     S
O1351  Zn1360  2.000   .     S
O1352  Zn1360  1.999   .     S
O1353  Zn1359  1.999   .     S
O1354  Zn1359  1.977   .     S
O1355  Zn1360  1.977   .     S
O1356  Zn1360  1.939   .     S
O1357  Zn1359  1.939   .     S
C1361  O1427   1.282   .     A
C1361  O1432   1.282   .     A
C1361  C1364   1.419   .     S
C1362  C1364   1.397   .     A
C1362  H1400   1.084   .     S
C1362  C917    1.369   1_565 S
C1363  C1372   1.419   .     S
C1363  C1398   1.397   .     A
C1363  C1397   1.397   .     A
C1364  C1396   1.397   .     A
C1365  H1401   1.081   .     S
C1365  N1426   1.366   .     A
C1365  C1207   1.414   1_655 S
C1366  N1425   1.366   .     A
C1366  H1402   1.081   .     S
C1367  H1403   1.080   .     S
C1367  N1425   1.366   .     A
C1368  N1426   1.366   .     A
C1368  H1404   1.081   .     S
C1368  C1206   1.415   1_655 S
C1369  O1436   1.287   .     A
C1369  C1371   1.466   .     S
C1369  O1434   1.296   .     A
C1370  O1437   1.289   .     A
C1370  C1373   1.469   .     S
C1370  O1435   1.296   .     A
C1371  C1378   1.406   .     A
C1371  C1376   1.402   .     A
C1372  O1433   1.282   .     A
C1372  O1431   1.283   .     A
C1373  C1379   1.417   .     A
C1373  C1377   1.388   .     A
C1374  H1418   1.081   .     S
C1374  C1376   1.401   .     A
C1374  C1382   1.413   .     A
C1375  C1384   1.409   .     A
C1375  C1377   1.379   .     A
C1375  H1419   1.079   .     S
C1376  H1410   1.082   .     S
C1377  H1399   1.084   .     S
C1378  C1392   1.500   .     S
C1378  C1380   1.393   .     A
C1379  C1391   1.479   .     S
C1379  C1381   1.431   .     A
C1380  C1382   1.408   .     A
C1380  C1385   1.409   .     A
C1381  C1386   1.442   .     A
C1381  C1384   1.439   .     A
C1382  C674    1.407   1_556 S
C1383  C1386   1.422   .     A
C1383  H1420   1.073   .     S
C1383  C1394   1.406   .     A
C1385  C1393   1.401   .     A
C1385  C666    1.408   1_556 S
C1387  H1408   1.112   .     S
C1387  C1394   1.515   .     S
C1387  C1388   1.527   .     S
C1387  H1409   1.110   .     S
C1388  H1406   1.111   .     S
C1389  H1414   1.105   .     S
C1389  H1415   1.113   .     S
C1389  C1390   1.527   .     S
C1389  C1395   1.521   .     S
C1390  H1411   1.111   .     S
C1390  H1413   1.110   .     S
C1390  H1412   1.110   .     S
C1391  O1428   1.398   .     S
C1391  O1438   1.224   .     D
C1392  O1430   1.397   .     S
C1392  O1429   1.222   .     D
C1393  C1395   1.386   .     A
C1393  H1421   1.084   .     S
C1395  C664    1.414   1_556 S
C1396  H1422   1.084   .     S
C1396  C918    1.370   1_565 S
C1397  H1423   1.084   .     S
C1398  H1424   1.084   .     S
H1405  C668    1.110   1_556 S
H1407  C1228   1.110   1_655 S
H1416  O1428   1.013   .     S
H1417  O1430   1.014   .     S
N1425  Zn1439  2.008   .     S
N1426  Zn1440  2.008   .     S
O1427  Zn1439  2.000   .     S
O1431  Zn1440  2.000   .     S
O1432  Zn1440  1.999   .     S
O1433  Zn1439  1.999   .     S
O1434  Zn1439  1.977   .     S
O1435  Zn1440  1.977   .     S
O1436  Zn1440  1.939   .     S
O1437  Zn1439  1.939   .     S
