data_str_m3_o1_o17_pcu_sym.71
_audit_creation_date              2020-01-03
_audit_creation_method            'Materials Studio'
_symmetry_space_group_name_H-M    'P1'
_symmetry_Int_Tables_number       1
_symmetry_cell_setting            triclinic
loop_
_symmetry_equiv_pos_as_xyz
  x,y,z
_cell_length_a                    32.1744
_cell_length_b                    29.6929
_cell_length_c                    29.8538
_cell_angle_alpha                 90.0870
_cell_angle_beta                  90.7624
_cell_angle_gamma                 90.0556
loop_
_atom_site_label
_atom_site_type_symbol
_atom_site_fract_x
_atom_site_fract_y
_atom_site_fract_z
_atom_site_U_iso_or_equiv
_atom_site_adp_type
_atom_site_occupancy
C1     C     0.08668   0.16665   0.25008   0.00000  Uiso   1.00
C2     C     0.04249   0.16665   0.25014   0.00000  Uiso   1.00
C3     C     0.19285   0.02411   0.27791   0.00000  Uiso   1.00
C4     C     0.14048   0.30922   0.22209   0.00000  Uiso   1.00
C5     C     0.14047   0.02393   0.22211   0.00000  Uiso   1.00
C6     C     0.19286   0.30940   0.27789   0.00000  Uiso   1.00
C7     C     0.16626   0.16665   0.16369   0.00000  Uiso   1.00
C8     C     0.16708   0.16668   0.33631   0.00000  Uiso   1.00
C9     C     0.20605   0.16831   0.40730   0.00000  Uiso   1.00
C10    C     0.12729   0.16502   0.09270   0.00000  Uiso   1.00
C11    C     0.16813   0.16665   0.38394   0.00000  Uiso   1.00
C12    C     0.24665   0.16668   0.24992   0.00000  Uiso   1.00
C13    C     0.16520   0.16668   0.11606   0.00000  Uiso   1.00
C14    C     0.13034   0.16462   0.40549   0.00000  Uiso   1.00
C15    C     0.20300   0.16872   0.09451   0.00000  Uiso   1.00
C16    C     0.12907   0.16441   0.45196   0.00000  Uiso   1.00
C17    C     0.20427   0.16892   0.04804   0.00000  Uiso   1.00
C18    C     0.16701   0.16662   0.47655   0.00000  Uiso   1.00
C19    C     0.16632   0.16672   0.02345   0.00000  Uiso   1.00
C20    C     0.20566   0.16864   0.45421   0.00000  Uiso   1.00
C21    C     0.12767   0.16469   0.04579   0.00000  Uiso   1.00
C22    C     0.09085   0.16210   0.47435   0.00000  Uiso   1.00
C23    C     0.09045   0.16230   0.02080   0.00000  Uiso   1.00
C24    C     0.24248   0.17124   0.02565   0.00000  Uiso   1.00
C25    C     0.24478   0.16912   0.38282   0.00000  Uiso   1.00
C26    C     0.08855   0.16421   0.11718   0.00000  Uiso   1.00
C27    C     0.05144   0.15920   0.45064   0.00000  Uiso   1.00
C28    C     0.28190   0.17413   0.04936   0.00000  Uiso   1.00
C29    C     0.22059   0.04848   0.30759   0.00000  Uiso   1.00
C30    C     0.11274   0.28485   0.19241   0.00000  Uiso   1.00
C31    C     0.11261   0.04807   0.19253   0.00000  Uiso   1.00
C32    C     0.22072   0.28527   0.30747   0.00000  Uiso   1.00
C33    C     0.24288   0.17103   0.47920   0.00000  Uiso   1.00
C34    C     0.02125   0.12559   0.25024   0.00000  Uiso   1.00
C35    C     0.31209   0.20774   0.24976   0.00000  Uiso   1.00
C36    C     0.31201   0.12560   0.25006   0.00000  Uiso   1.00
C37    C     0.02132   0.20773   0.24994   0.00000  Uiso   1.00
C38    C     0.29084   0.16668   0.24986   0.00000  Uiso   1.00
H39    H     0.10199   0.16319   0.38545   0.00000  Uiso   1.00
H40    H     0.23134   0.17014   0.11455   0.00000  Uiso   1.00
H41    H     0.06071   0.16041   0.03726   0.00000  Uiso   1.00
H42    H     0.27262   0.17293   0.46274   0.00000  Uiso   1.00
H43    H     0.03733   0.09355   0.25042   0.00000  Uiso   1.00
H44    H     0.29600   0.23978   0.24958   0.00000  Uiso   1.00
H45    H     0.29587   0.09357   0.25012   0.00000  Uiso   1.00
H46    H     0.03746   0.23977   0.24988   0.00000  Uiso   1.00
N47    N     0.16667   0.28573   0.25000   0.00000  Uiso   1.00
N48    N     0.24326   0.26633   0.33135   0.00000  Uiso   1.00
N49    N     0.16667   0.04760   0.25000   0.00000  Uiso   1.00
N50    N     0.27562   0.16969   0.36331   0.00000  Uiso   1.00
N51    N     0.05772   0.16364   0.13669   0.00000  Uiso   1.00
N52    N     0.01994   0.15683   0.43163   0.00000  Uiso   1.00
N53    N     0.31340   0.17650   0.06837   0.00000  Uiso   1.00
N54    N     0.24297   0.06768   0.33154   0.00000  Uiso   1.00
N55    N     0.09036   0.26565   0.16846   0.00000  Uiso   1.00
N56    N     0.09007   0.06700   0.16865   0.00000  Uiso   1.00
O57    O     0.10559   0.20487   0.24999   0.00000  Uiso   1.00
O58    O     0.22774   0.12846   0.25001   0.00000  Uiso   1.00
O59    O     0.22774   0.20487   0.25000   0.00000  Uiso   1.00
O60    O     0.10559   0.12846   0.24999   0.00000  Uiso   1.00
O61    O     0.16666   0.20489   0.18392   0.00000  Uiso   1.00
O62    O     0.16667   0.12844   0.31607   0.00000  Uiso   1.00
O63    O     0.16667   0.20489   0.31607   0.00000  Uiso   1.00
O64    O     0.16666   0.12844   0.18393   0.00000  Uiso   1.00
Zn65   Zn    0.16667   0.21771   0.25000   0.00000  Uiso   1.00
Zn66   Zn    0.16667   0.11563   0.25000   0.00000  Uiso   1.00
C67    C     0.42001   0.16665   0.25008   0.00000  Uiso   1.00
C68    C     0.37583   0.16665   0.25014   0.00000  Uiso   1.00
C69    C     0.52618   0.02411   0.27791   0.00000  Uiso   1.00
C70    C     0.47382   0.30922   0.22209   0.00000  Uiso   1.00
C71    C     0.47381   0.02393   0.22211   0.00000  Uiso   1.00
C72    C     0.52619   0.30940   0.27789   0.00000  Uiso   1.00
C73    C     0.49959   0.16665   0.16369   0.00000  Uiso   1.00
C74    C     0.50041   0.16668   0.33631   0.00000  Uiso   1.00
C75    C     0.53938   0.16831   0.40730   0.00000  Uiso   1.00
C76    C     0.46062   0.16502   0.09270   0.00000  Uiso   1.00
C77    C     0.50147   0.16665   0.38394   0.00000  Uiso   1.00
C78    C     0.57999   0.16668   0.24992   0.00000  Uiso   1.00
C79    C     0.49853   0.16668   0.11606   0.00000  Uiso   1.00
C80    C     0.46367   0.16462   0.40549   0.00000  Uiso   1.00
C81    C     0.53633   0.16872   0.09451   0.00000  Uiso   1.00
C82    C     0.46240   0.16441   0.45196   0.00000  Uiso   1.00
C83    C     0.53760   0.16892   0.04804   0.00000  Uiso   1.00
C84    C     0.50035   0.16662   0.47655   0.00000  Uiso   1.00
C85    C     0.49965   0.16672   0.02345   0.00000  Uiso   1.00
C86    C     0.53899   0.16864   0.45421   0.00000  Uiso   1.00
C87    C     0.46101   0.16469   0.04579   0.00000  Uiso   1.00
C88    C     0.42419   0.16210   0.47435   0.00000  Uiso   1.00
C89    C     0.42379   0.16230   0.02080   0.00000  Uiso   1.00
C90    C     0.57581   0.17124   0.02565   0.00000  Uiso   1.00
C91    C     0.57812   0.16912   0.38282   0.00000  Uiso   1.00
C92    C     0.42188   0.16421   0.11718   0.00000  Uiso   1.00
C93    C     0.38477   0.15920   0.45064   0.00000  Uiso   1.00
C94    C     0.61523   0.17413   0.04936   0.00000  Uiso   1.00
C95    C     0.55392   0.04848   0.30759   0.00000  Uiso   1.00
C96    C     0.44608   0.28485   0.19241   0.00000  Uiso   1.00
C97    C     0.44595   0.04807   0.19253   0.00000  Uiso   1.00
C98    C     0.55405   0.28527   0.30747   0.00000  Uiso   1.00
C99    C     0.57621   0.17103   0.47920   0.00000  Uiso   1.00
C100   C     0.35458   0.12559   0.25024   0.00000  Uiso   1.00
C101   C     0.64542   0.20774   0.24976   0.00000  Uiso   1.00
C102   C     0.64535   0.12560   0.25006   0.00000  Uiso   1.00
C103   C     0.35465   0.20773   0.24994   0.00000  Uiso   1.00
C104   C     0.62417   0.16668   0.24986   0.00000  Uiso   1.00
H105   H     0.43532   0.16319   0.38545   0.00000  Uiso   1.00
H106   H     0.56467   0.17014   0.11455   0.00000  Uiso   1.00
H107   H     0.39404   0.16041   0.03726   0.00000  Uiso   1.00
H108   H     0.60596   0.17293   0.46274   0.00000  Uiso   1.00
H109   H     0.37067   0.09355   0.25042   0.00000  Uiso   1.00
H110   H     0.62933   0.23978   0.24958   0.00000  Uiso   1.00
H111   H     0.62921   0.09357   0.25012   0.00000  Uiso   1.00
H112   H     0.37079   0.23977   0.24988   0.00000  Uiso   1.00
N113   N     0.50000   0.28573   0.25000   0.00000  Uiso   1.00
N114   N     0.57659   0.26633   0.33135   0.00000  Uiso   1.00
N115   N     0.50000   0.04760   0.25000   0.00000  Uiso   1.00
N116   N     0.60895   0.16969   0.36331   0.00000  Uiso   1.00
N117   N     0.39105   0.16364   0.13669   0.00000  Uiso   1.00
N118   N     0.35327   0.15683   0.43163   0.00000  Uiso   1.00
N119   N     0.64673   0.17650   0.06837   0.00000  Uiso   1.00
N120   N     0.57631   0.06768   0.33154   0.00000  Uiso   1.00
N121   N     0.42369   0.26565   0.16846   0.00000  Uiso   1.00
N122   N     0.42341   0.06700   0.16865   0.00000  Uiso   1.00
O123   O     0.43892   0.20487   0.24999   0.00000  Uiso   1.00
O124   O     0.56108   0.12846   0.25001   0.00000  Uiso   1.00
O125   O     0.56108   0.20487   0.25000   0.00000  Uiso   1.00
O126   O     0.43892   0.12846   0.24999   0.00000  Uiso   1.00
O127   O     0.49999   0.20489   0.18392   0.00000  Uiso   1.00
O128   O     0.50001   0.12844   0.31607   0.00000  Uiso   1.00
O129   O     0.50001   0.20489   0.31607   0.00000  Uiso   1.00
O130   O     0.49999   0.12844   0.18393   0.00000  Uiso   1.00
Zn131  Zn    0.50000   0.21771   0.25000   0.00000  Uiso   1.00
Zn132  Zn    0.50000   0.11563   0.25000   0.00000  Uiso   1.00
C133   C     0.75334   0.16665   0.25008   0.00000  Uiso   1.00
C134   C     0.70916   0.16665   0.25014   0.00000  Uiso   1.00
C135   C     0.85951   0.02411   0.27791   0.00000  Uiso   1.00
C136   C     0.80715   0.30922   0.22209   0.00000  Uiso   1.00
C137   C     0.80714   0.02393   0.22211   0.00000  Uiso   1.00
C138   C     0.85953   0.30940   0.27789   0.00000  Uiso   1.00
C139   C     0.83292   0.16665   0.16369   0.00000  Uiso   1.00
C140   C     0.83374   0.16668   0.33631   0.00000  Uiso   1.00
C141   C     0.87271   0.16831   0.40730   0.00000  Uiso   1.00
C142   C     0.79395   0.16502   0.09270   0.00000  Uiso   1.00
C143   C     0.83480   0.16665   0.38394   0.00000  Uiso   1.00
C144   C     0.91332   0.16668   0.24992   0.00000  Uiso   1.00
C145   C     0.83187   0.16668   0.11606   0.00000  Uiso   1.00
C146   C     0.79700   0.16462   0.40549   0.00000  Uiso   1.00
C147   C     0.86966   0.16872   0.09451   0.00000  Uiso   1.00
C148   C     0.79573   0.16441   0.45196   0.00000  Uiso   1.00
C149   C     0.87093   0.16892   0.04804   0.00000  Uiso   1.00
C150   C     0.83368   0.16662   0.47655   0.00000  Uiso   1.00
C151   C     0.83299   0.16672   0.02345   0.00000  Uiso   1.00
C152   C     0.87233   0.16864   0.45421   0.00000  Uiso   1.00
C153   C     0.79434   0.16469   0.04579   0.00000  Uiso   1.00
C154   C     0.75752   0.16210   0.47435   0.00000  Uiso   1.00
C155   C     0.75712   0.16230   0.02080   0.00000  Uiso   1.00
C156   C     0.90915   0.17124   0.02565   0.00000  Uiso   1.00
C157   C     0.91145   0.16912   0.38282   0.00000  Uiso   1.00
C158   C     0.75522   0.16421   0.11718   0.00000  Uiso   1.00
C159   C     0.71810   0.15920   0.45064   0.00000  Uiso   1.00
C160   C     0.94856   0.17413   0.04936   0.00000  Uiso   1.00
C161   C     0.88726   0.04848   0.30759   0.00000  Uiso   1.00
C162   C     0.77941   0.28485   0.19241   0.00000  Uiso   1.00
C163   C     0.77928   0.04807   0.19253   0.00000  Uiso   1.00
C164   C     0.88739   0.28527   0.30747   0.00000  Uiso   1.00
C165   C     0.90955   0.17103   0.47920   0.00000  Uiso   1.00
C166   C     0.68791   0.12559   0.25024   0.00000  Uiso   1.00
C167   C     0.97875   0.20774   0.24976   0.00000  Uiso   1.00
C168   C     0.97868   0.12560   0.25006   0.00000  Uiso   1.00
C169   C     0.68798   0.20773   0.24994   0.00000  Uiso   1.00
C170   C     0.95751   0.16668   0.24986   0.00000  Uiso   1.00
H171   H     0.76866   0.16319   0.38545   0.00000  Uiso   1.00
H172   H     0.89801   0.17014   0.11455   0.00000  Uiso   1.00
H173   H     0.72738   0.16041   0.03726   0.00000  Uiso   1.00
H174   H     0.93929   0.17293   0.46274   0.00000  Uiso   1.00
H175   H     0.70400   0.09355   0.25042   0.00000  Uiso   1.00
H176   H     0.96267   0.23978   0.24958   0.00000  Uiso   1.00
H177   H     0.96254   0.09357   0.25012   0.00000  Uiso   1.00
H178   H     0.70413   0.23977   0.24988   0.00000  Uiso   1.00
N179   N     0.83333   0.28573   0.25000   0.00000  Uiso   1.00
N180   N     0.90993   0.26633   0.33135   0.00000  Uiso   1.00
N181   N     0.83333   0.04760   0.25000   0.00000  Uiso   1.00
N182   N     0.94228   0.16969   0.36331   0.00000  Uiso   1.00
N183   N     0.72438   0.16364   0.13669   0.00000  Uiso   1.00
N184   N     0.68660   0.15683   0.43163   0.00000  Uiso   1.00
N185   N     0.98006   0.17650   0.06837   0.00000  Uiso   1.00
N186   N     0.90964   0.06768   0.33154   0.00000  Uiso   1.00
N187   N     0.75703   0.26565   0.16846   0.00000  Uiso   1.00
N188   N     0.75674   0.06700   0.16865   0.00000  Uiso   1.00
O189   O     0.77226   0.20487   0.24999   0.00000  Uiso   1.00
O190   O     0.89441   0.12846   0.25001   0.00000  Uiso   1.00
O191   O     0.89441   0.20487   0.25000   0.00000  Uiso   1.00
O192   O     0.77226   0.12846   0.24999   0.00000  Uiso   1.00
O193   O     0.83333   0.20489   0.18392   0.00000  Uiso   1.00
O194   O     0.83334   0.12844   0.31607   0.00000  Uiso   1.00
O195   O     0.83334   0.20489   0.31607   0.00000  Uiso   1.00
O196   O     0.83333   0.12844   0.18393   0.00000  Uiso   1.00
Zn197  Zn    0.83333   0.21771   0.25000   0.00000  Uiso   1.00
Zn198  Zn    0.83333   0.11563   0.25000   0.00000  Uiso   1.00
C199   C     0.08668   0.49999   0.25008   0.00000  Uiso   1.00
C200   C     0.04249   0.49999   0.25014   0.00000  Uiso   1.00
C201   C     0.19285   0.35744   0.27791   0.00000  Uiso   1.00
C202   C     0.14048   0.64256   0.22209   0.00000  Uiso   1.00
C203   C     0.14047   0.35726   0.22211   0.00000  Uiso   1.00
C204   C     0.19286   0.64274   0.27789   0.00000  Uiso   1.00
C205   C     0.16626   0.49999   0.16369   0.00000  Uiso   1.00
C206   C     0.16708   0.50001   0.33631   0.00000  Uiso   1.00
C207   C     0.20605   0.50164   0.40730   0.00000  Uiso   1.00
C208   C     0.12729   0.49836   0.09270   0.00000  Uiso   1.00
C209   C     0.16813   0.49999   0.38394   0.00000  Uiso   1.00
C210   C     0.24665   0.50001   0.24992   0.00000  Uiso   1.00
C211   C     0.16520   0.50001   0.11606   0.00000  Uiso   1.00
C212   C     0.13034   0.49795   0.40549   0.00000  Uiso   1.00
C213   C     0.20300   0.50205   0.09451   0.00000  Uiso   1.00
C214   C     0.12907   0.49775   0.45196   0.00000  Uiso   1.00
C215   C     0.20427   0.50225   0.04804   0.00000  Uiso   1.00
C216   C     0.16701   0.49995   0.47655   0.00000  Uiso   1.00
C217   C     0.16632   0.50005   0.02345   0.00000  Uiso   1.00
C218   C     0.20566   0.50198   0.45421   0.00000  Uiso   1.00
C219   C     0.12767   0.49802   0.04579   0.00000  Uiso   1.00
C220   C     0.09085   0.49543   0.47435   0.00000  Uiso   1.00
C221   C     0.09045   0.49564   0.02080   0.00000  Uiso   1.00
C222   C     0.24248   0.50457   0.02565   0.00000  Uiso   1.00
C223   C     0.24478   0.50245   0.38282   0.00000  Uiso   1.00
C224   C     0.08855   0.49755   0.11718   0.00000  Uiso   1.00
C225   C     0.05144   0.49254   0.45064   0.00000  Uiso   1.00
C226   C     0.28190   0.50746   0.04936   0.00000  Uiso   1.00
C227   C     0.22059   0.38182   0.30759   0.00000  Uiso   1.00
C228   C     0.11274   0.61818   0.19241   0.00000  Uiso   1.00
C229   C     0.11261   0.38140   0.19253   0.00000  Uiso   1.00
C230   C     0.22072   0.61860   0.30747   0.00000  Uiso   1.00
C231   C     0.24288   0.50436   0.47920   0.00000  Uiso   1.00
C232   C     0.02125   0.45892   0.25024   0.00000  Uiso   1.00
C233   C     0.31209   0.54107   0.24976   0.00000  Uiso   1.00
C234   C     0.31201   0.45894   0.25006   0.00000  Uiso   1.00
C235   C     0.02132   0.54106   0.24994   0.00000  Uiso   1.00
C236   C     0.29084   0.50001   0.24986   0.00000  Uiso   1.00
H237   H     0.10199   0.49653   0.38545   0.00000  Uiso   1.00
H238   H     0.23134   0.50347   0.11455   0.00000  Uiso   1.00
H239   H     0.06071   0.49374   0.03726   0.00000  Uiso   1.00
H240   H     0.27262   0.50626   0.46274   0.00000  Uiso   1.00
H241   H     0.03733   0.42689   0.25042   0.00000  Uiso   1.00
H242   H     0.29600   0.57311   0.24958   0.00000  Uiso   1.00
H243   H     0.29587   0.42690   0.25012   0.00000  Uiso   1.00
H244   H     0.03746   0.57310   0.24988   0.00000  Uiso   1.00
N245   N     0.16667   0.61907   0.25000   0.00000  Uiso   1.00
N246   N     0.24326   0.59967   0.33135   0.00000  Uiso   1.00
N247   N     0.16667   0.38093   0.25000   0.00000  Uiso   1.00
N248   N     0.27562   0.50303   0.36331   0.00000  Uiso   1.00
N249   N     0.05772   0.49697   0.13669   0.00000  Uiso   1.00
N250   N     0.01994   0.49017   0.43163   0.00000  Uiso   1.00
N251   N     0.31340   0.50983   0.06837   0.00000  Uiso   1.00
N252   N     0.24297   0.40102   0.33154   0.00000  Uiso   1.00
N253   N     0.09036   0.59898   0.16846   0.00000  Uiso   1.00
N254   N     0.09007   0.40033   0.16865   0.00000  Uiso   1.00
O255   O     0.10559   0.53821   0.24999   0.00000  Uiso   1.00
O256   O     0.22774   0.46179   0.25001   0.00000  Uiso   1.00
O257   O     0.22774   0.53821   0.25000   0.00000  Uiso   1.00
O258   O     0.10559   0.46179   0.24999   0.00000  Uiso   1.00
O259   O     0.16666   0.53823   0.18392   0.00000  Uiso   1.00
O260   O     0.16667   0.46177   0.31607   0.00000  Uiso   1.00
O261   O     0.16667   0.53823   0.31607   0.00000  Uiso   1.00
O262   O     0.16666   0.46177   0.18393   0.00000  Uiso   1.00
Zn263  Zn    0.16667   0.55104   0.25000   0.00000  Uiso   1.00
Zn264  Zn    0.16667   0.44896   0.25000   0.00000  Uiso   1.00
C265   C     0.42001   0.49999   0.25008   0.00000  Uiso   1.00
C266   C     0.37583   0.49999   0.25014   0.00000  Uiso   1.00
C267   C     0.52618   0.35744   0.27791   0.00000  Uiso   1.00
C268   C     0.47382   0.64256   0.22209   0.00000  Uiso   1.00
C269   C     0.47381   0.35726   0.22211   0.00000  Uiso   1.00
C270   C     0.52619   0.64274   0.27789   0.00000  Uiso   1.00
C271   C     0.49959   0.49999   0.16369   0.00000  Uiso   1.00
C272   C     0.50041   0.50001   0.33631   0.00000  Uiso   1.00
C273   C     0.53938   0.50164   0.40730   0.00000  Uiso   1.00
C274   C     0.46062   0.49836   0.09270   0.00000  Uiso   1.00
C275   C     0.50147   0.49999   0.38394   0.00000  Uiso   1.00
C276   C     0.57999   0.50001   0.24992   0.00000  Uiso   1.00
C277   C     0.49853   0.50001   0.11606   0.00000  Uiso   1.00
C278   C     0.46367   0.49795   0.40549   0.00000  Uiso   1.00
C279   C     0.53633   0.50205   0.09451   0.00000  Uiso   1.00
C280   C     0.46240   0.49775   0.45196   0.00000  Uiso   1.00
C281   C     0.53760   0.50225   0.04804   0.00000  Uiso   1.00
C282   C     0.50035   0.49995   0.47655   0.00000  Uiso   1.00
C283   C     0.49965   0.50005   0.02345   0.00000  Uiso   1.00
C284   C     0.53899   0.50198   0.45421   0.00000  Uiso   1.00
C285   C     0.46101   0.49802   0.04579   0.00000  Uiso   1.00
C286   C     0.42419   0.49543   0.47435   0.00000  Uiso   1.00
C287   C     0.42379   0.49564   0.02080   0.00000  Uiso   1.00
C288   C     0.57581   0.50457   0.02565   0.00000  Uiso   1.00
C289   C     0.57812   0.50245   0.38282   0.00000  Uiso   1.00
C290   C     0.42188   0.49755   0.11718   0.00000  Uiso   1.00
C291   C     0.38477   0.49254   0.45064   0.00000  Uiso   1.00
C292   C     0.61523   0.50746   0.04936   0.00000  Uiso   1.00
C293   C     0.55392   0.38182   0.30759   0.00000  Uiso   1.00
C294   C     0.44608   0.61818   0.19241   0.00000  Uiso   1.00
C295   C     0.44595   0.38140   0.19253   0.00000  Uiso   1.00
C296   C     0.55405   0.61860   0.30747   0.00000  Uiso   1.00
C297   C     0.57621   0.50436   0.47920   0.00000  Uiso   1.00
C298   C     0.35458   0.45892   0.25024   0.00000  Uiso   1.00
C299   C     0.64542   0.54107   0.24976   0.00000  Uiso   1.00
C300   C     0.64535   0.45894   0.25006   0.00000  Uiso   1.00
C301   C     0.35465   0.54106   0.24994   0.00000  Uiso   1.00
C302   C     0.62417   0.50001   0.24986   0.00000  Uiso   1.00
H303   H     0.43532   0.49653   0.38545   0.00000  Uiso   1.00
H304   H     0.56467   0.50347   0.11455   0.00000  Uiso   1.00
H305   H     0.39404   0.49374   0.03726   0.00000  Uiso   1.00
H306   H     0.60596   0.50626   0.46274   0.00000  Uiso   1.00
H307   H     0.37067   0.42689   0.25042   0.00000  Uiso   1.00
H308   H     0.62933   0.57311   0.24958   0.00000  Uiso   1.00
H309   H     0.62921   0.42690   0.25012   0.00000  Uiso   1.00
H310   H     0.37079   0.57310   0.24988   0.00000  Uiso   1.00
N311   N     0.50000   0.61907   0.25000   0.00000  Uiso   1.00
N312   N     0.57659   0.59967   0.33135   0.00000  Uiso   1.00
N313   N     0.50000   0.38093   0.25000   0.00000  Uiso   1.00
N314   N     0.60895   0.50303   0.36331   0.00000  Uiso   1.00
N315   N     0.39105   0.49697   0.13669   0.00000  Uiso   1.00
N316   N     0.35327   0.49017   0.43163   0.00000  Uiso   1.00
N317   N     0.64673   0.50983   0.06837   0.00000  Uiso   1.00
N318   N     0.57631   0.40102   0.33154   0.00000  Uiso   1.00
N319   N     0.42369   0.59898   0.16846   0.00000  Uiso   1.00
N320   N     0.42341   0.40033   0.16865   0.00000  Uiso   1.00
O321   O     0.43892   0.53821   0.24999   0.00000  Uiso   1.00
O322   O     0.56108   0.46179   0.25001   0.00000  Uiso   1.00
O323   O     0.56108   0.53821   0.25000   0.00000  Uiso   1.00
O324   O     0.43892   0.46179   0.24999   0.00000  Uiso   1.00
O325   O     0.49999   0.53823   0.18392   0.00000  Uiso   1.00
O326   O     0.50001   0.46177   0.31607   0.00000  Uiso   1.00
O327   O     0.50001   0.53823   0.31607   0.00000  Uiso   1.00
O328   O     0.49999   0.46177   0.18393   0.00000  Uiso   1.00
Zn329  Zn    0.50000   0.55104   0.25000   0.00000  Uiso   1.00
Zn330  Zn    0.50000   0.44896   0.25000   0.00000  Uiso   1.00
C331   C     0.75334   0.49999   0.25008   0.00000  Uiso   1.00
C332   C     0.70916   0.49999   0.25014   0.00000  Uiso   1.00
C333   C     0.85951   0.35744   0.27791   0.00000  Uiso   1.00
C334   C     0.80715   0.64256   0.22209   0.00000  Uiso   1.00
C335   C     0.80714   0.35726   0.22211   0.00000  Uiso   1.00
C336   C     0.85953   0.64274   0.27789   0.00000  Uiso   1.00
C337   C     0.83292   0.49999   0.16369   0.00000  Uiso   1.00
C338   C     0.83374   0.50001   0.33631   0.00000  Uiso   1.00
C339   C     0.87271   0.50164   0.40730   0.00000  Uiso   1.00
C340   C     0.79395   0.49836   0.09270   0.00000  Uiso   1.00
C341   C     0.83480   0.49999   0.38394   0.00000  Uiso   1.00
C342   C     0.91332   0.50001   0.24992   0.00000  Uiso   1.00
C343   C     0.83187   0.50001   0.11606   0.00000  Uiso   1.00
C344   C     0.79700   0.49795   0.40549   0.00000  Uiso   1.00
C345   C     0.86966   0.50205   0.09451   0.00000  Uiso   1.00
C346   C     0.79573   0.49775   0.45196   0.00000  Uiso   1.00
C347   C     0.87093   0.50225   0.04804   0.00000  Uiso   1.00
C348   C     0.83368   0.49995   0.47655   0.00000  Uiso   1.00
C349   C     0.83299   0.50005   0.02345   0.00000  Uiso   1.00
C350   C     0.87233   0.50198   0.45421   0.00000  Uiso   1.00
C351   C     0.79434   0.49802   0.04579   0.00000  Uiso   1.00
C352   C     0.75752   0.49543   0.47435   0.00000  Uiso   1.00
C353   C     0.75712   0.49564   0.02080   0.00000  Uiso   1.00
C354   C     0.90915   0.50457   0.02565   0.00000  Uiso   1.00
C355   C     0.91145   0.50245   0.38282   0.00000  Uiso   1.00
C356   C     0.75522   0.49755   0.11718   0.00000  Uiso   1.00
C357   C     0.71810   0.49254   0.45064   0.00000  Uiso   1.00
C358   C     0.94856   0.50746   0.04936   0.00000  Uiso   1.00
C359   C     0.88726   0.38182   0.30759   0.00000  Uiso   1.00
C360   C     0.77941   0.61818   0.19241   0.00000  Uiso   1.00
C361   C     0.77928   0.38140   0.19253   0.00000  Uiso   1.00
C362   C     0.88739   0.61860   0.30747   0.00000  Uiso   1.00
C363   C     0.90955   0.50436   0.47920   0.00000  Uiso   1.00
C364   C     0.68791   0.45892   0.25024   0.00000  Uiso   1.00
C365   C     0.97875   0.54107   0.24976   0.00000  Uiso   1.00
C366   C     0.97868   0.45894   0.25006   0.00000  Uiso   1.00
C367   C     0.68798   0.54106   0.24994   0.00000  Uiso   1.00
C368   C     0.95751   0.50001   0.24986   0.00000  Uiso   1.00
H369   H     0.76866   0.49653   0.38545   0.00000  Uiso   1.00
H370   H     0.89801   0.50347   0.11455   0.00000  Uiso   1.00
H371   H     0.72738   0.49374   0.03726   0.00000  Uiso   1.00
H372   H     0.93929   0.50626   0.46274   0.00000  Uiso   1.00
H373   H     0.70400   0.42689   0.25042   0.00000  Uiso   1.00
H374   H     0.96267   0.57311   0.24958   0.00000  Uiso   1.00
H375   H     0.96254   0.42690   0.25012   0.00000  Uiso   1.00
H376   H     0.70413   0.57310   0.24988   0.00000  Uiso   1.00
N377   N     0.83333   0.61907   0.25000   0.00000  Uiso   1.00
N378   N     0.90993   0.59967   0.33135   0.00000  Uiso   1.00
N379   N     0.83333   0.38093   0.25000   0.00000  Uiso   1.00
N380   N     0.94228   0.50303   0.36331   0.00000  Uiso   1.00
N381   N     0.72438   0.49697   0.13669   0.00000  Uiso   1.00
N382   N     0.68660   0.49017   0.43163   0.00000  Uiso   1.00
N383   N     0.98006   0.50983   0.06837   0.00000  Uiso   1.00
N384   N     0.90964   0.40102   0.33154   0.00000  Uiso   1.00
N385   N     0.75703   0.59898   0.16846   0.00000  Uiso   1.00
N386   N     0.75674   0.40033   0.16865   0.00000  Uiso   1.00
O387   O     0.77226   0.53821   0.24999   0.00000  Uiso   1.00
O388   O     0.89441   0.46179   0.25001   0.00000  Uiso   1.00
O389   O     0.89441   0.53821   0.25000   0.00000  Uiso   1.00
O390   O     0.77226   0.46179   0.24999   0.00000  Uiso   1.00
O391   O     0.83333   0.53823   0.18392   0.00000  Uiso   1.00
O392   O     0.83334   0.46177   0.31607   0.00000  Uiso   1.00
O393   O     0.83334   0.53823   0.31607   0.00000  Uiso   1.00
O394   O     0.83333   0.46177   0.18393   0.00000  Uiso   1.00
Zn395  Zn    0.83333   0.55104   0.25000   0.00000  Uiso   1.00
Zn396  Zn    0.83333   0.44896   0.25000   0.00000  Uiso   1.00
C397   C     0.08668   0.83332   0.25008   0.00000  Uiso   1.00
C398   C     0.04249   0.83332   0.25014   0.00000  Uiso   1.00
C399   C     0.19285   0.69078   0.27791   0.00000  Uiso   1.00
C400   C     0.14048   0.97589   0.22209   0.00000  Uiso   1.00
C401   C     0.14047   0.69060   0.22211   0.00000  Uiso   1.00
C402   C     0.19286   0.97607   0.27789   0.00000  Uiso   1.00
C403   C     0.16626   0.83332   0.16369   0.00000  Uiso   1.00
C404   C     0.16708   0.83335   0.33631   0.00000  Uiso   1.00
C405   C     0.20605   0.83498   0.40730   0.00000  Uiso   1.00
C406   C     0.12729   0.83169   0.09270   0.00000  Uiso   1.00
C407   C     0.16813   0.83332   0.38394   0.00000  Uiso   1.00
C408   C     0.24665   0.83335   0.24992   0.00000  Uiso   1.00
C409   C     0.16520   0.83335   0.11606   0.00000  Uiso   1.00
C410   C     0.13034   0.83128   0.40549   0.00000  Uiso   1.00
C411   C     0.20300   0.83538   0.09451   0.00000  Uiso   1.00
C412   C     0.12907   0.83108   0.45196   0.00000  Uiso   1.00
C413   C     0.20427   0.83559   0.04804   0.00000  Uiso   1.00
C414   C     0.16701   0.83328   0.47655   0.00000  Uiso   1.00
C415   C     0.16632   0.83338   0.02345   0.00000  Uiso   1.00
C416   C     0.20566   0.83531   0.45421   0.00000  Uiso   1.00
C417   C     0.12767   0.83136   0.04579   0.00000  Uiso   1.00
C418   C     0.09085   0.82876   0.47435   0.00000  Uiso   1.00
C419   C     0.09045   0.82897   0.02080   0.00000  Uiso   1.00
C420   C     0.24248   0.83790   0.02565   0.00000  Uiso   1.00
C421   C     0.24478   0.83579   0.38282   0.00000  Uiso   1.00
C422   C     0.08855   0.83088   0.11718   0.00000  Uiso   1.00
C423   C     0.05144   0.82587   0.45064   0.00000  Uiso   1.00
C424   C     0.28190   0.84080   0.04936   0.00000  Uiso   1.00
C425   C     0.22059   0.71515   0.30759   0.00000  Uiso   1.00
C426   C     0.11274   0.95152   0.19241   0.00000  Uiso   1.00
C427   C     0.11261   0.71473   0.19253   0.00000  Uiso   1.00
C428   C     0.22072   0.95193   0.30747   0.00000  Uiso   1.00
C429   C     0.24288   0.83770   0.47920   0.00000  Uiso   1.00
C430   C     0.02125   0.79226   0.25024   0.00000  Uiso   1.00
C431   C     0.31209   0.87441   0.24976   0.00000  Uiso   1.00
C432   C     0.31201   0.79227   0.25006   0.00000  Uiso   1.00
C433   C     0.02132   0.87440   0.24994   0.00000  Uiso   1.00
C434   C     0.29084   0.83335   0.24986   0.00000  Uiso   1.00
H435   H     0.10199   0.82986   0.38545   0.00000  Uiso   1.00
H436   H     0.23134   0.83681   0.11455   0.00000  Uiso   1.00
H437   H     0.06071   0.82707   0.03726   0.00000  Uiso   1.00
H438   H     0.27262   0.83959   0.46274   0.00000  Uiso   1.00
H439   H     0.03733   0.76022   0.25042   0.00000  Uiso   1.00
H440   H     0.29600   0.90645   0.24958   0.00000  Uiso   1.00
H441   H     0.29587   0.76023   0.25012   0.00000  Uiso   1.00
H442   H     0.03746   0.90643   0.24988   0.00000  Uiso   1.00
N443   N     0.16667   0.95240   0.25000   0.00000  Uiso   1.00
N444   N     0.24326   0.93300   0.33135   0.00000  Uiso   1.00
N445   N     0.16667   0.71427   0.25000   0.00000  Uiso   1.00
N446   N     0.27562   0.83636   0.36331   0.00000  Uiso   1.00
N447   N     0.05772   0.83031   0.13669   0.00000  Uiso   1.00
N448   N     0.01994   0.82350   0.43163   0.00000  Uiso   1.00
N449   N     0.31340   0.84317   0.06837   0.00000  Uiso   1.00
N450   N     0.24297   0.73435   0.33154   0.00000  Uiso   1.00
N451   N     0.09036   0.93232   0.16846   0.00000  Uiso   1.00
N452   N     0.09007   0.73367   0.16865   0.00000  Uiso   1.00
O453   O     0.10559   0.87154   0.24999   0.00000  Uiso   1.00
O454   O     0.22774   0.79513   0.25001   0.00000  Uiso   1.00
O455   O     0.22774   0.87154   0.25000   0.00000  Uiso   1.00
O456   O     0.10559   0.79513   0.24999   0.00000  Uiso   1.00
O457   O     0.16666   0.87156   0.18392   0.00000  Uiso   1.00
O458   O     0.16667   0.79511   0.31607   0.00000  Uiso   1.00
O459   O     0.16667   0.87156   0.31607   0.00000  Uiso   1.00
O460   O     0.16666   0.79511   0.18393   0.00000  Uiso   1.00
Zn461  Zn    0.16667   0.88437   0.25000   0.00000  Uiso   1.00
Zn462  Zn    0.16667   0.78229   0.25000   0.00000  Uiso   1.00
C463   C     0.42001   0.83332   0.25008   0.00000  Uiso   1.00
C464   C     0.37583   0.83332   0.25014   0.00000  Uiso   1.00
C465   C     0.52618   0.69078   0.27791   0.00000  Uiso   1.00
C466   C     0.47382   0.97589   0.22209   0.00000  Uiso   1.00
C467   C     0.47381   0.69060   0.22211   0.00000  Uiso   1.00
C468   C     0.52619   0.97607   0.27789   0.00000  Uiso   1.00
C469   C     0.49959   0.83332   0.16369   0.00000  Uiso   1.00
C470   C     0.50041   0.83335   0.33631   0.00000  Uiso   1.00
C471   C     0.53938   0.83498   0.40730   0.00000  Uiso   1.00
C472   C     0.46062   0.83169   0.09270   0.00000  Uiso   1.00
C473   C     0.50147   0.83332   0.38394   0.00000  Uiso   1.00
C474   C     0.57999   0.83335   0.24992   0.00000  Uiso   1.00
C475   C     0.49853   0.83335   0.11606   0.00000  Uiso   1.00
C476   C     0.46367   0.83128   0.40549   0.00000  Uiso   1.00
C477   C     0.53633   0.83538   0.09451   0.00000  Uiso   1.00
C478   C     0.46240   0.83108   0.45196   0.00000  Uiso   1.00
C479   C     0.53760   0.83559   0.04804   0.00000  Uiso   1.00
C480   C     0.50035   0.83328   0.47655   0.00000  Uiso   1.00
C481   C     0.49965   0.83338   0.02345   0.00000  Uiso   1.00
C482   C     0.53899   0.83531   0.45421   0.00000  Uiso   1.00
C483   C     0.46101   0.83136   0.04579   0.00000  Uiso   1.00
C484   C     0.42419   0.82876   0.47435   0.00000  Uiso   1.00
C485   C     0.42379   0.82897   0.02080   0.00000  Uiso   1.00
C486   C     0.57581   0.83790   0.02565   0.00000  Uiso   1.00
C487   C     0.57812   0.83579   0.38282   0.00000  Uiso   1.00
C488   C     0.42188   0.83088   0.11718   0.00000  Uiso   1.00
C489   C     0.38477   0.82587   0.45064   0.00000  Uiso   1.00
C490   C     0.61523   0.84080   0.04936   0.00000  Uiso   1.00
C491   C     0.55392   0.71515   0.30759   0.00000  Uiso   1.00
C492   C     0.44608   0.95152   0.19241   0.00000  Uiso   1.00
C493   C     0.44595   0.71473   0.19253   0.00000  Uiso   1.00
C494   C     0.55405   0.95193   0.30747   0.00000  Uiso   1.00
C495   C     0.57621   0.83770   0.47920   0.00000  Uiso   1.00
C496   C     0.35458   0.79226   0.25024   0.00000  Uiso   1.00
C497   C     0.64542   0.87441   0.24976   0.00000  Uiso   1.00
C498   C     0.64535   0.79227   0.25006   0.00000  Uiso   1.00
C499   C     0.35465   0.87440   0.24994   0.00000  Uiso   1.00
C500   C     0.62417   0.83335   0.24986   0.00000  Uiso   1.00
H501   H     0.43532   0.82986   0.38545   0.00000  Uiso   1.00
H502   H     0.56467   0.83681   0.11455   0.00000  Uiso   1.00
H503   H     0.39404   0.82707   0.03726   0.00000  Uiso   1.00
H504   H     0.60596   0.83959   0.46274   0.00000  Uiso   1.00
H505   H     0.37067   0.76022   0.25042   0.00000  Uiso   1.00
H506   H     0.62933   0.90645   0.24958   0.00000  Uiso   1.00
H507   H     0.62921   0.76023   0.25012   0.00000  Uiso   1.00
H508   H     0.37079   0.90643   0.24988   0.00000  Uiso   1.00
N509   N     0.50000   0.95240   0.25000   0.00000  Uiso   1.00
N510   N     0.57659   0.93300   0.33135   0.00000  Uiso   1.00
N511   N     0.50000   0.71427   0.25000   0.00000  Uiso   1.00
N512   N     0.60895   0.83636   0.36331   0.00000  Uiso   1.00
N513   N     0.39105   0.83031   0.13669   0.00000  Uiso   1.00
N514   N     0.35327   0.82350   0.43163   0.00000  Uiso   1.00
N515   N     0.64673   0.84317   0.06837   0.00000  Uiso   1.00
N516   N     0.57631   0.73435   0.33154   0.00000  Uiso   1.00
N517   N     0.42369   0.93232   0.16846   0.00000  Uiso   1.00
N518   N     0.42341   0.73367   0.16865   0.00000  Uiso   1.00
O519   O     0.43892   0.87154   0.24999   0.00000  Uiso   1.00
O520   O     0.56108   0.79513   0.25001   0.00000  Uiso   1.00
O521   O     0.56108   0.87154   0.25000   0.00000  Uiso   1.00
O522   O     0.43892   0.79513   0.24999   0.00000  Uiso   1.00
O523   O     0.49999   0.87156   0.18392   0.00000  Uiso   1.00
O524   O     0.50001   0.79511   0.31607   0.00000  Uiso   1.00
O525   O     0.50001   0.87156   0.31607   0.00000  Uiso   1.00
O526   O     0.49999   0.79511   0.18393   0.00000  Uiso   1.00
Zn527  Zn    0.50000   0.88437   0.25000   0.00000  Uiso   1.00
Zn528  Zn    0.50000   0.78229   0.25000   0.00000  Uiso   1.00
C529   C     0.75334   0.83332   0.25008   0.00000  Uiso   1.00
C530   C     0.70916   0.83332   0.25014   0.00000  Uiso   1.00
C531   C     0.85951   0.69078   0.27791   0.00000  Uiso   1.00
C532   C     0.80715   0.97589   0.22209   0.00000  Uiso   1.00
C533   C     0.80714   0.69060   0.22211   0.00000  Uiso   1.00
C534   C     0.85953   0.97607   0.27789   0.00000  Uiso   1.00
C535   C     0.83292   0.83332   0.16369   0.00000  Uiso   1.00
C536   C     0.83374   0.83335   0.33631   0.00000  Uiso   1.00
C537   C     0.87271   0.83498   0.40730   0.00000  Uiso   1.00
C538   C     0.79395   0.83169   0.09270   0.00000  Uiso   1.00
C539   C     0.83480   0.83332   0.38394   0.00000  Uiso   1.00
C540   C     0.91332   0.83335   0.24992   0.00000  Uiso   1.00
C541   C     0.83187   0.83335   0.11606   0.00000  Uiso   1.00
C542   C     0.79700   0.83128   0.40549   0.00000  Uiso   1.00
C543   C     0.86966   0.83538   0.09451   0.00000  Uiso   1.00
C544   C     0.79573   0.83108   0.45196   0.00000  Uiso   1.00
C545   C     0.87093   0.83559   0.04804   0.00000  Uiso   1.00
C546   C     0.83368   0.83328   0.47655   0.00000  Uiso   1.00
C547   C     0.83299   0.83338   0.02345   0.00000  Uiso   1.00
C548   C     0.87233   0.83531   0.45421   0.00000  Uiso   1.00
C549   C     0.79434   0.83136   0.04579   0.00000  Uiso   1.00
C550   C     0.75752   0.82876   0.47435   0.00000  Uiso   1.00
C551   C     0.75712   0.82897   0.02080   0.00000  Uiso   1.00
C552   C     0.90915   0.83790   0.02565   0.00000  Uiso   1.00
C553   C     0.91145   0.83579   0.38282   0.00000  Uiso   1.00
C554   C     0.75522   0.83088   0.11718   0.00000  Uiso   1.00
C555   C     0.71810   0.82587   0.45064   0.00000  Uiso   1.00
C556   C     0.94856   0.84080   0.04936   0.00000  Uiso   1.00
C557   C     0.88726   0.71515   0.30759   0.00000  Uiso   1.00
C558   C     0.77941   0.95152   0.19241   0.00000  Uiso   1.00
C559   C     0.77928   0.71473   0.19253   0.00000  Uiso   1.00
C560   C     0.88739   0.95193   0.30747   0.00000  Uiso   1.00
C561   C     0.90955   0.83770   0.47920   0.00000  Uiso   1.00
C562   C     0.68791   0.79226   0.25024   0.00000  Uiso   1.00
C563   C     0.97875   0.87441   0.24976   0.00000  Uiso   1.00
C564   C     0.97868   0.79227   0.25006   0.00000  Uiso   1.00
C565   C     0.68798   0.87440   0.24994   0.00000  Uiso   1.00
C566   C     0.95751   0.83335   0.24986   0.00000  Uiso   1.00
H567   H     0.76866   0.82986   0.38545   0.00000  Uiso   1.00
H568   H     0.89801   0.83681   0.11455   0.00000  Uiso   1.00
H569   H     0.72738   0.82707   0.03726   0.00000  Uiso   1.00
H570   H     0.93929   0.83959   0.46274   0.00000  Uiso   1.00
H571   H     0.70400   0.76022   0.25042   0.00000  Uiso   1.00
H572   H     0.96267   0.90645   0.24958   0.00000  Uiso   1.00
H573   H     0.96254   0.76023   0.25012   0.00000  Uiso   1.00
H574   H     0.70413   0.90643   0.24988   0.00000  Uiso   1.00
N575   N     0.83333   0.95240   0.25000   0.00000  Uiso   1.00
N576   N     0.90993   0.93300   0.33135   0.00000  Uiso   1.00
N577   N     0.83333   0.71427   0.25000   0.00000  Uiso   1.00
N578   N     0.94228   0.83636   0.36331   0.00000  Uiso   1.00
N579   N     0.72438   0.83031   0.13669   0.00000  Uiso   1.00
N580   N     0.68660   0.82350   0.43163   0.00000  Uiso   1.00
N581   N     0.98006   0.84317   0.06837   0.00000  Uiso   1.00
N582   N     0.90964   0.73435   0.33154   0.00000  Uiso   1.00
N583   N     0.75703   0.93232   0.16846   0.00000  Uiso   1.00
N584   N     0.75674   0.73367   0.16865   0.00000  Uiso   1.00
O585   O     0.77226   0.87154   0.24999   0.00000  Uiso   1.00
O586   O     0.89441   0.79513   0.25001   0.00000  Uiso   1.00
O587   O     0.89441   0.87154   0.25000   0.00000  Uiso   1.00
O588   O     0.77226   0.79513   0.24999   0.00000  Uiso   1.00
O589   O     0.83333   0.87156   0.18392   0.00000  Uiso   1.00
O590   O     0.83334   0.79511   0.31607   0.00000  Uiso   1.00
O591   O     0.83334   0.87156   0.31607   0.00000  Uiso   1.00
O592   O     0.83333   0.79511   0.18393   0.00000  Uiso   1.00
Zn593  Zn    0.83333   0.88437   0.25000   0.00000  Uiso   1.00
Zn594  Zn    0.83333   0.78229   0.25000   0.00000  Uiso   1.00
C595   C     0.08668   0.16665   0.75008   0.00000  Uiso   1.00
C596   C     0.04249   0.16665   0.75014   0.00000  Uiso   1.00
C597   C     0.19285   0.02411   0.77791   0.00000  Uiso   1.00
C598   C     0.14048   0.30922   0.72209   0.00000  Uiso   1.00
C599   C     0.14047   0.02393   0.72211   0.00000  Uiso   1.00
C600   C     0.19286   0.30940   0.77789   0.00000  Uiso   1.00
C601   C     0.16626   0.16665   0.66369   0.00000  Uiso   1.00
C602   C     0.16708   0.16668   0.83631   0.00000  Uiso   1.00
C603   C     0.20605   0.16831   0.90730   0.00000  Uiso   1.00
C604   C     0.12729   0.16502   0.59270   0.00000  Uiso   1.00
C605   C     0.16813   0.16665   0.88394   0.00000  Uiso   1.00
C606   C     0.24665   0.16668   0.74992   0.00000  Uiso   1.00
C607   C     0.16520   0.16668   0.61606   0.00000  Uiso   1.00
C608   C     0.13034   0.16462   0.90549   0.00000  Uiso   1.00
C609   C     0.20300   0.16872   0.59451   0.00000  Uiso   1.00
C610   C     0.12907   0.16441   0.95196   0.00000  Uiso   1.00
C611   C     0.20427   0.16892   0.54804   0.00000  Uiso   1.00
C612   C     0.16701   0.16662   0.97655   0.00000  Uiso   1.00
C613   C     0.16632   0.16672   0.52345   0.00000  Uiso   1.00
C614   C     0.20566   0.16864   0.95421   0.00000  Uiso   1.00
C615   C     0.12767   0.16469   0.54579   0.00000  Uiso   1.00
C616   C     0.09085   0.16210   0.97435   0.00000  Uiso   1.00
C617   C     0.09045   0.16230   0.52080   0.00000  Uiso   1.00
C618   C     0.24248   0.17124   0.52565   0.00000  Uiso   1.00
C619   C     0.24478   0.16912   0.88282   0.00000  Uiso   1.00
C620   C     0.08855   0.16421   0.61718   0.00000  Uiso   1.00
C621   C     0.05144   0.15920   0.95064   0.00000  Uiso   1.00
C622   C     0.28190   0.17413   0.54936   0.00000  Uiso   1.00
C623   C     0.22059   0.04848   0.80759   0.00000  Uiso   1.00
C624   C     0.11274   0.28485   0.69241   0.00000  Uiso   1.00
C625   C     0.11261   0.04807   0.69253   0.00000  Uiso   1.00
C626   C     0.22072   0.28527   0.80747   0.00000  Uiso   1.00
C627   C     0.24288   0.17103   0.97920   0.00000  Uiso   1.00
C628   C     0.02125   0.12559   0.75024   0.00000  Uiso   1.00
C629   C     0.31209   0.20774   0.74976   0.00000  Uiso   1.00
C630   C     0.31201   0.12560   0.75006   0.00000  Uiso   1.00
C631   C     0.02132   0.20773   0.74994   0.00000  Uiso   1.00
C632   C     0.29084   0.16668   0.74986   0.00000  Uiso   1.00
H633   H     0.10199   0.16319   0.88545   0.00000  Uiso   1.00
H634   H     0.23134   0.17014   0.61455   0.00000  Uiso   1.00
H635   H     0.06071   0.16041   0.53726   0.00000  Uiso   1.00
H636   H     0.27262   0.17293   0.96274   0.00000  Uiso   1.00
H637   H     0.03733   0.09355   0.75042   0.00000  Uiso   1.00
H638   H     0.29600   0.23978   0.74958   0.00000  Uiso   1.00
H639   H     0.29587   0.09357   0.75012   0.00000  Uiso   1.00
H640   H     0.03746   0.23977   0.74988   0.00000  Uiso   1.00
N641   N     0.16667   0.28573   0.75000   0.00000  Uiso   1.00
N642   N     0.24326   0.26633   0.83135   0.00000  Uiso   1.00
N643   N     0.16667   0.04760   0.75000   0.00000  Uiso   1.00
N644   N     0.27562   0.16969   0.86331   0.00000  Uiso   1.00
N645   N     0.05772   0.16364   0.63669   0.00000  Uiso   1.00
N646   N     0.01994   0.15683   0.93163   0.00000  Uiso   1.00
N647   N     0.31340   0.17650   0.56837   0.00000  Uiso   1.00
N648   N     0.24297   0.06768   0.83154   0.00000  Uiso   1.00
N649   N     0.09036   0.26565   0.66846   0.00000  Uiso   1.00
N650   N     0.09007   0.06700   0.66865   0.00000  Uiso   1.00
O651   O     0.10559   0.20487   0.74999   0.00000  Uiso   1.00
O652   O     0.22774   0.12846   0.75001   0.00000  Uiso   1.00
O653   O     0.22774   0.20487   0.75000   0.00000  Uiso   1.00
O654   O     0.10559   0.12846   0.74999   0.00000  Uiso   1.00
O655   O     0.16666   0.20489   0.68392   0.00000  Uiso   1.00
O656   O     0.16667   0.12844   0.81607   0.00000  Uiso   1.00
O657   O     0.16667   0.20489   0.81607   0.00000  Uiso   1.00
O658   O     0.16666   0.12844   0.68393   0.00000  Uiso   1.00
Zn659  Zn    0.16667   0.21771   0.75000   0.00000  Uiso   1.00
Zn660  Zn    0.16667   0.11563   0.75000   0.00000  Uiso   1.00
C661   C     0.42001   0.16665   0.75008   0.00000  Uiso   1.00
C662   C     0.37583   0.16665   0.75014   0.00000  Uiso   1.00
C663   C     0.52618   0.02411   0.77791   0.00000  Uiso   1.00
C664   C     0.47382   0.30922   0.72209   0.00000  Uiso   1.00
C665   C     0.47381   0.02393   0.72211   0.00000  Uiso   1.00
C666   C     0.52619   0.30940   0.77789   0.00000  Uiso   1.00
C667   C     0.49959   0.16665   0.66369   0.00000  Uiso   1.00
C668   C     0.50041   0.16668   0.83631   0.00000  Uiso   1.00
C669   C     0.53938   0.16831   0.90730   0.00000  Uiso   1.00
C670   C     0.46062   0.16502   0.59270   0.00000  Uiso   1.00
C671   C     0.50147   0.16665   0.88394   0.00000  Uiso   1.00
C672   C     0.57999   0.16668   0.74992   0.00000  Uiso   1.00
C673   C     0.49853   0.16668   0.61606   0.00000  Uiso   1.00
C674   C     0.46367   0.16462   0.90549   0.00000  Uiso   1.00
C675   C     0.53633   0.16872   0.59451   0.00000  Uiso   1.00
C676   C     0.46240   0.16441   0.95196   0.00000  Uiso   1.00
C677   C     0.53760   0.16892   0.54804   0.00000  Uiso   1.00
C678   C     0.50035   0.16662   0.97655   0.00000  Uiso   1.00
C679   C     0.49965   0.16672   0.52345   0.00000  Uiso   1.00
C680   C     0.53899   0.16864   0.95421   0.00000  Uiso   1.00
C681   C     0.46101   0.16469   0.54579   0.00000  Uiso   1.00
C682   C     0.42419   0.16210   0.97435   0.00000  Uiso   1.00
C683   C     0.42379   0.16230   0.52080   0.00000  Uiso   1.00
C684   C     0.57581   0.17124   0.52565   0.00000  Uiso   1.00
C685   C     0.57812   0.16912   0.88282   0.00000  Uiso   1.00
C686   C     0.42188   0.16421   0.61718   0.00000  Uiso   1.00
C687   C     0.38477   0.15920   0.95064   0.00000  Uiso   1.00
C688   C     0.61523   0.17413   0.54936   0.00000  Uiso   1.00
C689   C     0.55392   0.04848   0.80759   0.00000  Uiso   1.00
C690   C     0.44608   0.28485   0.69241   0.00000  Uiso   1.00
C691   C     0.44595   0.04807   0.69253   0.00000  Uiso   1.00
C692   C     0.55405   0.28527   0.80747   0.00000  Uiso   1.00
C693   C     0.57621   0.17103   0.97920   0.00000  Uiso   1.00
C694   C     0.35458   0.12559   0.75024   0.00000  Uiso   1.00
C695   C     0.64542   0.20774   0.74976   0.00000  Uiso   1.00
C696   C     0.64535   0.12560   0.75006   0.00000  Uiso   1.00
C697   C     0.35465   0.20773   0.74994   0.00000  Uiso   1.00
C698   C     0.62417   0.16668   0.74986   0.00000  Uiso   1.00
H699   H     0.43532   0.16319   0.88545   0.00000  Uiso   1.00
H700   H     0.56467   0.17014   0.61455   0.00000  Uiso   1.00
H701   H     0.39404   0.16041   0.53726   0.00000  Uiso   1.00
H702   H     0.60596   0.17293   0.96274   0.00000  Uiso   1.00
H703   H     0.37067   0.09355   0.75042   0.00000  Uiso   1.00
H704   H     0.62933   0.23978   0.74958   0.00000  Uiso   1.00
H705   H     0.62921   0.09357   0.75012   0.00000  Uiso   1.00
H706   H     0.37079   0.23977   0.74988   0.00000  Uiso   1.00
N707   N     0.50000   0.28573   0.75000   0.00000  Uiso   1.00
N708   N     0.57659   0.26633   0.83135   0.00000  Uiso   1.00
N709   N     0.50000   0.04760   0.75000   0.00000  Uiso   1.00
N710   N     0.60895   0.16969   0.86331   0.00000  Uiso   1.00
N711   N     0.39105   0.16364   0.63669   0.00000  Uiso   1.00
N712   N     0.35327   0.15683   0.93163   0.00000  Uiso   1.00
N713   N     0.64673   0.17650   0.56837   0.00000  Uiso   1.00
N714   N     0.57631   0.06768   0.83154   0.00000  Uiso   1.00
N715   N     0.42369   0.26565   0.66846   0.00000  Uiso   1.00
N716   N     0.42341   0.06700   0.66865   0.00000  Uiso   1.00
O717   O     0.43892   0.20487   0.74999   0.00000  Uiso   1.00
O718   O     0.56108   0.12846   0.75001   0.00000  Uiso   1.00
O719   O     0.56108   0.20487   0.75000   0.00000  Uiso   1.00
O720   O     0.43892   0.12846   0.74999   0.00000  Uiso   1.00
O721   O     0.49999   0.20489   0.68392   0.00000  Uiso   1.00
O722   O     0.50001   0.12844   0.81607   0.00000  Uiso   1.00
O723   O     0.50001   0.20489   0.81607   0.00000  Uiso   1.00
O724   O     0.49999   0.12844   0.68393   0.00000  Uiso   1.00
Zn725  Zn    0.50000   0.21771   0.75000   0.00000  Uiso   1.00
Zn726  Zn    0.50000   0.11563   0.75000   0.00000  Uiso   1.00
C727   C     0.75334   0.16665   0.75008   0.00000  Uiso   1.00
C728   C     0.70916   0.16665   0.75014   0.00000  Uiso   1.00
C729   C     0.85951   0.02411   0.77791   0.00000  Uiso   1.00
C730   C     0.80715   0.30922   0.72209   0.00000  Uiso   1.00
C731   C     0.80714   0.02393   0.72211   0.00000  Uiso   1.00
C732   C     0.85953   0.30940   0.77789   0.00000  Uiso   1.00
C733   C     0.83292   0.16665   0.66369   0.00000  Uiso   1.00
C734   C     0.83374   0.16668   0.83631   0.00000  Uiso   1.00
C735   C     0.87271   0.16831   0.90730   0.00000  Uiso   1.00
C736   C     0.79395   0.16502   0.59270   0.00000  Uiso   1.00
C737   C     0.83480   0.16665   0.88394   0.00000  Uiso   1.00
C738   C     0.91332   0.16668   0.74992   0.00000  Uiso   1.00
C739   C     0.83187   0.16668   0.61606   0.00000  Uiso   1.00
C740   C     0.79700   0.16462   0.90549   0.00000  Uiso   1.00
C741   C     0.86966   0.16872   0.59451   0.00000  Uiso   1.00
C742   C     0.79573   0.16441   0.95196   0.00000  Uiso   1.00
C743   C     0.87093   0.16892   0.54804   0.00000  Uiso   1.00
C744   C     0.83368   0.16662   0.97655   0.00000  Uiso   1.00
C745   C     0.83299   0.16672   0.52345   0.00000  Uiso   1.00
C746   C     0.87233   0.16864   0.95421   0.00000  Uiso   1.00
C747   C     0.79434   0.16469   0.54579   0.00000  Uiso   1.00
C748   C     0.75752   0.16210   0.97435   0.00000  Uiso   1.00
C749   C     0.75712   0.16230   0.52080   0.00000  Uiso   1.00
C750   C     0.90915   0.17124   0.52565   0.00000  Uiso   1.00
C751   C     0.91145   0.16912   0.88282   0.00000  Uiso   1.00
C752   C     0.75522   0.16421   0.61718   0.00000  Uiso   1.00
C753   C     0.71810   0.15920   0.95064   0.00000  Uiso   1.00
C754   C     0.94856   0.17413   0.54936   0.00000  Uiso   1.00
C755   C     0.88726   0.04848   0.80759   0.00000  Uiso   1.00
C756   C     0.77941   0.28485   0.69241   0.00000  Uiso   1.00
C757   C     0.77928   0.04807   0.69253   0.00000  Uiso   1.00
C758   C     0.88739   0.28527   0.80747   0.00000  Uiso   1.00
C759   C     0.90955   0.17103   0.97920   0.00000  Uiso   1.00
C760   C     0.68791   0.12559   0.75024   0.00000  Uiso   1.00
C761   C     0.97875   0.20774   0.74976   0.00000  Uiso   1.00
C762   C     0.97868   0.12560   0.75006   0.00000  Uiso   1.00
C763   C     0.68798   0.20773   0.74994   0.00000  Uiso   1.00
C764   C     0.95751   0.16668   0.74986   0.00000  Uiso   1.00
H765   H     0.76866   0.16319   0.88545   0.00000  Uiso   1.00
H766   H     0.89801   0.17014   0.61455   0.00000  Uiso   1.00
H767   H     0.72738   0.16041   0.53726   0.00000  Uiso   1.00
H768   H     0.93929   0.17293   0.96274   0.00000  Uiso   1.00
H769   H     0.70400   0.09355   0.75042   0.00000  Uiso   1.00
H770   H     0.96267   0.23978   0.74958   0.00000  Uiso   1.00
H771   H     0.96254   0.09357   0.75012   0.00000  Uiso   1.00
H772   H     0.70413   0.23977   0.74988   0.00000  Uiso   1.00
N773   N     0.83333   0.28573   0.75000   0.00000  Uiso   1.00
N774   N     0.90993   0.26633   0.83135   0.00000  Uiso   1.00
N775   N     0.83333   0.04760   0.75000   0.00000  Uiso   1.00
N776   N     0.94228   0.16969   0.86331   0.00000  Uiso   1.00
N777   N     0.72438   0.16364   0.63669   0.00000  Uiso   1.00
N778   N     0.68660   0.15683   0.93163   0.00000  Uiso   1.00
N779   N     0.98006   0.17650   0.56837   0.00000  Uiso   1.00
N780   N     0.90964   0.06768   0.83154   0.00000  Uiso   1.00
N781   N     0.75703   0.26565   0.66846   0.00000  Uiso   1.00
N782   N     0.75674   0.06700   0.66865   0.00000  Uiso   1.00
O783   O     0.77226   0.20487   0.74999   0.00000  Uiso   1.00
O784   O     0.89441   0.12846   0.75001   0.00000  Uiso   1.00
O785   O     0.89441   0.20487   0.75000   0.00000  Uiso   1.00
O786   O     0.77226   0.12846   0.74999   0.00000  Uiso   1.00
O787   O     0.83333   0.20489   0.68392   0.00000  Uiso   1.00
O788   O     0.83334   0.12844   0.81607   0.00000  Uiso   1.00
O789   O     0.83334   0.20489   0.81607   0.00000  Uiso   1.00
O790   O     0.83333   0.12844   0.68393   0.00000  Uiso   1.00
Zn791  Zn    0.83333   0.21771   0.75000   0.00000  Uiso   1.00
Zn792  Zn    0.83333   0.11563   0.75000   0.00000  Uiso   1.00
C793   C     0.08668   0.49999   0.75008   0.00000  Uiso   1.00
C794   C     0.04249   0.49999   0.75014   0.00000  Uiso   1.00
C795   C     0.19285   0.35744   0.77791   0.00000  Uiso   1.00
C796   C     0.14048   0.64256   0.72209   0.00000  Uiso   1.00
C797   C     0.14047   0.35726   0.72211   0.00000  Uiso   1.00
C798   C     0.19286   0.64274   0.77789   0.00000  Uiso   1.00
C799   C     0.16626   0.49999   0.66369   0.00000  Uiso   1.00
C800   C     0.16708   0.50001   0.83631   0.00000  Uiso   1.00
C801   C     0.20605   0.50164   0.90730   0.00000  Uiso   1.00
C802   C     0.12729   0.49836   0.59270   0.00000  Uiso   1.00
C803   C     0.16813   0.49999   0.88394   0.00000  Uiso   1.00
C804   C     0.24665   0.50001   0.74992   0.00000  Uiso   1.00
C805   C     0.16520   0.50001   0.61606   0.00000  Uiso   1.00
C806   C     0.13034   0.49795   0.90549   0.00000  Uiso   1.00
C807   C     0.20300   0.50205   0.59451   0.00000  Uiso   1.00
C808   C     0.12907   0.49775   0.95196   0.00000  Uiso   1.00
C809   C     0.20427   0.50225   0.54804   0.00000  Uiso   1.00
C810   C     0.16701   0.49995   0.97655   0.00000  Uiso   1.00
C811   C     0.16632   0.50005   0.52345   0.00000  Uiso   1.00
C812   C     0.20566   0.50198   0.95421   0.00000  Uiso   1.00
C813   C     0.12767   0.49802   0.54579   0.00000  Uiso   1.00
C814   C     0.09085   0.49543   0.97435   0.00000  Uiso   1.00
C815   C     0.09045   0.49564   0.52080   0.00000  Uiso   1.00
C816   C     0.24248   0.50457   0.52565   0.00000  Uiso   1.00
C817   C     0.24478   0.50245   0.88282   0.00000  Uiso   1.00
C818   C     0.08855   0.49755   0.61718   0.00000  Uiso   1.00
C819   C     0.05144   0.49254   0.95064   0.00000  Uiso   1.00
C820   C     0.28190   0.50746   0.54936   0.00000  Uiso   1.00
C821   C     0.22059   0.38182   0.80759   0.00000  Uiso   1.00
C822   C     0.11274   0.61818   0.69241   0.00000  Uiso   1.00
C823   C     0.11261   0.38140   0.69253   0.00000  Uiso   1.00
C824   C     0.22072   0.61860   0.80747   0.00000  Uiso   1.00
C825   C     0.24288   0.50436   0.97920   0.00000  Uiso   1.00
C826   C     0.02125   0.45892   0.75024   0.00000  Uiso   1.00
C827   C     0.31209   0.54107   0.74976   0.00000  Uiso   1.00
C828   C     0.31201   0.45894   0.75006   0.00000  Uiso   1.00
C829   C     0.02132   0.54106   0.74994   0.00000  Uiso   1.00
C830   C     0.29084   0.50001   0.74986   0.00000  Uiso   1.00
H831   H     0.10199   0.49653   0.88545   0.00000  Uiso   1.00
H832   H     0.23134   0.50347   0.61455   0.00000  Uiso   1.00
H833   H     0.06071   0.49374   0.53726   0.00000  Uiso   1.00
H834   H     0.27262   0.50626   0.96274   0.00000  Uiso   1.00
H835   H     0.03733   0.42689   0.75042   0.00000  Uiso   1.00
H836   H     0.29600   0.57311   0.74958   0.00000  Uiso   1.00
H837   H     0.29587   0.42690   0.75012   0.00000  Uiso   1.00
H838   H     0.03746   0.57310   0.74988   0.00000  Uiso   1.00
N839   N     0.16667   0.61907   0.75000   0.00000  Uiso   1.00
N840   N     0.24326   0.59967   0.83135   0.00000  Uiso   1.00
N841   N     0.16667   0.38093   0.75000   0.00000  Uiso   1.00
N842   N     0.27562   0.50303   0.86331   0.00000  Uiso   1.00
N843   N     0.05772   0.49697   0.63669   0.00000  Uiso   1.00
N844   N     0.01994   0.49017   0.93163   0.00000  Uiso   1.00
N845   N     0.31340   0.50983   0.56837   0.00000  Uiso   1.00
N846   N     0.24297   0.40102   0.83154   0.00000  Uiso   1.00
N847   N     0.09036   0.59898   0.66846   0.00000  Uiso   1.00
N848   N     0.09007   0.40033   0.66865   0.00000  Uiso   1.00
O849   O     0.10559   0.53821   0.74999   0.00000  Uiso   1.00
O850   O     0.22774   0.46179   0.75001   0.00000  Uiso   1.00
O851   O     0.22774   0.53821   0.75000   0.00000  Uiso   1.00
O852   O     0.10559   0.46179   0.74999   0.00000  Uiso   1.00
O853   O     0.16666   0.53823   0.68392   0.00000  Uiso   1.00
O854   O     0.16667   0.46177   0.81607   0.00000  Uiso   1.00
O855   O     0.16667   0.53823   0.81607   0.00000  Uiso   1.00
O856   O     0.16666   0.46177   0.68393   0.00000  Uiso   1.00
Zn857  Zn    0.16667   0.55104   0.75000   0.00000  Uiso   1.00
Zn858  Zn    0.16667   0.44896   0.75000   0.00000  Uiso   1.00
C859   C     0.42001   0.49999   0.75008   0.00000  Uiso   1.00
C860   C     0.37583   0.49999   0.75014   0.00000  Uiso   1.00
C861   C     0.52618   0.35744   0.77791   0.00000  Uiso   1.00
C862   C     0.47382   0.64256   0.72209   0.00000  Uiso   1.00
C863   C     0.47381   0.35726   0.72211   0.00000  Uiso   1.00
C864   C     0.52619   0.64274   0.77789   0.00000  Uiso   1.00
C865   C     0.49959   0.49999   0.66369   0.00000  Uiso   1.00
C866   C     0.50041   0.50001   0.83631   0.00000  Uiso   1.00
C867   C     0.53938   0.50164   0.90730   0.00000  Uiso   1.00
C868   C     0.46062   0.49836   0.59270   0.00000  Uiso   1.00
C869   C     0.50147   0.49999   0.88394   0.00000  Uiso   1.00
C870   C     0.57999   0.50001   0.74992   0.00000  Uiso   1.00
C871   C     0.49853   0.50001   0.61606   0.00000  Uiso   1.00
C872   C     0.46367   0.49795   0.90549   0.00000  Uiso   1.00
C873   C     0.53633   0.50205   0.59451   0.00000  Uiso   1.00
C874   C     0.46240   0.49775   0.95196   0.00000  Uiso   1.00
C875   C     0.53760   0.50225   0.54804   0.00000  Uiso   1.00
C876   C     0.50035   0.49995   0.97655   0.00000  Uiso   1.00
C877   C     0.49965   0.50005   0.52345   0.00000  Uiso   1.00
C878   C     0.53899   0.50198   0.95421   0.00000  Uiso   1.00
C879   C     0.46101   0.49802   0.54579   0.00000  Uiso   1.00
C880   C     0.42419   0.49543   0.97435   0.00000  Uiso   1.00
C881   C     0.42379   0.49564   0.52080   0.00000  Uiso   1.00
C882   C     0.57581   0.50457   0.52565   0.00000  Uiso   1.00
C883   C     0.57812   0.50245   0.88282   0.00000  Uiso   1.00
C884   C     0.42188   0.49755   0.61718   0.00000  Uiso   1.00
C885   C     0.38477   0.49254   0.95064   0.00000  Uiso   1.00
C886   C     0.61523   0.50746   0.54936   0.00000  Uiso   1.00
C887   C     0.55392   0.38182   0.80759   0.00000  Uiso   1.00
C888   C     0.44608   0.61818   0.69241   0.00000  Uiso   1.00
C889   C     0.44595   0.38140   0.69253   0.00000  Uiso   1.00
C890   C     0.55405   0.61860   0.80747   0.00000  Uiso   1.00
C891   C     0.57621   0.50436   0.97920   0.00000  Uiso   1.00
C892   C     0.35458   0.45892   0.75024   0.00000  Uiso   1.00
C893   C     0.64542   0.54107   0.74976   0.00000  Uiso   1.00
C894   C     0.64535   0.45894   0.75006   0.00000  Uiso   1.00
C895   C     0.35465   0.54106   0.74994   0.00000  Uiso   1.00
C896   C     0.62417   0.50001   0.74986   0.00000  Uiso   1.00
H897   H     0.43532   0.49653   0.88545   0.00000  Uiso   1.00
H898   H     0.56467   0.50347   0.61455   0.00000  Uiso   1.00
H899   H     0.39404   0.49374   0.53726   0.00000  Uiso   1.00
H900   H     0.60596   0.50626   0.96274   0.00000  Uiso   1.00
H901   H     0.37067   0.42689   0.75042   0.00000  Uiso   1.00
H902   H     0.62933   0.57311   0.74958   0.00000  Uiso   1.00
H903   H     0.62921   0.42690   0.75012   0.00000  Uiso   1.00
H904   H     0.37079   0.57310   0.74988   0.00000  Uiso   1.00
N905   N     0.50000   0.61907   0.75000   0.00000  Uiso   1.00
N906   N     0.57659   0.59967   0.83135   0.00000  Uiso   1.00
N907   N     0.50000   0.38093   0.75000   0.00000  Uiso   1.00
N908   N     0.60895   0.50303   0.86331   0.00000  Uiso   1.00
N909   N     0.39105   0.49697   0.63669   0.00000  Uiso   1.00
N910   N     0.35327   0.49017   0.93163   0.00000  Uiso   1.00
N911   N     0.64673   0.50983   0.56837   0.00000  Uiso   1.00
N912   N     0.57631   0.40102   0.83154   0.00000  Uiso   1.00
N913   N     0.42369   0.59898   0.66846   0.00000  Uiso   1.00
N914   N     0.42341   0.40033   0.66865   0.00000  Uiso   1.00
O915   O     0.43892   0.53821   0.74999   0.00000  Uiso   1.00
O916   O     0.56108   0.46179   0.75001   0.00000  Uiso   1.00
O917   O     0.56108   0.53821   0.75000   0.00000  Uiso   1.00
O918   O     0.43892   0.46179   0.74999   0.00000  Uiso   1.00
O919   O     0.49999   0.53823   0.68392   0.00000  Uiso   1.00
O920   O     0.50001   0.46177   0.81607   0.00000  Uiso   1.00
O921   O     0.50001   0.53823   0.81607   0.00000  Uiso   1.00
O922   O     0.49999   0.46177   0.68393   0.00000  Uiso   1.00
Zn923  Zn    0.50000   0.55104   0.75000   0.00000  Uiso   1.00
Zn924  Zn    0.50000   0.44896   0.75000   0.00000  Uiso   1.00
C925   C     0.75334   0.49999   0.75008   0.00000  Uiso   1.00
C926   C     0.70916   0.49999   0.75014   0.00000  Uiso   1.00
C927   C     0.85951   0.35744   0.77791   0.00000  Uiso   1.00
C928   C     0.80715   0.64256   0.72209   0.00000  Uiso   1.00
C929   C     0.80714   0.35726   0.72211   0.00000  Uiso   1.00
C930   C     0.85953   0.64274   0.77789   0.00000  Uiso   1.00
C931   C     0.83292   0.49999   0.66369   0.00000  Uiso   1.00
C932   C     0.83374   0.50001   0.83631   0.00000  Uiso   1.00
C933   C     0.87271   0.50164   0.90730   0.00000  Uiso   1.00
C934   C     0.79395   0.49836   0.59270   0.00000  Uiso   1.00
C935   C     0.83480   0.49999   0.88394   0.00000  Uiso   1.00
C936   C     0.91332   0.50001   0.74992   0.00000  Uiso   1.00
C937   C     0.83187   0.50001   0.61606   0.00000  Uiso   1.00
C938   C     0.79700   0.49795   0.90549   0.00000  Uiso   1.00
C939   C     0.86966   0.50205   0.59451   0.00000  Uiso   1.00
C940   C     0.79573   0.49775   0.95196   0.00000  Uiso   1.00
C941   C     0.87093   0.50225   0.54804   0.00000  Uiso   1.00
C942   C     0.83368   0.49995   0.97655   0.00000  Uiso   1.00
C943   C     0.83299   0.50005   0.52345   0.00000  Uiso   1.00
C944   C     0.87233   0.50198   0.95421   0.00000  Uiso   1.00
C945   C     0.79434   0.49802   0.54579   0.00000  Uiso   1.00
C946   C     0.75752   0.49543   0.97435   0.00000  Uiso   1.00
C947   C     0.75712   0.49564   0.52080   0.00000  Uiso   1.00
C948   C     0.90915   0.50457   0.52565   0.00000  Uiso   1.00
C949   C     0.91145   0.50245   0.88282   0.00000  Uiso   1.00
C950   C     0.75522   0.49755   0.61718   0.00000  Uiso   1.00
C951   C     0.71810   0.49254   0.95064   0.00000  Uiso   1.00
C952   C     0.94856   0.50746   0.54936   0.00000  Uiso   1.00
C953   C     0.88726   0.38182   0.80759   0.00000  Uiso   1.00
C954   C     0.77941   0.61818   0.69241   0.00000  Uiso   1.00
C955   C     0.77928   0.38140   0.69253   0.00000  Uiso   1.00
C956   C     0.88739   0.61860   0.80747   0.00000  Uiso   1.00
C957   C     0.90955   0.50436   0.97920   0.00000  Uiso   1.00
C958   C     0.68791   0.45892   0.75024   0.00000  Uiso   1.00
C959   C     0.97875   0.54107   0.74976   0.00000  Uiso   1.00
C960   C     0.97868   0.45894   0.75006   0.00000  Uiso   1.00
C961   C     0.68798   0.54106   0.74994   0.00000  Uiso   1.00
C962   C     0.95751   0.50001   0.74986   0.00000  Uiso   1.00
H963   H     0.76866   0.49653   0.88545   0.00000  Uiso   1.00
H964   H     0.89801   0.50347   0.61455   0.00000  Uiso   1.00
H965   H     0.72738   0.49374   0.53726   0.00000  Uiso   1.00
H966   H     0.93929   0.50626   0.96274   0.00000  Uiso   1.00
H967   H     0.70400   0.42689   0.75042   0.00000  Uiso   1.00
H968   H     0.96267   0.57311   0.74958   0.00000  Uiso   1.00
H969   H     0.96254   0.42690   0.75012   0.00000  Uiso   1.00
H970   H     0.70413   0.57310   0.74988   0.00000  Uiso   1.00
N971   N     0.83333   0.61907   0.75000   0.00000  Uiso   1.00
N972   N     0.90993   0.59967   0.83135   0.00000  Uiso   1.00
N973   N     0.83333   0.38093   0.75000   0.00000  Uiso   1.00
N974   N     0.94228   0.50303   0.86331   0.00000  Uiso   1.00
N975   N     0.72438   0.49697   0.63669   0.00000  Uiso   1.00
N976   N     0.68660   0.49017   0.93163   0.00000  Uiso   1.00
N977   N     0.98006   0.50983   0.56837   0.00000  Uiso   1.00
N978   N     0.90964   0.40102   0.83154   0.00000  Uiso   1.00
N979   N     0.75703   0.59898   0.66846   0.00000  Uiso   1.00
N980   N     0.75674   0.40033   0.66865   0.00000  Uiso   1.00
O981   O     0.77226   0.53821   0.74999   0.00000  Uiso   1.00
O982   O     0.89441   0.46179   0.75001   0.00000  Uiso   1.00
O983   O     0.89441   0.53821   0.75000   0.00000  Uiso   1.00
O984   O     0.77226   0.46179   0.74999   0.00000  Uiso   1.00
O985   O     0.83333   0.53823   0.68392   0.00000  Uiso   1.00
O986   O     0.83334   0.46177   0.81607   0.00000  Uiso   1.00
O987   O     0.83334   0.53823   0.81607   0.00000  Uiso   1.00
O988   O     0.83333   0.46177   0.68393   0.00000  Uiso   1.00
Zn989  Zn    0.83333   0.55104   0.75000   0.00000  Uiso   1.00
Zn990  Zn    0.83333   0.44896   0.75000   0.00000  Uiso   1.00
C991   C     0.08668   0.83332   0.75008   0.00000  Uiso   1.00
C992   C     0.04249   0.83332   0.75014   0.00000  Uiso   1.00
C993   C     0.19285   0.69078   0.77791   0.00000  Uiso   1.00
C994   C     0.14048   0.97589   0.72209   0.00000  Uiso   1.00
C995   C     0.14047   0.69060   0.72211   0.00000  Uiso   1.00
C996   C     0.19286   0.97607   0.77789   0.00000  Uiso   1.00
C997   C     0.16626   0.83332   0.66369   0.00000  Uiso   1.00
C998   C     0.16708   0.83335   0.83631   0.00000  Uiso   1.00
C999   C     0.20605   0.83498   0.90730   0.00000  Uiso   1.00
C1000  C     0.12729   0.83169   0.59270   0.00000  Uiso   1.00
C1001  C     0.16813   0.83332   0.88394   0.00000  Uiso   1.00
C1002  C     0.24665   0.83335   0.74992   0.00000  Uiso   1.00
C1003  C     0.16520   0.83335   0.61606   0.00000  Uiso   1.00
C1004  C     0.13034   0.83128   0.90549   0.00000  Uiso   1.00
C1005  C     0.20300   0.83538   0.59451   0.00000  Uiso   1.00
C1006  C     0.12907   0.83108   0.95196   0.00000  Uiso   1.00
C1007  C     0.20427   0.83559   0.54804   0.00000  Uiso   1.00
C1008  C     0.16701   0.83328   0.97655   0.00000  Uiso   1.00
C1009  C     0.16632   0.83338   0.52345   0.00000  Uiso   1.00
C1010  C     0.20566   0.83531   0.95421   0.00000  Uiso   1.00
C1011  C     0.12767   0.83136   0.54579   0.00000  Uiso   1.00
C1012  C     0.09085   0.82876   0.97435   0.00000  Uiso   1.00
C1013  C     0.09045   0.82897   0.52080   0.00000  Uiso   1.00
C1014  C     0.24248   0.83790   0.52565   0.00000  Uiso   1.00
C1015  C     0.24478   0.83579   0.88282   0.00000  Uiso   1.00
C1016  C     0.08855   0.83088   0.61718   0.00000  Uiso   1.00
C1017  C     0.05144   0.82587   0.95064   0.00000  Uiso   1.00
C1018  C     0.28190   0.84080   0.54936   0.00000  Uiso   1.00
C1019  C     0.22059   0.71515   0.80759   0.00000  Uiso   1.00
C1020  C     0.11274   0.95152   0.69241   0.00000  Uiso   1.00
C1021  C     0.11261   0.71473   0.69253   0.00000  Uiso   1.00
C1022  C     0.22072   0.95193   0.80747   0.00000  Uiso   1.00
C1023  C     0.24288   0.83770   0.97920   0.00000  Uiso   1.00
C1024  C     0.02125   0.79226   0.75024   0.00000  Uiso   1.00
C1025  C     0.31209   0.87441   0.74976   0.00000  Uiso   1.00
C1026  C     0.31201   0.79227   0.75006   0.00000  Uiso   1.00
C1027  C     0.02132   0.87440   0.74994   0.00000  Uiso   1.00
C1028  C     0.29084   0.83335   0.74986   0.00000  Uiso   1.00
H1029  H     0.10199   0.82986   0.88545   0.00000  Uiso   1.00
H1030  H     0.23134   0.83681   0.61455   0.00000  Uiso   1.00
H1031  H     0.06071   0.82707   0.53726   0.00000  Uiso   1.00
H1032  H     0.27262   0.83959   0.96274   0.00000  Uiso   1.00
H1033  H     0.03733   0.76022   0.75042   0.00000  Uiso   1.00
H1034  H     0.29600   0.90645   0.74958   0.00000  Uiso   1.00
H1035  H     0.29587   0.76023   0.75012   0.00000  Uiso   1.00
H1036  H     0.03746   0.90643   0.74988   0.00000  Uiso   1.00
N1037  N     0.16667   0.95240   0.75000   0.00000  Uiso   1.00
N1038  N     0.24326   0.93300   0.83135   0.00000  Uiso   1.00
N1039  N     0.16667   0.71427   0.75000   0.00000  Uiso   1.00
N1040  N     0.27562   0.83636   0.86331   0.00000  Uiso   1.00
N1041  N     0.05772   0.83031   0.63669   0.00000  Uiso   1.00
N1042  N     0.01994   0.82350   0.93163   0.00000  Uiso   1.00
N1043  N     0.31340   0.84317   0.56837   0.00000  Uiso   1.00
N1044  N     0.24297   0.73435   0.83154   0.00000  Uiso   1.00
N1045  N     0.09036   0.93232   0.66846   0.00000  Uiso   1.00
N1046  N     0.09007   0.73367   0.66865   0.00000  Uiso   1.00
O1047  O     0.10559   0.87154   0.74999   0.00000  Uiso   1.00
O1048  O     0.22774   0.79513   0.75001   0.00000  Uiso   1.00
O1049  O     0.22774   0.87154   0.75000   0.00000  Uiso   1.00
O1050  O     0.10559   0.79513   0.74999   0.00000  Uiso   1.00
O1051  O     0.16666   0.87156   0.68392   0.00000  Uiso   1.00
O1052  O     0.16667   0.79511   0.81607   0.00000  Uiso   1.00
O1053  O     0.16667   0.87156   0.81607   0.00000  Uiso   1.00
O1054  O     0.16666   0.79511   0.68393   0.00000  Uiso   1.00
Zn1055 Zn    0.16667   0.88437   0.75000   0.00000  Uiso   1.00
Zn1056 Zn    0.16667   0.78229   0.75000   0.00000  Uiso   1.00
C1057  C     0.42001   0.83332   0.75008   0.00000  Uiso   1.00
C1058  C     0.37583   0.83332   0.75014   0.00000  Uiso   1.00
C1059  C     0.52618   0.69078   0.77791   0.00000  Uiso   1.00
C1060  C     0.47382   0.97589   0.72209   0.00000  Uiso   1.00
C1061  C     0.47381   0.69060   0.72211   0.00000  Uiso   1.00
C1062  C     0.52619   0.97607   0.77789   0.00000  Uiso   1.00
C1063  C     0.49959   0.83332   0.66369   0.00000  Uiso   1.00
C1064  C     0.50041   0.83335   0.83631   0.00000  Uiso   1.00
C1065  C     0.53938   0.83498   0.90730   0.00000  Uiso   1.00
C1066  C     0.46062   0.83169   0.59270   0.00000  Uiso   1.00
C1067  C     0.50147   0.83332   0.88394   0.00000  Uiso   1.00
C1068  C     0.57999   0.83335   0.74992   0.00000  Uiso   1.00
C1069  C     0.49853   0.83335   0.61606   0.00000  Uiso   1.00
C1070  C     0.46367   0.83128   0.90549   0.00000  Uiso   1.00
C1071  C     0.53633   0.83538   0.59451   0.00000  Uiso   1.00
C1072  C     0.46240   0.83108   0.95196   0.00000  Uiso   1.00
C1073  C     0.53760   0.83559   0.54804   0.00000  Uiso   1.00
C1074  C     0.50035   0.83328   0.97655   0.00000  Uiso   1.00
C1075  C     0.49965   0.83338   0.52345   0.00000  Uiso   1.00
C1076  C     0.53899   0.83531   0.95421   0.00000  Uiso   1.00
C1077  C     0.46101   0.83136   0.54579   0.00000  Uiso   1.00
C1078  C     0.42419   0.82876   0.97435   0.00000  Uiso   1.00
C1079  C     0.42379   0.82897   0.52080   0.00000  Uiso   1.00
C1080  C     0.57581   0.83790   0.52565   0.00000  Uiso   1.00
C1081  C     0.57812   0.83579   0.88282   0.00000  Uiso   1.00
C1082  C     0.42188   0.83088   0.61718   0.00000  Uiso   1.00
C1083  C     0.38477   0.82587   0.95064   0.00000  Uiso   1.00
C1084  C     0.61523   0.84080   0.54936   0.00000  Uiso   1.00
C1085  C     0.55392   0.71515   0.80759   0.00000  Uiso   1.00
C1086  C     0.44608   0.95152   0.69241   0.00000  Uiso   1.00
C1087  C     0.44595   0.71473   0.69253   0.00000  Uiso   1.00
C1088  C     0.55405   0.95193   0.80747   0.00000  Uiso   1.00
C1089  C     0.57621   0.83770   0.97920   0.00000  Uiso   1.00
C1090  C     0.35458   0.79226   0.75024   0.00000  Uiso   1.00
C1091  C     0.64542   0.87441   0.74976   0.00000  Uiso   1.00
C1092  C     0.64535   0.79227   0.75006   0.00000  Uiso   1.00
C1093  C     0.35465   0.87440   0.74994   0.00000  Uiso   1.00
C1094  C     0.62417   0.83335   0.74986   0.00000  Uiso   1.00
H1095  H     0.43532   0.82986   0.88545   0.00000  Uiso   1.00
H1096  H     0.56467   0.83681   0.61455   0.00000  Uiso   1.00
H1097  H     0.39404   0.82707   0.53726   0.00000  Uiso   1.00
H1098  H     0.60596   0.83959   0.96274   0.00000  Uiso   1.00
H1099  H     0.37067   0.76022   0.75042   0.00000  Uiso   1.00
H1100  H     0.62933   0.90645   0.74958   0.00000  Uiso   1.00
H1101  H     0.62921   0.76023   0.75012   0.00000  Uiso   1.00
H1102  H     0.37079   0.90643   0.74988   0.00000  Uiso   1.00
N1103  N     0.50000   0.95240   0.75000   0.00000  Uiso   1.00
N1104  N     0.57659   0.93300   0.83135   0.00000  Uiso   1.00
N1105  N     0.50000   0.71427   0.75000   0.00000  Uiso   1.00
N1106  N     0.60895   0.83636   0.86331   0.00000  Uiso   1.00
N1107  N     0.39105   0.83031   0.63669   0.00000  Uiso   1.00
N1108  N     0.35327   0.82350   0.93163   0.00000  Uiso   1.00
N1109  N     0.64673   0.84317   0.56837   0.00000  Uiso   1.00
N1110  N     0.57631   0.73435   0.83154   0.00000  Uiso   1.00
N1111  N     0.42369   0.93232   0.66846   0.00000  Uiso   1.00
N1112  N     0.42341   0.73367   0.66865   0.00000  Uiso   1.00
O1113  O     0.43892   0.87154   0.74999   0.00000  Uiso   1.00
O1114  O     0.56108   0.79513   0.75001   0.00000  Uiso   1.00
O1115  O     0.56108   0.87154   0.75000   0.00000  Uiso   1.00
O1116  O     0.43892   0.79513   0.74999   0.00000  Uiso   1.00
O1117  O     0.49999   0.87156   0.68392   0.00000  Uiso   1.00
O1118  O     0.50001   0.79511   0.81607   0.00000  Uiso   1.00
O1119  O     0.50001   0.87156   0.81607   0.00000  Uiso   1.00
O1120  O     0.49999   0.79511   0.68393   0.00000  Uiso   1.00
Zn1121 Zn    0.50000   0.88437   0.75000   0.00000  Uiso   1.00
Zn1122 Zn    0.50000   0.78229   0.75000   0.00000  Uiso   1.00
C1123  C     0.75334   0.83332   0.75008   0.00000  Uiso   1.00
C1124  C     0.70916   0.83332   0.75014   0.00000  Uiso   1.00
C1125  C     0.85951   0.69078   0.77791   0.00000  Uiso   1.00
C1126  C     0.80715   0.97589   0.72209   0.00000  Uiso   1.00
C1127  C     0.80714   0.69060   0.72211   0.00000  Uiso   1.00
C1128  C     0.85953   0.97607   0.77789   0.00000  Uiso   1.00
C1129  C     0.83292   0.83332   0.66369   0.00000  Uiso   1.00
C1130  C     0.83374   0.83335   0.83631   0.00000  Uiso   1.00
C1131  C     0.87271   0.83498   0.90730   0.00000  Uiso   1.00
C1132  C     0.79395   0.83169   0.59270   0.00000  Uiso   1.00
C1133  C     0.83480   0.83332   0.88394   0.00000  Uiso   1.00
C1134  C     0.91332   0.83335   0.74992   0.00000  Uiso   1.00
C1135  C     0.83187   0.83335   0.61606   0.00000  Uiso   1.00
C1136  C     0.79700   0.83128   0.90549   0.00000  Uiso   1.00
C1137  C     0.86966   0.83538   0.59451   0.00000  Uiso   1.00
C1138  C     0.79573   0.83108   0.95196   0.00000  Uiso   1.00
C1139  C     0.87093   0.83559   0.54804   0.00000  Uiso   1.00
C1140  C     0.83368   0.83328   0.97655   0.00000  Uiso   1.00
C1141  C     0.83299   0.83338   0.52345   0.00000  Uiso   1.00
C1142  C     0.87233   0.83531   0.95421   0.00000  Uiso   1.00
C1143  C     0.79434   0.83136   0.54579   0.00000  Uiso   1.00
C1144  C     0.75752   0.82876   0.97435   0.00000  Uiso   1.00
C1145  C     0.75712   0.82897   0.52080   0.00000  Uiso   1.00
C1146  C     0.90915   0.83790   0.52565   0.00000  Uiso   1.00
C1147  C     0.91145   0.83579   0.88282   0.00000  Uiso   1.00
C1148  C     0.75522   0.83088   0.61718   0.00000  Uiso   1.00
C1149  C     0.71810   0.82587   0.95064   0.00000  Uiso   1.00
C1150  C     0.94856   0.84080   0.54936   0.00000  Uiso   1.00
C1151  C     0.88726   0.71515   0.80759   0.00000  Uiso   1.00
C1152  C     0.77941   0.95152   0.69241   0.00000  Uiso   1.00
C1153  C     0.77928   0.71473   0.69253   0.00000  Uiso   1.00
C1154  C     0.88739   0.95193   0.80747   0.00000  Uiso   1.00
C1155  C     0.90955   0.83770   0.97920   0.00000  Uiso   1.00
C1156  C     0.68791   0.79226   0.75024   0.00000  Uiso   1.00
C1157  C     0.97875   0.87441   0.74976   0.00000  Uiso   1.00
C1158  C     0.97868   0.79227   0.75006   0.00000  Uiso   1.00
C1159  C     0.68798   0.87440   0.74994   0.00000  Uiso   1.00
C1160  C     0.95751   0.83335   0.74986   0.00000  Uiso   1.00
H1161  H     0.76866   0.82986   0.88545   0.00000  Uiso   1.00
H1162  H     0.89801   0.83681   0.61455   0.00000  Uiso   1.00
H1163  H     0.72738   0.82707   0.53726   0.00000  Uiso   1.00
H1164  H     0.93929   0.83959   0.96274   0.00000  Uiso   1.00
H1165  H     0.70400   0.76022   0.75042   0.00000  Uiso   1.00
H1166  H     0.96267   0.90645   0.74958   0.00000  Uiso   1.00
H1167  H     0.96254   0.76023   0.75012   0.00000  Uiso   1.00
H1168  H     0.70413   0.90643   0.74988   0.00000  Uiso   1.00
N1169  N     0.83333   0.95240   0.75000   0.00000  Uiso   1.00
N1170  N     0.90993   0.93300   0.83135   0.00000  Uiso   1.00
N1171  N     0.83333   0.71427   0.75000   0.00000  Uiso   1.00
N1172  N     0.94228   0.83636   0.86331   0.00000  Uiso   1.00
N1173  N     0.72438   0.83031   0.63669   0.00000  Uiso   1.00
N1174  N     0.68660   0.82350   0.93163   0.00000  Uiso   1.00
N1175  N     0.98006   0.84317   0.56837   0.00000  Uiso   1.00
N1176  N     0.90964   0.73435   0.83154   0.00000  Uiso   1.00
N1177  N     0.75703   0.93232   0.66846   0.00000  Uiso   1.00
N1178  N     0.75674   0.73367   0.66865   0.00000  Uiso   1.00
O1179  O     0.77226   0.87154   0.74999   0.00000  Uiso   1.00
O1180  O     0.89441   0.79513   0.75001   0.00000  Uiso   1.00
O1181  O     0.89441   0.87154   0.75000   0.00000  Uiso   1.00
O1182  O     0.77226   0.79513   0.74999   0.00000  Uiso   1.00
O1183  O     0.83333   0.87156   0.68392   0.00000  Uiso   1.00
O1184  O     0.83334   0.79511   0.81607   0.00000  Uiso   1.00
O1185  O     0.83334   0.87156   0.81607   0.00000  Uiso   1.00
O1186  O     0.83333   0.79511   0.68393   0.00000  Uiso   1.00
Zn1187 Zn    0.83333   0.88437   0.75000   0.00000  Uiso   1.00
Zn1188 Zn    0.83333   0.78229   0.75000   0.00000  Uiso   1.00
loop_
_geom_bond_atom_site_label_1
_geom_bond_atom_site_label_2
_geom_bond_distance
_geom_bond_site_symmetry_2
_ccdc_geom_bond_type
C1     O57     1.287   .     A
C1     C2      1.422   .     S
C1     O60     1.288   .     A
C2     C34     1.397   .     A
C2     C37     1.398   .     A
C3     N49     1.369   .     A
C3     C29     1.443   .     S
C3     C402    1.426   1_545 S
C4     N47     1.369   .     A
C4     C30     1.443   .     S
C4     C203    1.426   .     S
C5     N49     1.370   .     A
C5     C31     1.442   .     S
C5     C400    1.426   1_545 S
C6     C32     1.442   .     S
C6     N47     1.370   .     A
C6     C201    1.426   .     S
C7     O64     1.286   .     A
C7     C13     1.422   .     S
C7     O61     1.285   .     A
C8     C11     1.422   .     S
C8     O63     1.286   .     A
C8     O62     1.285   .     A
C9     C11     1.398   .     A
C9     C20     1.401   .     A
C9     C25     1.453   .     S
C10    C26     1.453   .     S
C10    C21     1.401   .     A
C10    C13     1.398   .     A
C11    C14     1.385   .     A
C12    O58     1.287   .     A
C12    C38     1.422   .     S
C12    O59     1.288   .     A
C13    C15     1.385   .     A
C14    C16     1.388   .     A
C14    H39     1.085   .     S
C15    H40     1.085   .     S
C15    C17     1.388   .     A
C16    C18     1.418   .     A
C16    C22     1.409   .     A
C17    C24     1.409   .     A
C17    C19     1.418   .     A
C18    C20     1.420   .     A
C18    C613    1.401   .     S
C19    C21     1.420   .     A
C19    C612    1.401   1_554 S
C20    C33     1.404   .     A
C21    C23     1.404   .     A
C22    C27     1.447   .     S
C22    C617    1.387   .     S
C23    H41     1.083   .     S
C23    C616    1.387   1_554 S
C24    C28     1.447   .     S
C24    C627    1.387   1_554 S
C25    N50     1.157   .     T
C26    N51     1.157   .     T
C27    N52     1.157   .     T
C28    N53     1.157   .     T
C29    N54     1.157   .     T
C30    N55     1.157   .     T
C31    N56     1.157   .     T
C32    N48     1.157   .     T
C33    H42     1.083   .     S
C33    C618    1.387   .     S
C34    H43     1.083   .     S
C34    C168    1.369   1_455 S
C35    H44     1.083   .     S
C35    C38     1.397   .     A
C35    C103    1.369   .     S
C36    C38     1.398   .     A
C36    H45     1.083   .     S
C36    C100    1.369   .     S
C37    H46     1.083   .     S
C37    C167    1.369   1_455 S
N47    Zn65    2.020   .     S
N49    Zn66    2.020   .     S
O57    Zn65    2.001   .     S
O58    Zn66    2.001   .     S
O59    Zn65    2.002   .     S
O60    Zn66    2.002   .     S
O61    Zn65    2.008   .     S
O62    Zn66    2.008   .     S
O63    Zn65    2.010   .     S
O64    Zn66    2.010   .     S
C67    O123    1.287   .     A
C67    C68     1.422   .     S
C67    O126    1.288   .     A
C68    C100    1.397   .     A
C68    C103    1.398   .     A
C69    N115    1.369   .     A
C69    C95     1.443   .     S
C69    C468    1.426   1_545 S
C70    N113    1.369   .     A
C70    C96     1.443   .     S
C70    C269    1.426   .     S
C71    N115    1.370   .     A
C71    C97     1.442   .     S
C71    C466    1.426   1_545 S
C72    C98     1.442   .     S
C72    N113    1.370   .     A
C72    C267    1.426   .     S
C73    O130    1.286   .     A
C73    C79     1.422   .     S
C73    O127    1.285   .     A
C74    C77     1.422   .     S
C74    O129    1.286   .     A
C74    O128    1.285   .     A
C75    C77     1.398   .     A
C75    C86     1.401   .     A
C75    C91     1.453   .     S
C76    C92     1.453   .     S
C76    C87     1.401   .     A
C76    C79     1.398   .     A
C77    C80     1.385   .     A
C78    O124    1.287   .     A
C78    C104    1.422   .     S
C78    O125    1.288   .     A
C79    C81     1.385   .     A
C80    C82     1.388   .     A
C80    H105    1.085   .     S
C81    H106    1.085   .     S
C81    C83     1.388   .     A
C82    C84     1.418   .     A
C82    C88     1.409   .     A
C83    C90     1.409   .     A
C83    C85     1.418   .     A
C84    C86     1.420   .     A
C84    C679    1.401   .     S
C85    C87     1.420   .     A
C85    C678    1.401   1_554 S
C86    C99     1.404   .     A
C87    C89     1.404   .     A
C88    C93     1.447   .     S
C88    C683    1.387   .     S
C89    H107    1.083   .     S
C89    C682    1.387   1_554 S
C90    C94     1.447   .     S
C90    C693    1.387   1_554 S
C91    N116    1.157   .     T
C92    N117    1.157   .     T
C93    N118    1.157   .     T
C94    N119    1.157   .     T
C95    N120    1.157   .     T
C96    N121    1.157   .     T
C97    N122    1.157   .     T
C98    N114    1.157   .     T
C99    H108    1.083   .     S
C99    C684    1.387   .     S
C100   H109    1.083   .     S
C101   H110    1.083   .     S
C101   C104    1.397   .     A
C101   C169    1.369   .     S
C102   C104    1.398   .     A
C102   H111    1.083   .     S
C102   C166    1.369   .     S
C103   H112    1.083   .     S
N113   Zn131   2.020   .     S
N115   Zn132   2.020   .     S
O123   Zn131   2.001   .     S
O124   Zn132   2.001   .     S
O125   Zn131   2.002   .     S
O126   Zn132   2.002   .     S
O127   Zn131   2.008   .     S
O128   Zn132   2.008   .     S
O129   Zn131   2.010   .     S
O130   Zn132   2.010   .     S
C133   O189    1.287   .     A
C133   C134    1.422   .     S
C133   O192    1.288   .     A
C134   C166    1.397   .     A
C134   C169    1.398   .     A
C135   N181    1.369   .     A
C135   C161    1.443   .     S
C135   C534    1.426   1_545 S
C136   N179    1.369   .     A
C136   C162    1.443   .     S
C136   C335    1.426   .     S
C137   N181    1.370   .     A
C137   C163    1.442   .     S
C137   C532    1.426   1_545 S
C138   C164    1.442   .     S
C138   N179    1.370   .     A
C138   C333    1.426   .     S
C139   O196    1.286   .     A
C139   C145    1.422   .     S
C139   O193    1.285   .     A
C140   C143    1.422   .     S
C140   O195    1.286   .     A
C140   O194    1.285   .     A
C141   C143    1.398   .     A
C141   C152    1.401   .     A
C141   C157    1.453   .     S
C142   C158    1.453   .     S
C142   C153    1.401   .     A
C142   C145    1.398   .     A
C143   C146    1.385   .     A
C144   O190    1.287   .     A
C144   C170    1.422   .     S
C144   O191    1.288   .     A
C145   C147    1.385   .     A
C146   C148    1.388   .     A
C146   H171    1.085   .     S
C147   H172    1.085   .     S
C147   C149    1.388   .     A
C148   C150    1.418   .     A
C148   C154    1.409   .     A
C149   C156    1.409   .     A
C149   C151    1.418   .     A
C150   C152    1.420   .     A
C150   C745    1.401   .     S
C151   C153    1.420   .     A
C151   C744    1.401   1_554 S
C152   C165    1.404   .     A
C153   C155    1.404   .     A
C154   C159    1.447   .     S
C154   C749    1.387   .     S
C155   H173    1.083   .     S
C155   C748    1.387   1_554 S
C156   C160    1.447   .     S
C156   C759    1.387   1_554 S
C157   N182    1.157   .     T
C158   N183    1.157   .     T
C159   N184    1.157   .     T
C160   N185    1.157   .     T
C161   N186    1.157   .     T
C162   N187    1.157   .     T
C163   N188    1.157   .     T
C164   N180    1.157   .     T
C165   H174    1.083   .     S
C165   C750    1.387   .     S
C166   H175    1.083   .     S
C167   H176    1.083   .     S
C167   C170    1.397   .     A
C167   C37     1.369   1_655 S
C168   C170    1.398   .     A
C168   H177    1.083   .     S
C168   C34     1.369   1_655 S
C169   H178    1.083   .     S
N179   Zn197   2.020   .     S
N181   Zn198   2.020   .     S
O189   Zn197   2.001   .     S
O190   Zn198   2.001   .     S
O191   Zn197   2.002   .     S
O192   Zn198   2.002   .     S
O193   Zn197   2.008   .     S
O194   Zn198   2.008   .     S
O195   Zn197   2.010   .     S
O196   Zn198   2.010   .     S
C199   O255    1.287   .     A
C199   C200    1.422   .     S
C199   O258    1.288   .     A
C200   C232    1.397   .     A
C200   C235    1.398   .     A
C201   N247    1.369   .     A
C201   C227    1.443   .     S
C202   N245    1.369   .     A
C202   C228    1.443   .     S
C202   C401    1.426   .     S
C203   N247    1.370   .     A
C203   C229    1.442   .     S
C204   C230    1.442   .     S
C204   N245    1.370   .     A
C204   C399    1.426   .     S
C205   O262    1.286   .     A
C205   C211    1.422   .     S
C205   O259    1.285   .     A
C206   C209    1.422   .     S
C206   O261    1.286   .     A
C206   O260    1.285   .     A
C207   C209    1.398   .     A
C207   C218    1.401   .     A
C207   C223    1.453   .     S
C208   C224    1.453   .     S
C208   C219    1.401   .     A
C208   C211    1.398   .     A
C209   C212    1.385   .     A
C210   O256    1.287   .     A
C210   C236    1.422   .     S
C210   O257    1.288   .     A
C211   C213    1.385   .     A
C212   C214    1.388   .     A
C212   H237    1.085   .     S
C213   H238    1.085   .     S
C213   C215    1.388   .     A
C214   C216    1.418   .     A
C214   C220    1.409   .     A
C215   C222    1.409   .     A
C215   C217    1.418   .     A
C216   C218    1.420   .     A
C216   C811    1.401   .     S
C217   C219    1.420   .     A
C217   C810    1.401   1_554 S
C218   C231    1.404   .     A
C219   C221    1.404   .     A
C220   C225    1.447   .     S
C220   C815    1.387   .     S
C221   H239    1.083   .     S
C221   C814    1.387   1_554 S
C222   C226    1.447   .     S
C222   C825    1.387   1_554 S
C223   N248    1.157   .     T
C224   N249    1.157   .     T
C225   N250    1.157   .     T
C226   N251    1.157   .     T
C227   N252    1.157   .     T
C228   N253    1.157   .     T
C229   N254    1.157   .     T
C230   N246    1.157   .     T
C231   H240    1.083   .     S
C231   C816    1.387   .     S
C232   H241    1.083   .     S
C232   C366    1.369   1_455 S
C233   H242    1.083   .     S
C233   C236    1.397   .     A
C233   C301    1.369   .     S
C234   C236    1.398   .     A
C234   H243    1.083   .     S
C234   C298    1.369   .     S
C235   H244    1.083   .     S
C235   C365    1.369   1_455 S
N245   Zn263   2.020   .     S
N247   Zn264   2.020   .     S
O255   Zn263   2.001   .     S
O256   Zn264   2.001   .     S
O257   Zn263   2.002   .     S
O258   Zn264   2.002   .     S
O259   Zn263   2.008   .     S
O260   Zn264   2.008   .     S
O261   Zn263   2.010   .     S
O262   Zn264   2.010   .     S
C265   O321    1.287   .     A
C265   C266    1.422   .     S
C265   O324    1.288   .     A
C266   C298    1.397   .     A
C266   C301    1.398   .     A
C267   N313    1.369   .     A
C267   C293    1.443   .     S
C268   N311    1.369   .     A
C268   C294    1.443   .     S
C268   C467    1.426   .     S
C269   N313    1.370   .     A
C269   C295    1.442   .     S
C270   C296    1.442   .     S
C270   N311    1.370   .     A
C270   C465    1.426   .     S
C271   O328    1.286   .     A
C271   C277    1.422   .     S
C271   O325    1.285   .     A
C272   C275    1.422   .     S
C272   O327    1.286   .     A
C272   O326    1.285   .     A
C273   C275    1.398   .     A
C273   C284    1.401   .     A
C273   C289    1.453   .     S
C274   C290    1.453   .     S
C274   C285    1.401   .     A
C274   C277    1.398   .     A
C275   C278    1.385   .     A
C276   O322    1.287   .     A
C276   C302    1.422   .     S
C276   O323    1.288   .     A
C277   C279    1.385   .     A
C278   C280    1.388   .     A
C278   H303    1.085   .     S
C279   H304    1.085   .     S
C279   C281    1.388   .     A
C280   C282    1.418   .     A
C280   C286    1.409   .     A
C281   C288    1.409   .     A
C281   C283    1.418   .     A
C282   C284    1.420   .     A
C282   C877    1.401   .     S
C283   C285    1.420   .     A
C283   C876    1.401   1_554 S
C284   C297    1.404   .     A
C285   C287    1.404   .     A
C286   C291    1.447   .     S
C286   C881    1.387   .     S
C287   H305    1.083   .     S
C287   C880    1.387   1_554 S
C288   C292    1.447   .     S
C288   C891    1.387   1_554 S
C289   N314    1.157   .     T
C290   N315    1.157   .     T
C291   N316    1.157   .     T
C292   N317    1.157   .     T
C293   N318    1.157   .     T
C294   N319    1.157   .     T
C295   N320    1.157   .     T
C296   N312    1.157   .     T
C297   H306    1.083   .     S
C297   C882    1.387   .     S
C298   H307    1.083   .     S
C299   H308    1.083   .     S
C299   C302    1.397   .     A
C299   C367    1.369   .     S
C300   C302    1.398   .     A
C300   H309    1.083   .     S
C300   C364    1.369   .     S
C301   H310    1.083   .     S
N311   Zn329   2.020   .     S
N313   Zn330   2.020   .     S
O321   Zn329   2.001   .     S
O322   Zn330   2.001   .     S
O323   Zn329   2.002   .     S
O324   Zn330   2.002   .     S
O325   Zn329   2.008   .     S
O326   Zn330   2.008   .     S
O327   Zn329   2.010   .     S
O328   Zn330   2.010   .     S
C331   O387    1.287   .     A
C331   C332    1.422   .     S
C331   O390    1.288   .     A
C332   C364    1.397   .     A
C332   C367    1.398   .     A
C333   N379    1.369   .     A
C333   C359    1.443   .     S
C334   N377    1.369   .     A
C334   C360    1.443   .     S
C334   C533    1.426   .     S
C335   N379    1.370   .     A
C335   C361    1.442   .     S
C336   C362    1.442   .     S
C336   N377    1.370   .     A
C336   C531    1.426   .     S
C337   O394    1.286   .     A
C337   C343    1.422   .     S
C337   O391    1.285   .     A
C338   C341    1.422   .     S
C338   O393    1.286   .     A
C338   O392    1.285   .     A
C339   C341    1.398   .     A
C339   C350    1.401   .     A
C339   C355    1.453   .     S
C340   C356    1.453   .     S
C340   C351    1.401   .     A
C340   C343    1.398   .     A
C341   C344    1.385   .     A
C342   O388    1.287   .     A
C342   C368    1.422   .     S
C342   O389    1.288   .     A
C343   C345    1.385   .     A
C344   C346    1.388   .     A
C344   H369    1.085   .     S
C345   H370    1.085   .     S
C345   C347    1.388   .     A
C346   C348    1.418   .     A
C346   C352    1.409   .     A
C347   C354    1.409   .     A
C347   C349    1.418   .     A
C348   C350    1.420   .     A
C348   C943    1.401   .     S
C349   C351    1.420   .     A
C349   C942    1.401   1_554 S
C350   C363    1.404   .     A
C351   C353    1.404   .     A
C352   C357    1.447   .     S
C352   C947    1.387   .     S
C353   H371    1.083   .     S
C353   C946    1.387   1_554 S
C354   C358    1.447   .     S
C354   C957    1.387   1_554 S
C355   N380    1.157   .     T
C356   N381    1.157   .     T
C357   N382    1.157   .     T
C358   N383    1.157   .     T
C359   N384    1.157   .     T
C360   N385    1.157   .     T
C361   N386    1.157   .     T
C362   N378    1.157   .     T
C363   H372    1.083   .     S
C363   C948    1.387   .     S
C364   H373    1.083   .     S
C365   H374    1.083   .     S
C365   C368    1.397   .     A
C365   C235    1.369   1_655 S
C366   C368    1.398   .     A
C366   H375    1.083   .     S
C366   C232    1.369   1_655 S
C367   H376    1.083   .     S
N377   Zn395   2.020   .     S
N379   Zn396   2.020   .     S
O387   Zn395   2.001   .     S
O388   Zn396   2.001   .     S
O389   Zn395   2.002   .     S
O390   Zn396   2.002   .     S
O391   Zn395   2.008   .     S
O392   Zn396   2.008   .     S
O393   Zn395   2.010   .     S
O394   Zn396   2.010   .     S
C397   O453    1.287   .     A
C397   C398    1.422   .     S
C397   O456    1.288   .     A
C398   C430    1.397   .     A
C398   C433    1.398   .     A
C399   N445    1.369   .     A
C399   C425    1.443   .     S
C400   N443    1.369   .     A
C400   C426    1.443   .     S
C400   C5      1.426   1_565 S
C401   N445    1.370   .     A
C401   C427    1.442   .     S
C402   C428    1.442   .     S
C402   N443    1.370   .     A
C402   C3      1.426   1_565 S
C403   O460    1.286   .     A
C403   C409    1.422   .     S
C403   O457    1.285   .     A
C404   C407    1.422   .     S
C404   O459    1.286   .     A
C404   O458    1.285   .     A
C405   C407    1.398   .     A
C405   C416    1.401   .     A
C405   C421    1.453   .     S
C406   C422    1.453   .     S
C406   C417    1.401   .     A
C406   C409    1.398   .     A
C407   C410    1.385   .     A
C408   O454    1.287   .     A
C408   C434    1.422   .     S
C408   O455    1.288   .     A
C409   C411    1.385   .     A
C410   C412    1.388   .     A
C410   H435    1.085   .     S
C411   H436    1.085   .     S
C411   C413    1.388   .     A
C412   C414    1.418   .     A
C412   C418    1.409   .     A
C413   C420    1.409   .     A
C413   C415    1.418   .     A
C414   C416    1.420   .     A
C414   C1009   1.401   .     S
C415   C417    1.420   .     A
C415   C1008   1.401   1_554 S
C416   C429    1.404   .     A
C417   C419    1.404   .     A
C418   C423    1.447   .     S
C418   C1013   1.387   .     S
C419   H437    1.083   .     S
C419   C1012   1.387   1_554 S
C420   C424    1.447   .     S
C420   C1023   1.387   1_554 S
C421   N446    1.157   .     T
C422   N447    1.157   .     T
C423   N448    1.157   .     T
C424   N449    1.157   .     T
C425   N450    1.157   .     T
C426   N451    1.157   .     T
C427   N452    1.157   .     T
C428   N444    1.157   .     T
C429   H438    1.083   .     S
C429   C1014   1.387   .     S
C430   H439    1.083   .     S
C430   C564    1.369   1_455 S
C431   H440    1.083   .     S
C431   C434    1.397   .     A
C431   C499    1.369   .     S
C432   C434    1.398   .     A
C432   H441    1.083   .     S
C432   C496    1.369   .     S
C433   H442    1.083   .     S
C433   C563    1.369   1_455 S
N443   Zn461   2.020   .     S
N445   Zn462   2.020   .     S
O453   Zn461   2.001   .     S
O454   Zn462   2.001   .     S
O455   Zn461   2.002   .     S
O456   Zn462   2.002   .     S
O457   Zn461   2.008   .     S
O458   Zn462   2.008   .     S
O459   Zn461   2.010   .     S
O460   Zn462   2.010   .     S
C463   O519    1.287   .     A
C463   C464    1.422   .     S
C463   O522    1.288   .     A
C464   C496    1.397   .     A
C464   C499    1.398   .     A
C465   N511    1.369   .     A
C465   C491    1.443   .     S
C466   N509    1.369   .     A
C466   C492    1.443   .     S
C466   C71     1.426   1_565 S
C467   N511    1.370   .     A
C467   C493    1.442   .     S
C468   C494    1.442   .     S
C468   N509    1.370   .     A
C468   C69     1.426   1_565 S
C469   O526    1.286   .     A
C469   C475    1.422   .     S
C469   O523    1.285   .     A
C470   C473    1.422   .     S
C470   O525    1.286   .     A
C470   O524    1.285   .     A
C471   C473    1.398   .     A
C471   C482    1.401   .     A
C471   C487    1.453   .     S
C472   C488    1.453   .     S
C472   C483    1.401   .     A
C472   C475    1.398   .     A
C473   C476    1.385   .     A
C474   O520    1.287   .     A
C474   C500    1.422   .     S
C474   O521    1.288   .     A
C475   C477    1.385   .     A
C476   C478    1.388   .     A
C476   H501    1.085   .     S
C477   H502    1.085   .     S
C477   C479    1.388   .     A
C478   C480    1.418   .     A
C478   C484    1.409   .     A
C479   C486    1.409   .     A
C479   C481    1.418   .     A
C480   C482    1.420   .     A
C480   C1075   1.401   .     S
C481   C483    1.420   .     A
C481   C1074   1.401   1_554 S
C482   C495    1.404   .     A
C483   C485    1.404   .     A
C484   C489    1.447   .     S
C484   C1079   1.387   .     S
C485   H503    1.083   .     S
C485   C1078   1.387   1_554 S
C486   C490    1.447   .     S
C486   C1089   1.387   1_554 S
C487   N512    1.157   .     T
C488   N513    1.157   .     T
C489   N514    1.157   .     T
C490   N515    1.157   .     T
C491   N516    1.157   .     T
C492   N517    1.157   .     T
C493   N518    1.157   .     T
C494   N510    1.157   .     T
C495   H504    1.083   .     S
C495   C1080   1.387   .     S
C496   H505    1.083   .     S
C497   H506    1.083   .     S
C497   C500    1.397   .     A
C497   C565    1.369   .     S
C498   C500    1.398   .     A
C498   H507    1.083   .     S
C498   C562    1.369   .     S
C499   H508    1.083   .     S
N509   Zn527   2.020   .     S
N511   Zn528   2.020   .     S
O519   Zn527   2.001   .     S
O520   Zn528   2.001   .     S
O521   Zn527   2.002   .     S
O522   Zn528   2.002   .     S
O523   Zn527   2.008   .     S
O524   Zn528   2.008   .     S
O525   Zn527   2.010   .     S
O526   Zn528   2.010   .     S
C529   O585    1.287   .     A
C529   C530    1.422   .     S
C529   O588    1.288   .     A
C530   C562    1.397   .     A
C530   C565    1.398   .     A
C531   N577    1.369   .     A
C531   C557    1.443   .     S
C532   N575    1.369   .     A
C532   C558    1.443   .     S
C532   C137    1.426   1_565 S
C533   N577    1.370   .     A
C533   C559    1.442   .     S
C534   C560    1.442   .     S
C534   N575    1.370   .     A
C534   C135    1.426   1_565 S
C535   O592    1.286   .     A
C535   C541    1.422   .     S
C535   O589    1.285   .     A
C536   C539    1.422   .     S
C536   O591    1.286   .     A
C536   O590    1.285   .     A
C537   C539    1.398   .     A
C537   C548    1.401   .     A
C537   C553    1.453   .     S
C538   C554    1.453   .     S
C538   C549    1.401   .     A
C538   C541    1.398   .     A
C539   C542    1.385   .     A
C540   O586    1.287   .     A
C540   C566    1.422   .     S
C540   O587    1.288   .     A
C541   C543    1.385   .     A
C542   C544    1.388   .     A
C542   H567    1.085   .     S
C543   H568    1.085   .     S
C543   C545    1.388   .     A
C544   C546    1.418   .     A
C544   C550    1.409   .     A
C545   C552    1.409   .     A
C545   C547    1.418   .     A
C546   C548    1.420   .     A
C546   C1141   1.401   .     S
C547   C549    1.420   .     A
C547   C1140   1.401   1_554 S
C548   C561    1.404   .     A
C549   C551    1.404   .     A
C550   C555    1.447   .     S
C550   C1145   1.387   .     S
C551   H569    1.083   .     S
C551   C1144   1.387   1_554 S
C552   C556    1.447   .     S
C552   C1155   1.387   1_554 S
C553   N578    1.157   .     T
C554   N579    1.157   .     T
C555   N580    1.157   .     T
C556   N581    1.157   .     T
C557   N582    1.157   .     T
C558   N583    1.157   .     T
C559   N584    1.157   .     T
C560   N576    1.157   .     T
C561   H570    1.083   .     S
C561   C1146   1.387   .     S
C562   H571    1.083   .     S
C563   H572    1.083   .     S
C563   C566    1.397   .     A
C563   C433    1.369   1_655 S
C564   C566    1.398   .     A
C564   H573    1.083   .     S
C564   C430    1.369   1_655 S
C565   H574    1.083   .     S
N575   Zn593   2.020   .     S
N577   Zn594   2.020   .     S
O585   Zn593   2.001   .     S
O586   Zn594   2.001   .     S
O587   Zn593   2.002   .     S
O588   Zn594   2.002   .     S
O589   Zn593   2.008   .     S
O590   Zn594   2.008   .     S
O591   Zn593   2.010   .     S
O592   Zn594   2.010   .     S
C595   O651    1.287   .     A
C595   C596    1.422   .     S
C595   O654    1.288   .     A
C596   C628    1.397   .     A
C596   C631    1.398   .     A
C597   N643    1.369   .     A
C597   C623    1.443   .     S
C597   C996    1.426   1_545 S
C598   N641    1.369   .     A
C598   C624    1.443   .     S
C598   C797    1.426   .     S
C599   N643    1.370   .     A
C599   C625    1.442   .     S
C599   C994    1.426   1_545 S
C600   C626    1.442   .     S
C600   N641    1.370   .     A
C600   C795    1.426   .     S
C601   O658    1.286   .     A
C601   C607    1.422   .     S
C601   O655    1.285   .     A
C602   C605    1.422   .     S
C602   O657    1.286   .     A
C602   O656    1.285   .     A
C603   C605    1.398   .     A
C603   C614    1.401   .     A
C603   C619    1.453   .     S
C604   C620    1.453   .     S
C604   C615    1.401   .     A
C604   C607    1.398   .     A
C605   C608    1.385   .     A
C606   O652    1.287   .     A
C606   C632    1.422   .     S
C606   O653    1.288   .     A
C607   C609    1.385   .     A
C608   C610    1.388   .     A
C608   H633    1.085   .     S
C609   H634    1.085   .     S
C609   C611    1.388   .     A
C610   C612    1.418   .     A
C610   C616    1.409   .     A
C611   C618    1.409   .     A
C611   C613    1.418   .     A
C612   C614    1.420   .     A
C612   C19     1.401   1_556 S
C613   C615    1.420   .     A
C614   C627    1.404   .     A
C615   C617    1.404   .     A
C616   C621    1.447   .     S
C616   C23     1.387   1_556 S
C617   H635    1.083   .     S
C618   C622    1.447   .     S
C619   N644    1.157   .     T
C620   N645    1.157   .     T
C621   N646    1.157   .     T
C622   N647    1.157   .     T
C623   N648    1.157   .     T
C624   N649    1.157   .     T
C625   N650    1.157   .     T
C626   N642    1.157   .     T
C627   H636    1.083   .     S
C627   C24     1.387   1_556 S
C628   H637    1.083   .     S
C628   C762    1.369   1_455 S
C629   H638    1.083   .     S
C629   C632    1.397   .     A
C629   C697    1.369   .     S
C630   C632    1.398   .     A
C630   H639    1.083   .     S
C630   C694    1.369   .     S
C631   H640    1.083   .     S
C631   C761    1.369   1_455 S
N641   Zn659   2.020   .     S
N643   Zn660   2.020   .     S
O651   Zn659   2.001   .     S
O652   Zn660   2.001   .     S
O653   Zn659   2.002   .     S
O654   Zn660   2.002   .     S
O655   Zn659   2.008   .     S
O656   Zn660   2.008   .     S
O657   Zn659   2.010   .     S
O658   Zn660   2.010   .     S
C661   O717    1.287   .     A
C661   C662    1.422   .     S
C661   O720    1.288   .     A
C662   C694    1.397   .     A
C662   C697    1.398   .     A
C663   N709    1.369   .     A
C663   C689    1.443   .     S
C663   C1062   1.426   1_545 S
C664   N707    1.369   .     A
C664   C690    1.443   .     S
C664   C863    1.426   .     S
C665   N709    1.370   .     A
C665   C691    1.442   .     S
C665   C1060   1.426   1_545 S
C666   C692    1.442   .     S
C666   N707    1.370   .     A
C666   C861    1.426   .     S
C667   O724    1.286   .     A
C667   C673    1.422   .     S
C667   O721    1.285   .     A
C668   C671    1.422   .     S
C668   O723    1.286   .     A
C668   O722    1.285   .     A
C669   C671    1.398   .     A
C669   C680    1.401   .     A
C669   C685    1.453   .     S
C670   C686    1.453   .     S
C670   C681    1.401   .     A
C670   C673    1.398   .     A
C671   C674    1.385   .     A
C672   O718    1.287   .     A
C672   C698    1.422   .     S
C672   O719    1.288   .     A
C673   C675    1.385   .     A
C674   C676    1.388   .     A
C674   H699    1.085   .     S
C675   H700    1.085   .     S
C675   C677    1.388   .     A
C676   C678    1.418   .     A
C676   C682    1.409   .     A
C677   C684    1.409   .     A
C677   C679    1.418   .     A
C678   C680    1.420   .     A
C678   C85     1.401   1_556 S
C679   C681    1.420   .     A
C680   C693    1.404   .     A
C681   C683    1.404   .     A
C682   C687    1.447   .     S
C682   C89     1.387   1_556 S
C683   H701    1.083   .     S
C684   C688    1.447   .     S
C685   N710    1.157   .     T
C686   N711    1.157   .     T
C687   N712    1.157   .     T
C688   N713    1.157   .     T
C689   N714    1.157   .     T
C690   N715    1.157   .     T
C691   N716    1.157   .     T
C692   N708    1.157   .     T
C693   H702    1.083   .     S
C693   C90     1.387   1_556 S
C694   H703    1.083   .     S
C695   H704    1.083   .     S
C695   C698    1.397   .     A
C695   C763    1.369   .     S
C696   C698    1.398   .     A
C696   H705    1.083   .     S
C696   C760    1.369   .     S
C697   H706    1.083   .     S
N707   Zn725   2.020   .     S
N709   Zn726   2.020   .     S
O717   Zn725   2.001   .     S
O718   Zn726   2.001   .     S
O719   Zn725   2.002   .     S
O720   Zn726   2.002   .     S
O721   Zn725   2.008   .     S
O722   Zn726   2.008   .     S
O723   Zn725   2.010   .     S
O724   Zn726   2.010   .     S
C727   O783    1.287   .     A
C727   C728    1.422   .     S
C727   O786    1.288   .     A
C728   C760    1.397   .     A
C728   C763    1.398   .     A
C729   N775    1.369   .     A
C729   C755    1.443   .     S
C729   C1128   1.426   1_545 S
C730   N773    1.369   .     A
C730   C756    1.443   .     S
C730   C929    1.426   .     S
C731   N775    1.370   .     A
C731   C757    1.442   .     S
C731   C1126   1.426   1_545 S
C732   C758    1.442   .     S
C732   N773    1.370   .     A
C732   C927    1.426   .     S
C733   O790    1.286   .     A
C733   C739    1.422   .     S
C733   O787    1.285   .     A
C734   C737    1.422   .     S
C734   O789    1.286   .     A
C734   O788    1.285   .     A
C735   C737    1.398   .     A
C735   C746    1.401   .     A
C735   C751    1.453   .     S
C736   C752    1.453   .     S
C736   C747    1.401   .     A
C736   C739    1.398   .     A
C737   C740    1.385   .     A
C738   O784    1.287   .     A
C738   C764    1.422   .     S
C738   O785    1.288   .     A
C739   C741    1.385   .     A
C740   C742    1.388   .     A
C740   H765    1.085   .     S
C741   H766    1.085   .     S
C741   C743    1.388   .     A
C742   C744    1.418   .     A
C742   C748    1.409   .     A
C743   C750    1.409   .     A
C743   C745    1.418   .     A
C744   C746    1.420   .     A
C744   C151    1.401   1_556 S
C745   C747    1.420   .     A
C746   C759    1.404   .     A
C747   C749    1.404   .     A
C748   C753    1.447   .     S
C748   C155    1.387   1_556 S
C749   H767    1.083   .     S
C750   C754    1.447   .     S
C751   N776    1.157   .     T
C752   N777    1.157   .     T
C753   N778    1.157   .     T
C754   N779    1.157   .     T
C755   N780    1.157   .     T
C756   N781    1.157   .     T
C757   N782    1.157   .     T
C758   N774    1.157   .     T
C759   H768    1.083   .     S
C759   C156    1.387   1_556 S
C760   H769    1.083   .     S
C761   H770    1.083   .     S
C761   C764    1.397   .     A
C761   C631    1.369   1_655 S
C762   C764    1.398   .     A
C762   H771    1.083   .     S
C762   C628    1.369   1_655 S
C763   H772    1.083   .     S
N773   Zn791   2.020   .     S
N775   Zn792   2.020   .     S
O783   Zn791   2.001   .     S
O784   Zn792   2.001   .     S
O785   Zn791   2.002   .     S
O786   Zn792   2.002   .     S
O787   Zn791   2.008   .     S
O788   Zn792   2.008   .     S
O789   Zn791   2.010   .     S
O790   Zn792   2.010   .     S
C793   O849    1.287   .     A
C793   C794    1.422   .     S
C793   O852    1.288   .     A
C794   C826    1.397   .     A
C794   C829    1.398   .     A
C795   N841    1.369   .     A
C795   C821    1.443   .     S
C796   N839    1.369   .     A
C796   C822    1.443   .     S
C796   C995    1.426   .     S
C797   N841    1.370   .     A
C797   C823    1.442   .     S
C798   C824    1.442   .     S
C798   N839    1.370   .     A
C798   C993    1.426   .     S
C799   O856    1.286   .     A
C799   C805    1.422   .     S
C799   O853    1.285   .     A
C800   C803    1.422   .     S
C800   O855    1.286   .     A
C800   O854    1.285   .     A
C801   C803    1.398   .     A
C801   C812    1.401   .     A
C801   C817    1.453   .     S
C802   C818    1.453   .     S
C802   C813    1.401   .     A
C802   C805    1.398   .     A
C803   C806    1.385   .     A
C804   O850    1.287   .     A
C804   C830    1.422   .     S
C804   O851    1.288   .     A
C805   C807    1.385   .     A
C806   C808    1.388   .     A
C806   H831    1.085   .     S
C807   H832    1.085   .     S
C807   C809    1.388   .     A
C808   C810    1.418   .     A
C808   C814    1.409   .     A
C809   C816    1.409   .     A
C809   C811    1.418   .     A
C810   C812    1.420   .     A
C810   C217    1.401   1_556 S
C811   C813    1.420   .     A
C812   C825    1.404   .     A
C813   C815    1.404   .     A
C814   C819    1.447   .     S
C814   C221    1.387   1_556 S
C815   H833    1.083   .     S
C816   C820    1.447   .     S
C817   N842    1.157   .     T
C818   N843    1.157   .     T
C819   N844    1.157   .     T
C820   N845    1.157   .     T
C821   N846    1.157   .     T
C822   N847    1.157   .     T
C823   N848    1.157   .     T
C824   N840    1.157   .     T
C825   H834    1.083   .     S
C825   C222    1.387   1_556 S
C826   H835    1.083   .     S
C826   C960    1.369   1_455 S
C827   H836    1.083   .     S
C827   C830    1.397   .     A
C827   C895    1.369   .     S
C828   C830    1.398   .     A
C828   H837    1.083   .     S
C828   C892    1.369   .     S
C829   H838    1.083   .     S
C829   C959    1.369   1_455 S
N839   Zn857   2.020   .     S
N841   Zn858   2.020   .     S
O849   Zn857   2.001   .     S
O850   Zn858   2.001   .     S
O851   Zn857   2.002   .     S
O852   Zn858   2.002   .     S
O853   Zn857   2.008   .     S
O854   Zn858   2.008   .     S
O855   Zn857   2.010   .     S
O856   Zn858   2.010   .     S
C859   O915    1.287   .     A
C859   C860    1.422   .     S
C859   O918    1.288   .     A
C860   C892    1.397   .     A
C860   C895    1.398   .     A
C861   N907    1.369   .     A
C861   C887    1.443   .     S
C862   N905    1.369   .     A
C862   C888    1.443   .     S
C862   C1061   1.426   .     S
C863   N907    1.370   .     A
C863   C889    1.442   .     S
C864   C890    1.442   .     S
C864   N905    1.370   .     A
C864   C1059   1.426   .     S
C865   O922    1.286   .     A
C865   C871    1.422   .     S
C865   O919    1.285   .     A
C866   C869    1.422   .     S
C866   O921    1.286   .     A
C866   O920    1.285   .     A
C867   C869    1.398   .     A
C867   C878    1.401   .     A
C867   C883    1.453   .     S
C868   C884    1.453   .     S
C868   C879    1.401   .     A
C868   C871    1.398   .     A
C869   C872    1.385   .     A
C870   O916    1.287   .     A
C870   C896    1.422   .     S
C870   O917    1.288   .     A
C871   C873    1.385   .     A
C872   C874    1.388   .     A
C872   H897    1.085   .     S
C873   H898    1.085   .     S
C873   C875    1.388   .     A
C874   C876    1.418   .     A
C874   C880    1.409   .     A
C875   C882    1.409   .     A
C875   C877    1.418   .     A
C876   C878    1.420   .     A
C876   C283    1.401   1_556 S
C877   C879    1.420   .     A
C878   C891    1.404   .     A
C879   C881    1.404   .     A
C880   C885    1.447   .     S
C880   C287    1.387   1_556 S
C881   H899    1.083   .     S
C882   C886    1.447   .     S
C883   N908    1.157   .     T
C884   N909    1.157   .     T
C885   N910    1.157   .     T
C886   N911    1.157   .     T
C887   N912    1.157   .     T
C888   N913    1.157   .     T
C889   N914    1.157   .     T
C890   N906    1.157   .     T
C891   H900    1.083   .     S
C891   C288    1.387   1_556 S
C892   H901    1.083   .     S
C893   H902    1.083   .     S
C893   C896    1.397   .     A
C893   C961    1.369   .     S
C894   C896    1.398   .     A
C894   H903    1.083   .     S
C894   C958    1.369   .     S
C895   H904    1.083   .     S
N905   Zn923   2.020   .     S
N907   Zn924   2.020   .     S
O915   Zn923   2.001   .     S
O916   Zn924   2.001   .     S
O917   Zn923   2.002   .     S
O918   Zn924   2.002   .     S
O919   Zn923   2.008   .     S
O920   Zn924   2.008   .     S
O921   Zn923   2.010   .     S
O922   Zn924   2.010   .     S
C925   O981    1.287   .     A
C925   C926    1.422   .     S
C925   O984    1.288   .     A
C926   C958    1.397   .     A
C926   C961    1.398   .     A
C927   N973    1.369   .     A
C927   C953    1.443   .     S
C928   N971    1.369   .     A
C928   C954    1.443   .     S
C928   C1127   1.426   .     S
C929   N973    1.370   .     A
C929   C955    1.442   .     S
C930   C956    1.442   .     S
C930   N971    1.370   .     A
C930   C1125   1.426   .     S
C931   O988    1.286   .     A
C931   C937    1.422   .     S
C931   O985    1.285   .     A
C932   C935    1.422   .     S
C932   O987    1.286   .     A
C932   O986    1.285   .     A
C933   C935    1.398   .     A
C933   C944    1.401   .     A
C933   C949    1.453   .     S
C934   C950    1.453   .     S
C934   C945    1.401   .     A
C934   C937    1.398   .     A
C935   C938    1.385   .     A
C936   O982    1.287   .     A
C936   C962    1.422   .     S
C936   O983    1.288   .     A
C937   C939    1.385   .     A
C938   C940    1.388   .     A
C938   H963    1.085   .     S
C939   H964    1.085   .     S
C939   C941    1.388   .     A
C940   C942    1.418   .     A
C940   C946    1.409   .     A
C941   C948    1.409   .     A
C941   C943    1.418   .     A
C942   C944    1.420   .     A
C942   C349    1.401   1_556 S
C943   C945    1.420   .     A
C944   C957    1.404   .     A
C945   C947    1.404   .     A
C946   C951    1.447   .     S
C946   C353    1.387   1_556 S
C947   H965    1.083   .     S
C948   C952    1.447   .     S
C949   N974    1.157   .     T
C950   N975    1.157   .     T
C951   N976    1.157   .     T
C952   N977    1.157   .     T
C953   N978    1.157   .     T
C954   N979    1.157   .     T
C955   N980    1.157   .     T
C956   N972    1.157   .     T
C957   H966    1.083   .     S
C957   C354    1.387   1_556 S
C958   H967    1.083   .     S
C959   H968    1.083   .     S
C959   C962    1.397   .     A
C959   C829    1.369   1_655 S
C960   C962    1.398   .     A
C960   H969    1.083   .     S
C960   C826    1.369   1_655 S
C961   H970    1.083   .     S
N971   Zn989   2.020   .     S
N973   Zn990   2.020   .     S
O981   Zn989   2.001   .     S
O982   Zn990   2.001   .     S
O983   Zn989   2.002   .     S
O984   Zn990   2.002   .     S
O985   Zn989   2.008   .     S
O986   Zn990   2.008   .     S
O987   Zn989   2.010   .     S
O988   Zn990   2.010   .     S
C991   O1047   1.287   .     A
C991   C992    1.422   .     S
C991   O1050   1.288   .     A
C992   C1024   1.397   .     A
C992   C1027   1.398   .     A
C993   N1039   1.369   .     A
C993   C1019   1.443   .     S
C994   N1037   1.369   .     A
C994   C1020   1.443   .     S
C994   C599    1.426   1_565 S
C995   N1039   1.370   .     A
C995   C1021   1.442   .     S
C996   C1022   1.442   .     S
C996   N1037   1.370   .     A
C996   C597    1.426   1_565 S
C997   O1054   1.286   .     A
C997   C1003   1.422   .     S
C997   O1051   1.285   .     A
C998   C1001   1.422   .     S
C998   O1053   1.286   .     A
C998   O1052   1.285   .     A
C999   C1001   1.398   .     A
C999   C1010   1.401   .     A
C999   C1015   1.453   .     S
C1000  C1016   1.453   .     S
C1000  C1011   1.401   .     A
C1000  C1003   1.398   .     A
C1001  C1004   1.385   .     A
C1002  O1048   1.287   .     A
C1002  C1028   1.422   .     S
C1002  O1049   1.288   .     A
C1003  C1005   1.385   .     A
C1004  C1006   1.388   .     A
C1004  H1029   1.085   .     S
C1005  H1030   1.085   .     S
C1005  C1007   1.388   .     A
C1006  C1008   1.418   .     A
C1006  C1012   1.409   .     A
C1007  C1014   1.409   .     A
C1007  C1009   1.418   .     A
C1008  C1010   1.420   .     A
C1008  C415    1.401   1_556 S
C1009  C1011   1.420   .     A
C1010  C1023   1.404   .     A
C1011  C1013   1.404   .     A
C1012  C1017   1.447   .     S
C1012  C419    1.387   1_556 S
C1013  H1031   1.083   .     S
C1014  C1018   1.447   .     S
C1015  N1040   1.157   .     T
C1016  N1041   1.157   .     T
C1017  N1042   1.157   .     T
C1018  N1043   1.157   .     T
C1019  N1044   1.157   .     T
C1020  N1045   1.157   .     T
C1021  N1046   1.157   .     T
C1022  N1038   1.157   .     T
C1023  H1032   1.083   .     S
C1023  C420    1.387   1_556 S
C1024  H1033   1.083   .     S
C1024  C1158   1.369   1_455 S
C1025  H1034   1.083   .     S
C1025  C1028   1.397   .     A
C1025  C1093   1.369   .     S
C1026  C1028   1.398   .     A
C1026  H1035   1.083   .     S
C1026  C1090   1.369   .     S
C1027  H1036   1.083   .     S
C1027  C1157   1.369   1_455 S
N1037  Zn1055  2.020   .     S
N1039  Zn1056  2.020   .     S
O1047  Zn1055  2.001   .     S
O1048  Zn1056  2.001   .     S
O1049  Zn1055  2.002   .     S
O1050  Zn1056  2.002   .     S
O1051  Zn1055  2.008   .     S
O1052  Zn1056  2.008   .     S
O1053  Zn1055  2.010   .     S
O1054  Zn1056  2.010   .     S
C1057  O1113   1.287   .     A
C1057  C1058   1.422   .     S
C1057  O1116   1.288   .     A
C1058  C1090   1.397   .     A
C1058  C1093   1.398   .     A
C1059  N1105   1.369   .     A
C1059  C1085   1.443   .     S
C1060  N1103   1.369   .     A
C1060  C1086   1.443   .     S
C1060  C665    1.426   1_565 S
C1061  N1105   1.370   .     A
C1061  C1087   1.442   .     S
C1062  C1088   1.442   .     S
C1062  N1103   1.370   .     A
C1062  C663    1.426   1_565 S
C1063  O1120   1.286   .     A
C1063  C1069   1.422   .     S
C1063  O1117   1.285   .     A
C1064  C1067   1.422   .     S
C1064  O1119   1.286   .     A
C1064  O1118   1.285   .     A
C1065  C1067   1.398   .     A
C1065  C1076   1.401   .     A
C1065  C1081   1.453   .     S
C1066  C1082   1.453   .     S
C1066  C1077   1.401   .     A
C1066  C1069   1.398   .     A
C1067  C1070   1.385   .     A
C1068  O1114   1.287   .     A
C1068  C1094   1.422   .     S
C1068  O1115   1.288   .     A
C1069  C1071   1.385   .     A
C1070  C1072   1.388   .     A
C1070  H1095   1.085   .     S
C1071  H1096   1.085   .     S
C1071  C1073   1.388   .     A
C1072  C1074   1.418   .     A
C1072  C1078   1.409   .     A
C1073  C1080   1.409   .     A
C1073  C1075   1.418   .     A
C1074  C1076   1.420   .     A
C1074  C481    1.401   1_556 S
C1075  C1077   1.420   .     A
C1076  C1089   1.404   .     A
C1077  C1079   1.404   .     A
C1078  C1083   1.447   .     S
C1078  C485    1.387   1_556 S
C1079  H1097   1.083   .     S
C1080  C1084   1.447   .     S
C1081  N1106   1.157   .     T
C1082  N1107   1.157   .     T
C1083  N1108   1.157   .     T
C1084  N1109   1.157   .     T
C1085  N1110   1.157   .     T
C1086  N1111   1.157   .     T
C1087  N1112   1.157   .     T
C1088  N1104   1.157   .     T
C1089  H1098   1.083   .     S
C1089  C486    1.387   1_556 S
C1090  H1099   1.083   .     S
C1091  H1100   1.083   .     S
C1091  C1094   1.397   .     A
C1091  C1159   1.369   .     S
C1092  C1094   1.398   .     A
C1092  H1101   1.083   .     S
C1092  C1156   1.369   .     S
C1093  H1102   1.083   .     S
N1103  Zn1121  2.020   .     S
N1105  Zn1122  2.020   .     S
O1113  Zn1121  2.001   .     S
O1114  Zn1122  2.001   .     S
O1115  Zn1121  2.002   .     S
O1116  Zn1122  2.002   .     S
O1117  Zn1121  2.008   .     S
O1118  Zn1122  2.008   .     S
O1119  Zn1121  2.010   .     S
O1120  Zn1122  2.010   .     S
C1123  O1179   1.287   .     A
C1123  C1124   1.422   .     S
C1123  O1182   1.288   .     A
C1124  C1156   1.397   .     A
C1124  C1159   1.398   .     A
C1125  N1171   1.369   .     A
C1125  C1151   1.443   .     S
C1126  N1169   1.369   .     A
C1126  C1152   1.443   .     S
C1126  C731    1.426   1_565 S
C1127  N1171   1.370   .     A
C1127  C1153   1.442   .     S
C1128  C1154   1.442   .     S
C1128  N1169   1.370   .     A
C1128  C729    1.426   1_565 S
C1129  O1186   1.286   .     A
C1129  C1135   1.422   .     S
C1129  O1183   1.285   .     A
C1130  C1133   1.422   .     S
C1130  O1185   1.286   .     A
C1130  O1184   1.285   .     A
C1131  C1133   1.398   .     A
C1131  C1142   1.401   .     A
C1131  C1147   1.453   .     S
C1132  C1148   1.453   .     S
C1132  C1143   1.401   .     A
C1132  C1135   1.398   .     A
C1133  C1136   1.385   .     A
C1134  O1180   1.287   .     A
C1134  C1160   1.422   .     S
C1134  O1181   1.288   .     A
C1135  C1137   1.385   .     A
C1136  C1138   1.388   .     A
C1136  H1161   1.085   .     S
C1137  H1162   1.085   .     S
C1137  C1139   1.388   .     A
C1138  C1140   1.418   .     A
C1138  C1144   1.409   .     A
C1139  C1146   1.409   .     A
C1139  C1141   1.418   .     A
C1140  C1142   1.420   .     A
C1140  C547    1.401   1_556 S
C1141  C1143   1.420   .     A
C1142  C1155   1.404   .     A
C1143  C1145   1.404   .     A
C1144  C1149   1.447   .     S
C1144  C551    1.387   1_556 S
C1145  H1163   1.083   .     S
C1146  C1150   1.447   .     S
C1147  N1172   1.157   .     T
C1148  N1173   1.157   .     T
C1149  N1174   1.157   .     T
C1150  N1175   1.157   .     T
C1151  N1176   1.157   .     T
C1152  N1177   1.157   .     T
C1153  N1178   1.157   .     T
C1154  N1170   1.157   .     T
C1155  H1164   1.083   .     S
C1155  C552    1.387   1_556 S
C1156  H1165   1.083   .     S
C1157  H1166   1.083   .     S
C1157  C1160   1.397   .     A
C1157  C1027   1.369   1_655 S
C1158  C1160   1.398   .     A
C1158  H1167   1.083   .     S
C1158  C1024   1.369   1_655 S
C1159  H1168   1.083   .     S
N1169  Zn1187  2.020   .     S
N1171  Zn1188  2.020   .     S
O1179  Zn1187  2.001   .     S
O1180  Zn1188  2.001   .     S
O1181  Zn1187  2.002   .     S
O1182  Zn1188  2.002   .     S
O1183  Zn1187  2.008   .     S
O1184  Zn1188  2.008   .     S
O1185  Zn1187  2.010   .     S
O1186  Zn1188  2.010   .     S
